data_str_m1_o1_o17_pcu_sym.7
_audit_creation_date              2020-01-03
_audit_creation_method            'Materials Studio'
_symmetry_space_group_name_H-M    'P1'
_symmetry_Int_Tables_number       1
_symmetry_cell_setting            triclinic
loop_
_symmetry_equiv_pos_as_xyz
  x,y,z
_cell_length_a                    36.6600
_cell_length_b                    36.6613
_cell_length_c                    34.4672
_cell_angle_alpha                 90.0258
_cell_angle_beta                  90.0261
_cell_angle_gamma                 89.9657
loop_
_atom_site_label
_atom_site_type_symbol
_atom_site_fract_x
_atom_site_fract_y
_atom_site_fract_z
_atom_site_U_iso_or_equiv
_atom_site_adp_type
_atom_site_occupancy
C1     C     0.48343   0.27900   0.41817   0.00000  Uiso   1.00
C2     C     0.27107   0.47430   0.08205   0.00000  Uiso   1.00
C3     C     0.22236   0.01932   0.54124   0.00000  Uiso   1.00
C4     C     0.48302   0.27891   0.45905   0.00000  Uiso   1.00
C5     C     0.01716   0.22106   0.54122   0.00000  Uiso   1.00
C6     C     0.22236   0.01945   0.45916   0.00000  Uiso   1.00
C7     C     0.27684   0.47980   0.54112   0.00000  Uiso   1.00
C8     C     0.27103   0.47382   0.95892   0.00000  Uiso   1.00
C9     C     0.22948   0.02690   0.04106   0.00000  Uiso   1.00
C10    C     0.03058   0.23584   0.95894   0.00000  Uiso   1.00
C11    C     0.47061   0.26601   0.04124   0.00000  Uiso   1.00
C12    C     0.22917   0.02650   0.95884   0.00000  Uiso   1.00
C13    C     0.46989   0.26438   0.91811   0.00000  Uiso   1.00
C14    C     0.27065   0.47362   0.04112   0.00000  Uiso   1.00
C15    C     0.46995   0.26475   0.95901   0.00000  Uiso   1.00
C16    C     0.03039   0.23526   0.04102   0.00000  Uiso   1.00
C17    C     0.09812   0.34814   0.25002   0.00000  Uiso   1.00
C18    C     0.40186   0.15188   0.75001   0.00000  Uiso   1.00
C19    C     0.15185   0.09811   0.25003   0.00000  Uiso   1.00
C20    C     0.34814   0.40189   0.74998   0.00000  Uiso   1.00
C21    C     0.40186   0.15187   0.24998   0.00000  Uiso   1.00
C22    C     0.09812   0.34815   0.74999   0.00000  Uiso   1.00
C23    C     0.34812   0.40187   0.24999   0.00000  Uiso   1.00
C24    C     0.02936   0.23314   0.08184   0.00000  Uiso   1.00
C25    C     0.15189   0.09814   0.75003   0.00000  Uiso   1.00
C26    C     0.09814   0.15189   0.75003   0.00000  Uiso   1.00
C27    C     0.40186   0.34812   0.24998   0.00000  Uiso   1.00
C28    C     0.15186   0.40187   0.74998   0.00000  Uiso   1.00
C29    C     0.34813   0.09813   0.25001   0.00000  Uiso   1.00
C30    C     0.40189   0.34815   0.74996   0.00000  Uiso   1.00
C31    C     0.09812   0.15186   0.25002   0.00000  Uiso   1.00
C32    C     0.34813   0.09813   0.75001   0.00000  Uiso   1.00
C33    C     0.15186   0.40187   0.25000   0.00000  Uiso   1.00
C34    C     0.49980   0.24985   0.47956   0.00000  Uiso   1.00
C35    C     0.27188   0.47477   0.91801   0.00000  Uiso   1.00
C36    C     0.49950   0.24971   0.52072   0.00000  Uiso   1.00
C37    C     0.24961   0.49971   0.47953   0.00000  Uiso   1.00
C38    C     0.24961   0.49960   0.52068   0.00000  Uiso   1.00
C39    C     0.25014   0.00022   0.97940   0.00000  Uiso   1.00
C40    C     0.25013   0.00028   0.02058   0.00000  Uiso   1.00
C41    C     0.00028   0.25032   0.97947   0.00000  Uiso   1.00
C42    C     0.00039   0.25051   0.02063   0.00000  Uiso   1.00
C43    C     0.49439   0.33671   0.38618   0.00000  Uiso   1.00
C44    C     0.01959   0.16710   0.62246   0.00000  Uiso   1.00
C45    C     0.20672   0.08131   0.39501   0.00000  Uiso   1.00
C46    C     0.22864   0.02592   0.08201   0.00000  Uiso   1.00
C47    C     0.33188   0.47511   0.62106   0.00000  Uiso   1.00
C48    C     0.07560   0.19844   0.39393   0.00000  Uiso   1.00
C49    C     0.48026   0.33338   0.62094   0.00000  Uiso   1.00
C50    C     0.33169   0.47582   0.37893   0.00000  Uiso   1.00
C51    C     0.16817   0.02461   0.62190   0.00000  Uiso   1.00
C52    C     0.22235   0.08125   0.87910   0.00000  Uiso   1.00
C53    C     0.27557   0.41819   0.12060   0.00000  Uiso   1.00
C54    C     0.41289   0.24929   0.88663   0.00000  Uiso   1.00
C55    C     0.05418   0.17589   0.10501   0.00000  Uiso   1.00
C56    C     0.27781   0.41898   0.87906   0.00000  Uiso   1.00
C57    C     0.02985   0.23459   0.91803   0.00000  Uiso   1.00
C58    C     0.17007   0.04332   0.11090   0.00000  Uiso   1.00
C59    C     0.05726   0.17894   0.89356   0.00000  Uiso   1.00
C60    C     0.41571   0.26276   0.12111   0.00000  Uiso   1.00
C61    C     0.47160   0.26687   0.08221   0.00000  Uiso   1.00
C62    C     0.00016   0.25001   0.39807   0.00000  Uiso   1.00
C63    C     0.49986   0.24990   0.60200   0.00000  Uiso   1.00
C64    C     0.24956   0.00026   0.39812   0.00000  Uiso   1.00
C65    C     0.01865   0.22229   0.58211   0.00000  Uiso   1.00
C66    C     0.24991   0.49988   0.60197   0.00000  Uiso   1.00
C67    C     0.25006   0.00005   0.89807   0.00000  Uiso   1.00
C68    C     0.24971  -0.00000   0.10191   0.00000  Uiso   1.00
C69    C     0.00006   0.24996   0.89802   0.00000  Uiso   1.00
C70    C     0.00046   0.24987   0.10199   0.00000  Uiso   1.00
C71    C     0.03125   0.19123   0.48005   0.00000  Uiso   1.00
C72    C     0.46536   0.30691   0.52017   0.00000  Uiso   1.00
C73    C     0.30466   0.46232   0.47984   0.00000  Uiso   1.00
C74    C     0.19413   0.03645   0.52030   0.00000  Uiso   1.00
C75    C     0.46592   0.30714   0.47998   0.00000  Uiso   1.00
C76    C     0.22349   0.02117   0.41833   0.00000  Uiso   1.00
C77    C     0.03182   0.19150   0.52024   0.00000  Uiso   1.00
C78    C     0.19406   0.03637   0.48014   0.00000  Uiso   1.00
C79    C     0.30466   0.46218   0.52003   0.00000  Uiso   1.00
C80    C     0.28968   0.44665   0.97995   0.00000  Uiso   1.00
C81    C     0.21028   0.05364   0.01994   0.00000  Uiso   1.00
C82    C     0.06135   0.22387   0.97989   0.00000  Uiso   1.00
C83    C     0.44065   0.27987   0.02024   0.00000  Uiso   1.00
C84    C     0.21023   0.05351   0.97979   0.00000  Uiso   1.00
C85    C     0.28940   0.44649   0.02011   0.00000  Uiso   1.00
C86    C     0.44046   0.27948   0.98002   0.00000  Uiso   1.00
C87    C     0.27596   0.47898   0.58205   0.00000  Uiso   1.00
C88    C     0.06114   0.22331   0.02008   0.00000  Uiso   1.00
C89    C     0.24967   0.00006   0.35578   0.00000  Uiso   1.00
C90    C     0.25003   0.49998   0.64426   0.00000  Uiso   1.00
C91    C     0.00003   0.25008   0.35577   0.00000  Uiso   1.00
C92    C     0.49998   0.25001   0.64427   0.00000  Uiso   1.00
C93    C     0.49991   0.24999   0.85574   0.00000  Uiso   1.00
C94    C     0.00029   0.24996   0.14426   0.00000  Uiso   1.00
C95    C     0.25001   0.49999   0.85576   0.00000  Uiso   1.00
C96    C     0.24995   0.00021   0.14423   0.00000  Uiso   1.00
C97    C     0.17993   0.07005   0.25001   0.00000  Uiso   1.00
C98    C     0.01793   0.22160   0.41815   0.00000  Uiso   1.00
C99    C     0.32006   0.42994   0.75000   0.00000  Uiso   1.00
C100   C     0.42994   0.17994   0.24999   0.00000  Uiso   1.00
C101   C     0.07005   0.32007   0.75000   0.00000  Uiso   1.00
C102   C     0.32005   0.42994   0.25000   0.00000  Uiso   1.00
C103   C     0.17995   0.07006   0.75001   0.00000  Uiso   1.00
C104   C     0.07006   0.32006   0.25001   0.00000  Uiso   1.00
C105   C     0.42993   0.17994   0.75000   0.00000  Uiso   1.00
C106   C     0.17994   0.42994   0.74999   0.00000  Uiso   1.00
C107   C     0.32006   0.07006   0.25001   0.00000  Uiso   1.00
C108   C     0.42995   0.32007   0.74999   0.00000  Uiso   1.00
C109   C     0.48059   0.27721   0.58216   0.00000  Uiso   1.00
C110   C     0.07006   0.17994   0.25001   0.00000  Uiso   1.00
C111   C     0.32006   0.07006   0.75000   0.00000  Uiso   1.00
C112   C     0.17994   0.42994   0.24999   0.00000  Uiso   1.00
C113   C     0.07006   0.17995   0.75001   0.00000  Uiso   1.00
C114   C     0.42994   0.32005   0.24999   0.00000  Uiso   1.00
C115   C     0.12195   0.40476   0.22484   0.00000  Uiso   1.00
C116   C     0.37800   0.09530   0.77523   0.00000  Uiso   1.00
C117   C     0.09689   0.12364   0.22260   0.00000  Uiso   1.00
C118   C     0.40379   0.37705   0.77653   0.00000  Uiso   1.00
C119   C     0.37803   0.09522   0.22486   0.00000  Uiso   1.00
C120   C     0.27579   0.47941   0.41795   0.00000  Uiso   1.00
C121   C     0.12194   0.40481   0.77511   0.00000  Uiso   1.00
C122   C     0.40379   0.37706   0.22350   0.00000  Uiso   1.00
C123   C     0.09673   0.12348   0.77720   0.00000  Uiso   1.00
C124   C     0.12348   0.09673   0.77719   0.00000  Uiso   1.00
C125   C     0.37705   0.40380   0.22350   0.00000  Uiso   1.00
C126   C     0.09521   0.37808   0.77511   0.00000  Uiso   1.00
C127   C     0.40476   0.12195   0.22484   0.00000  Uiso   1.00
C128   C     0.37704   0.40378   0.77654   0.00000  Uiso   1.00
C129   C     0.12362   0.09688   0.22262   0.00000  Uiso   1.00
C130   C     0.40473   0.12203   0.77523   0.00000  Uiso   1.00
C131   C     0.22358   0.02049   0.58213   0.00000  Uiso   1.00
C132   C     0.09522   0.37803   0.22486   0.00000  Uiso   1.00
C133   C     0.37198   0.15472   0.72479   0.00000  Uiso   1.00
C134   C     0.12804   0.34526   0.27518   0.00000  Uiso   1.00
C135   C     0.34626   0.37300   0.72339   0.00000  Uiso   1.00
C136   C     0.15307   0.12632   0.27746   0.00000  Uiso   1.00
C137   C     0.12803   0.34522   0.72485   0.00000  Uiso   1.00
C138   C     0.37196   0.15479   0.27513   0.00000  Uiso   1.00
C139   C     0.15330   0.12656   0.72289   0.00000  Uiso   1.00
C140   C     0.34618   0.37292   0.27646   0.00000  Uiso   1.00
C141   C     0.37291   0.34618   0.27645   0.00000  Uiso   1.00
C142   C     0.22829   0.02542   0.91793   0.00000  Uiso   1.00
C143   C     0.12656   0.15330   0.72289   0.00000  Uiso   1.00
C144   C     0.34523   0.12806   0.27514   0.00000  Uiso   1.00
C145   C     0.15476   0.37194   0.72485   0.00000  Uiso   1.00
C146   C     0.12632   0.15307   0.27746   0.00000  Uiso   1.00
C147   C     0.37300   0.34627   0.72339   0.00000  Uiso   1.00
C148   C     0.15477   0.37198   0.27516   0.00000  Uiso   1.00
C149   C     0.34526   0.12799   0.72480   0.00000  Uiso   1.00
C150   C     0.01676   0.22086   0.45907   0.00000  Uiso   1.00
C151   C     0.48150   0.27816   0.54122   0.00000  Uiso   1.00
C152   C     0.27681   0.48008   0.45890   0.00000  Uiso   1.00
F153   F     0.04408   0.16083   0.46210   0.00000  Uiso   1.00
F154   F     0.19149   0.08092   0.03744   0.00000  Uiso   1.00
F155   F     0.09265   0.21350   0.96190   0.00000  Uiso   1.00
F156   F     0.41043   0.29318   0.03800   0.00000  Uiso   1.00
F157   F     0.19213   0.08113   0.96203   0.00000  Uiso   1.00
F158   F     0.30676   0.41835   0.03780   0.00000  Uiso   1.00
F159   F     0.41089   0.29411   0.96205   0.00000  Uiso   1.00
F160   F     0.09216   0.21221   0.03815   0.00000  Uiso   1.00
F161   F     0.44958   0.33596   0.53785   0.00000  Uiso   1.00
F162   F     0.33331   0.44594   0.46205   0.00000  Uiso   1.00
F163   F     0.16520   0.05235   0.53809   0.00000  Uiso   1.00
F164   F     0.44909   0.33549   0.46197   0.00000  Uiso   1.00
F165   F     0.04539   0.16142   0.53805   0.00000  Uiso   1.00
F166   F     0.16504   0.05207   0.46219   0.00000  Uiso   1.00
F167   F     0.33332   0.44566   0.53770   0.00000  Uiso   1.00
F168   F     0.30732   0.41869   0.96226   0.00000  Uiso   1.00
H169   H     0.11916   0.42761   0.20516   0.00000  Uiso   1.00
H170   H     0.37903   0.42588   0.20274   0.00000  Uiso   1.00
H171   H     0.07233   0.38089   0.79476   0.00000  Uiso   1.00
H172   H     0.42762   0.11915   0.20517   0.00000  Uiso   1.00
H173   H     0.37897   0.42582   0.79738   0.00000  Uiso   1.00
H174   H     0.12221   0.07537   0.20112   0.00000  Uiso   1.00
H175   H     0.42757   0.11930   0.79497   0.00000  Uiso   1.00
H176   H     0.07234   0.38080   0.20518   0.00000  Uiso   1.00
H177   H     0.36923   0.17755   0.70506   0.00000  Uiso   1.00
H178   H     0.13082   0.32240   0.29487   0.00000  Uiso   1.00
H179   H     0.32421   0.37107   0.70256   0.00000  Uiso   1.00
H180   H     0.38076   0.07247   0.79496   0.00000  Uiso   1.00
H181   H     0.17456   0.12770   0.29899   0.00000  Uiso   1.00
H182   H     0.13082   0.32233   0.70520   0.00000  Uiso   1.00
H183   H     0.36918   0.17768   0.29480   0.00000  Uiso   1.00
H184   H     0.17496   0.12811   0.70159   0.00000  Uiso   1.00
H185   H     0.32409   0.37095   0.29722   0.00000  Uiso   1.00
H186   H     0.37093   0.32409   0.29720   0.00000  Uiso   1.00
H187   H     0.12811   0.17496   0.70159   0.00000  Uiso   1.00
H188   H     0.32237   0.13086   0.29482   0.00000  Uiso   1.00
H189   H     0.17764   0.36914   0.70520   0.00000  Uiso   1.00
H190   H     0.12769   0.17455   0.29900   0.00000  Uiso   1.00
H191   H     0.07540   0.12227   0.20107   0.00000  Uiso   1.00
H192   H     0.37106   0.32422   0.70256   0.00000  Uiso   1.00
H193   H     0.17765   0.36921   0.29484   0.00000  Uiso   1.00
H194   H     0.32242   0.13073   0.70507   0.00000  Uiso   1.00
H195   H     0.45022   0.30235   0.37561   0.00000  Uiso   1.00
H196   H     0.47976   0.36030   0.37328   0.00000  Uiso   1.00
H197   H     0.01380   0.32572   0.36436   0.00000  Uiso   1.00
H198   H     0.00978   0.34645   0.41197   0.00000  Uiso   1.00
H199   H     0.06551   0.19068   0.59466   0.00000  Uiso   1.00
H200   H     0.02585   0.14084   0.60785   0.00000  Uiso   1.00
H201   H     0.48960   0.17166   0.62149   0.00000  Uiso   1.00
H202   H     0.42584   0.37900   0.79735   0.00000  Uiso   1.00
H203   H     0.02816   0.16518   0.65328   0.00000  Uiso   1.00
H204   H     0.18812   0.03205   0.37197   0.00000  Uiso   1.00
H205   H     0.18406   0.09623   0.38066   0.00000  Uiso   1.00
H206   H     0.23198   0.08529   0.37779   0.00000  Uiso   1.00
H207   H     0.21085   0.09316   0.42434   0.00000  Uiso   1.00
H208   H     0.30417   0.43020   0.59565   0.00000  Uiso   1.00
H209   H     0.35718   0.46696   0.60564   0.00000  Uiso   1.00
H210   H     0.33426   0.46686   0.65194   0.00000  Uiso   1.00
H211   H     0.32921   0.00531   0.61978   0.00000  Uiso   1.00
H212   H     0.02438   0.18548   0.37161   0.00000  Uiso   1.00
H213   H     0.38081   0.07233   0.20519   0.00000  Uiso   1.00
H214   H     0.08783   0.17417   0.37968   0.00000  Uiso   1.00
H215   H     0.08825   0.20161   0.42302   0.00000  Uiso   1.00
H216   H     0.08203   0.22292   0.37632   0.00000  Uiso   1.00
H217   H     0.43358   0.30809   0.59624   0.00000  Uiso   1.00
H218   H     0.47350   0.35901   0.60536   0.00000  Uiso   1.00
H219   H     0.01024   0.32893   0.61948   0.00000  Uiso   1.00
H220   H     0.47235   0.33643   0.65185   0.00000  Uiso   1.00
H221   H     0.30407   0.43073   0.40404   0.00000  Uiso   1.00
H222   H     0.35702   0.46772   0.39435   0.00000  Uiso   1.00
H223   H     0.32891   0.00601   0.38032   0.00000  Uiso   1.00
H224   H     0.11916   0.42770   0.79476   0.00000  Uiso   1.00
H225   H     0.33410   0.46766   0.34802   0.00000  Uiso   1.00
H226   H     0.19519   0.06927   0.59528   0.00000  Uiso   1.00
H227   H     0.14258   0.03254   0.60687   0.00000  Uiso   1.00
H228   H     0.16629   0.03315   0.65274   0.00000  Uiso   1.00
H229   H     0.17091   0.49440   0.62085   0.00000  Uiso   1.00
H230   H     0.17842   0.05152   0.90392   0.00000  Uiso   1.00
H231   H     0.21323   0.10613   0.89468   0.00000  Uiso   1.00
H232   H     0.21402   0.08347   0.84823   0.00000  Uiso   1.00
H233   H     0.25263   0.07971   0.88041   0.00000  Uiso   1.00
H234   H     0.32030   0.44712   0.09637   0.00000  Uiso   1.00
H235   H     0.42588   0.37904   0.20275   0.00000  Uiso   1.00
H236   H     0.28411   0.39322   0.10480   0.00000  Uiso   1.00
H237   H     0.24534   0.42047   0.11927   0.00000  Uiso   1.00
H238   H     0.28380   0.41552   0.15147   0.00000  Uiso   1.00
H239   H     0.44447   0.29513   0.87491   0.00000  Uiso   1.00
H240   H     0.38838   0.26215   0.87353   0.00000  Uiso   1.00
H241   H     0.40422   0.23376   0.91272   0.00000  Uiso   1.00
H242   H     0.42505   0.23024   0.86515   0.00000  Uiso   1.00
H243   H     0.06526   0.22699   0.12863   0.00000  Uiso   1.00
H244   H     0.07860   0.16416   0.11942   0.00000  Uiso   1.00
H245   H     0.05188   0.16376   0.07557   0.00000  Uiso   1.00
H246   H     0.07509   0.12195   0.79851   0.00000  Uiso   1.00
H247   H     0.02964   0.16845   0.12210   0.00000  Uiso   1.00
H248   H     0.32169   0.44842   0.90435   0.00000  Uiso   1.00
H249   H     0.28687   0.39402   0.89453   0.00000  Uiso   1.00
H250   H     0.28617   0.41685   0.84819   0.00000  Uiso   1.00
H251   H     0.24753   0.42056   0.88031   0.00000  Uiso   1.00
H252   H     0.21474   0.07889   0.10086   0.00000  Uiso   1.00
H253   H     0.15237   0.06057   0.09232   0.00000  Uiso   1.00
H254   H     0.16340   0.04909   0.14169   0.00000  Uiso   1.00
H255   H     0.16401   0.01412   0.10494   0.00000  Uiso   1.00
H256   H     0.06614   0.23099   0.87136   0.00000  Uiso   1.00
H257   H     0.12193   0.07508   0.79850   0.00000  Uiso   1.00
H258   H     0.08237   0.16861   0.87930   0.00000  Uiso   1.00
H259   H     0.03334   0.17079   0.87585   0.00000  Uiso   1.00
H260   H     0.05504   0.16603   0.92260   0.00000  Uiso   1.00
H261   H     0.43713   0.31128   0.09639   0.00000  Uiso   1.00
H262   H     0.38957   0.26754   0.10566   0.00000  Uiso   1.00
H263   H     0.41219   0.27032   0.15207   0.00000  Uiso   1.00
H264   H     0.42248   0.23321   0.11951   0.00000  Uiso   1.00
N265   N     0.46828   0.30907   0.39735   0.00000  Uiso   1.00
N266   N     0.29327   0.44987   0.10402   0.00000  Uiso   1.00
N267   N     0.43884   0.27731   0.89721   0.00000  Uiso   1.00
N268   N     0.05791   0.21515   0.10264   0.00000  Uiso   1.00
N269   N     0.29476   0.45086   0.89616   0.00000  Uiso   1.00
N270   N     0.20817   0.05173   0.10408   0.00000  Uiso   1.00
N271   N     0.05925   0.21829   0.89701   0.00000  Uiso   1.00
N272   N     0.44419   0.28511   0.10432   0.00000  Uiso   1.00
N273   N     0.03942   0.19650   0.60393   0.00000  Uiso   1.00
N274   N     0.19762   0.04294   0.39764   0.00000  Uiso   1.00
N275   N     0.30068   0.45700   0.60392   0.00000  Uiso   1.00
N276   N     0.03650   0.19351   0.39722   0.00000  Uiso   1.00
N277   N     0.46025   0.30318   0.60416   0.00000  Uiso   1.00
N278   N     0.30054   0.45756   0.39597   0.00000  Uiso   1.00
N279   N     0.19902   0.04265   0.60401   0.00000  Uiso   1.00
N280   N     0.20544   0.04928   0.89600   0.00000  Uiso   1.00
O281   O     0.25000  -0.00000   0.25000   0.00000  Uiso   1.00
O282   O     0.25000   0.46963   0.66245   0.00000  Uiso   1.00
O283   O     0.46963   0.25000   0.33755   0.00000  Uiso   1.00
O284   O     0.03036   0.25000   0.66245   0.00000  Uiso   1.00
O285   O     0.00000   0.21963   0.83755   0.00000  Uiso   1.00
O286   O     0.00000   0.28036   0.16245   0.00000  Uiso   1.00
O287   O     0.28036  -0.00000   0.83755   0.00000  Uiso   1.00
O288   O     0.21963  -0.00000   0.16245   0.00000  Uiso   1.00
O289   O    -0.00000   0.28036   0.83755   0.00000  Uiso   1.00
O290   O     0.00000   0.21963   0.16245   0.00000  Uiso   1.00
O291   O     0.21963  -0.00000   0.83755   0.00000  Uiso   1.00
O292   O     0.25000  -0.00000   0.75000   0.00000  Uiso   1.00
O293   O     0.28036  -0.00000   0.16245   0.00000  Uiso   1.00
O294   O     0.20724   0.07307   0.27302   0.00000  Uiso   1.00
O295   O     0.29275   0.42692   0.72698   0.00000  Uiso   1.00
O296   O     0.42692   0.20724   0.27302   0.00000  Uiso   1.00
O297   O     0.07307   0.29275   0.72698   0.00000  Uiso   1.00
O298   O     0.29275   0.42692   0.27302   0.00000  Uiso   1.00
O299   O     0.20724   0.07307   0.72698   0.00000  Uiso   1.00
O300   O     0.07307   0.29275   0.27302   0.00000  Uiso   1.00
O301   O     0.42692   0.20724   0.72698   0.00000  Uiso   1.00
O302   O     0.20724   0.42692   0.72698   0.00000  Uiso   1.00
O303   O     0.00000   0.25000   0.25000   0.00000  Uiso   1.00
O304   O     0.29275   0.07307   0.27302   0.00000  Uiso   1.00
O305   O     0.42692   0.29275   0.72698   0.00000  Uiso   1.00
O306   O     0.07307   0.20724   0.27302   0.00000  Uiso   1.00
O307   O     0.29275   0.07307   0.72698   0.00000  Uiso   1.00
O308   O     0.20724   0.42692   0.27302   0.00000  Uiso   1.00
O309   O     0.07307   0.20724   0.72698   0.00000  Uiso   1.00
O310   O     0.42692   0.29275   0.27302   0.00000  Uiso   1.00
O311   O     0.45724   0.32307   0.77302   0.00000  Uiso   1.00
O312   O     0.04275   0.17692   0.22698   0.00000  Uiso   1.00
O313   O     0.17692   0.45724   0.77302   0.00000  Uiso   1.00
O314   O    -0.00000   0.25000   0.75000   0.00000  Uiso   1.00
O315   O     0.32307   0.04275   0.22698   0.00000  Uiso   1.00
O316   O     0.04275   0.17692   0.77302   0.00000  Uiso   1.00
O317   O     0.45724   0.32307   0.22698   0.00000  Uiso   1.00
O318   O     0.32307   0.04275   0.77302   0.00000  Uiso   1.00
O319   O     0.17692   0.45724   0.22698   0.00000  Uiso   1.00
O320   O     0.45724   0.17692   0.22698   0.00000  Uiso   1.00
O321   O     0.04275   0.32307   0.77302   0.00000  Uiso   1.00
O322   O     0.17692   0.04275   0.22698   0.00000  Uiso   1.00
O323   O     0.32307   0.45724   0.77302   0.00000  Uiso   1.00
O324   O     0.04275   0.32307   0.22698   0.00000  Uiso   1.00
O325   O     0.25000   0.46963   0.33755   0.00000  Uiso   1.00
O326   O     0.45724   0.17692   0.77302   0.00000  Uiso   1.00
O327   O     0.32307   0.45724   0.22698   0.00000  Uiso   1.00
O328   O     0.17692   0.04275   0.77302   0.00000  Uiso   1.00
O329   O     0.25000   0.03036   0.66245   0.00000  Uiso   1.00
O330   O     0.03036   0.25000   0.33755   0.00000  Uiso   1.00
O331   O     0.46963   0.25000   0.66245   0.00000  Uiso   1.00
O332   O     0.25000   0.03036   0.33755   0.00000  Uiso   1.00
Zn333  Zn    0.20659  -0.00000   0.21735   0.00000  Uiso   1.00
Zn334  Zn    0.04340   0.25000   0.28265   0.00000  Uiso   1.00
Zn335  Zn    0.25000   0.45659   0.71735   0.00000  Uiso   1.00
Zn336  Zn    0.25000   0.04340   0.28265   0.00000  Uiso   1.00
Zn337  Zn    0.04340   0.25000   0.71735   0.00000  Uiso   1.00
Zn338  Zn    0.45659   0.25000   0.28265   0.00000  Uiso   1.00
Zn339  Zn    0.25000   0.04340   0.71735   0.00000  Uiso   1.00
Zn340  Zn    0.25000   0.45659   0.28265   0.00000  Uiso   1.00
Zn341  Zn    0.29340  -0.00000   0.78265   0.00000  Uiso   1.00
Zn342  Zn    0.00000   0.20659   0.21735   0.00000  Uiso   1.00
Zn343  Zn    0.00000   0.29340   0.78265   0.00000  Uiso   1.00
Zn344  Zn    0.29340  -0.00000   0.21735   0.00000  Uiso   1.00
Zn345  Zn    0.20659  -0.00000   0.78265   0.00000  Uiso   1.00
Zn346  Zn   -0.00000   0.29340   0.21735   0.00000  Uiso   1.00
Zn347  Zn    0.00000   0.20659   0.78265   0.00000  Uiso   1.00
Zn348  Zn    0.45659   0.25000   0.71735   0.00000  Uiso   1.00
C349   C     0.98343   0.27900   0.41817   0.00000  Uiso   1.00
C350   C     0.77107   0.47430   0.08205   0.00000  Uiso   1.00
C351   C     0.72236   0.01932   0.54124   0.00000  Uiso   1.00
C352   C     0.98302   0.27891   0.45905   0.00000  Uiso   1.00
C353   C     0.51716   0.22106   0.54122   0.00000  Uiso   1.00
C354   C     0.72236   0.01945   0.45916   0.00000  Uiso   1.00
C355   C     0.77684   0.47980   0.54112   0.00000  Uiso   1.00
C356   C     0.77103   0.47382   0.95892   0.00000  Uiso   1.00
C357   C     0.72948   0.02690   0.04106   0.00000  Uiso   1.00
C358   C     0.53058   0.23584   0.95894   0.00000  Uiso   1.00
C359   C     0.97061   0.26601   0.04124   0.00000  Uiso   1.00
C360   C     0.72917   0.02650   0.95884   0.00000  Uiso   1.00
C361   C     0.96989   0.26438   0.91811   0.00000  Uiso   1.00
C362   C     0.77065   0.47362   0.04112   0.00000  Uiso   1.00
C363   C     0.96995   0.26475   0.95901   0.00000  Uiso   1.00
C364   C     0.53039   0.23526   0.04102   0.00000  Uiso   1.00
C365   C     0.59812   0.34814   0.25002   0.00000  Uiso   1.00
C366   C     0.90186   0.15188   0.75001   0.00000  Uiso   1.00
C367   C     0.65185   0.09811   0.25003   0.00000  Uiso   1.00
C368   C     0.84814   0.40189   0.74998   0.00000  Uiso   1.00
C369   C     0.90186   0.15187   0.24998   0.00000  Uiso   1.00
C370   C     0.59812   0.34815   0.74999   0.00000  Uiso   1.00
C371   C     0.84812   0.40187   0.24999   0.00000  Uiso   1.00
C372   C     0.52936   0.23314   0.08184   0.00000  Uiso   1.00
C373   C     0.65189   0.09814   0.75003   0.00000  Uiso   1.00
C374   C     0.59814   0.15189   0.75003   0.00000  Uiso   1.00
C375   C     0.90186   0.34812   0.24998   0.00000  Uiso   1.00
C376   C     0.65186   0.40187   0.74998   0.00000  Uiso   1.00
C377   C     0.84813   0.09813   0.25001   0.00000  Uiso   1.00
C378   C     0.90189   0.34815   0.74996   0.00000  Uiso   1.00
C379   C     0.59812   0.15186   0.25002   0.00000  Uiso   1.00
C380   C     0.84813   0.09813   0.75001   0.00000  Uiso   1.00
C381   C     0.65186   0.40187   0.25000   0.00000  Uiso   1.00
C382   C     0.99980   0.24985   0.47956   0.00000  Uiso   1.00
C383   C     0.77188   0.47477   0.91801   0.00000  Uiso   1.00
C384   C     0.99950   0.24971   0.52072   0.00000  Uiso   1.00
C385   C     0.74961   0.49971   0.47953   0.00000  Uiso   1.00
C386   C     0.74961   0.49960   0.52068   0.00000  Uiso   1.00
C387   C     0.75014   0.00022   0.97940   0.00000  Uiso   1.00
C388   C     0.75013   0.00028   0.02058   0.00000  Uiso   1.00
C389   C     0.50028   0.25032   0.97947   0.00000  Uiso   1.00
C390   C     0.50039   0.25051   0.02063   0.00000  Uiso   1.00
C391   C     0.99439   0.33671   0.38618   0.00000  Uiso   1.00
C392   C     0.51959   0.16710   0.62246   0.00000  Uiso   1.00
C393   C     0.70672   0.08131   0.39501   0.00000  Uiso   1.00
C394   C     0.72864   0.02592   0.08201   0.00000  Uiso   1.00
C395   C     0.83188   0.47511   0.62106   0.00000  Uiso   1.00
C396   C     0.57560   0.19844   0.39393   0.00000  Uiso   1.00
C397   C     0.98026   0.33338   0.62094   0.00000  Uiso   1.00
C398   C     0.83169   0.47582   0.37893   0.00000  Uiso   1.00
C399   C     0.66817   0.02461   0.62190   0.00000  Uiso   1.00
C400   C     0.72235   0.08125   0.87910   0.00000  Uiso   1.00
C401   C     0.77557   0.41819   0.12060   0.00000  Uiso   1.00
C402   C     0.91289   0.24929   0.88663   0.00000  Uiso   1.00
C403   C     0.55418   0.17589   0.10501   0.00000  Uiso   1.00
C404   C     0.77781   0.41898   0.87906   0.00000  Uiso   1.00
C405   C     0.52985   0.23459   0.91803   0.00000  Uiso   1.00
C406   C     0.67007   0.04332   0.11090   0.00000  Uiso   1.00
C407   C     0.55726   0.17894   0.89356   0.00000  Uiso   1.00
C408   C     0.91571   0.26276   0.12111   0.00000  Uiso   1.00
C409   C     0.97160   0.26687   0.08221   0.00000  Uiso   1.00
C410   C     0.50016   0.25001   0.39807   0.00000  Uiso   1.00
C411   C     0.99986   0.24990   0.60200   0.00000  Uiso   1.00
C412   C     0.74956   0.00026   0.39812   0.00000  Uiso   1.00
C413   C     0.51865   0.22229   0.58211   0.00000  Uiso   1.00
C414   C     0.74991   0.49988   0.60197   0.00000  Uiso   1.00
C415   C     0.75006   0.00005   0.89807   0.00000  Uiso   1.00
C416   C     0.74971  -0.00000   0.10191   0.00000  Uiso   1.00
C417   C     0.50006   0.24996   0.89802   0.00000  Uiso   1.00
C418   C     0.50046   0.24987   0.10199   0.00000  Uiso   1.00
C419   C     0.53125   0.19123   0.48005   0.00000  Uiso   1.00
C420   C     0.96536   0.30691   0.52017   0.00000  Uiso   1.00
C421   C     0.80466   0.46232   0.47984   0.00000  Uiso   1.00
C422   C     0.69413   0.03645   0.52030   0.00000  Uiso   1.00
C423   C     0.96592   0.30714   0.47998   0.00000  Uiso   1.00
C424   C     0.72349   0.02117   0.41833   0.00000  Uiso   1.00
C425   C     0.53182   0.19150   0.52024   0.00000  Uiso   1.00
C426   C     0.69406   0.03637   0.48014   0.00000  Uiso   1.00
C427   C     0.80466   0.46218   0.52003   0.00000  Uiso   1.00
C428   C     0.78968   0.44665   0.97995   0.00000  Uiso   1.00
C429   C     0.71028   0.05364   0.01994   0.00000  Uiso   1.00
C430   C     0.56135   0.22387   0.97989   0.00000  Uiso   1.00
C431   C     0.94065   0.27987   0.02024   0.00000  Uiso   1.00
C432   C     0.71023   0.05351   0.97979   0.00000  Uiso   1.00
C433   C     0.78940   0.44649   0.02011   0.00000  Uiso   1.00
C434   C     0.94046   0.27948   0.98002   0.00000  Uiso   1.00
C435   C     0.77596   0.47898   0.58205   0.00000  Uiso   1.00
C436   C     0.56114   0.22331   0.02008   0.00000  Uiso   1.00
C437   C     0.74967   0.00006   0.35578   0.00000  Uiso   1.00
C438   C     0.75003   0.49998   0.64426   0.00000  Uiso   1.00
C439   C     0.50003   0.25008   0.35577   0.00000  Uiso   1.00
C440   C     0.99998   0.25001   0.64427   0.00000  Uiso   1.00
C441   C     0.99991   0.24999   0.85574   0.00000  Uiso   1.00
C442   C     0.50029   0.24996   0.14426   0.00000  Uiso   1.00
C443   C     0.75001   0.49999   0.85576   0.00000  Uiso   1.00
C444   C     0.74995   0.00021   0.14423   0.00000  Uiso   1.00
C445   C     0.67993   0.07005   0.25001   0.00000  Uiso   1.00
C446   C     0.51793   0.22160   0.41815   0.00000  Uiso   1.00
C447   C     0.82006   0.42994   0.75000   0.00000  Uiso   1.00
C448   C     0.92994   0.17994   0.24999   0.00000  Uiso   1.00
C449   C     0.57005   0.32007   0.75000   0.00000  Uiso   1.00
C450   C     0.82005   0.42994   0.25000   0.00000  Uiso   1.00
C451   C     0.67995   0.07006   0.75001   0.00000  Uiso   1.00
C452   C     0.57006   0.32006   0.25001   0.00000  Uiso   1.00
C453   C     0.92993   0.17994   0.75000   0.00000  Uiso   1.00
C454   C     0.67994   0.42994   0.74999   0.00000  Uiso   1.00
C455   C     0.82006   0.07006   0.25001   0.00000  Uiso   1.00
C456   C     0.92995   0.32007   0.74999   0.00000  Uiso   1.00
C457   C     0.98059   0.27721   0.58216   0.00000  Uiso   1.00
C458   C     0.57006   0.17994   0.25001   0.00000  Uiso   1.00
C459   C     0.82006   0.07006   0.75000   0.00000  Uiso   1.00
C460   C     0.67994   0.42994   0.24999   0.00000  Uiso   1.00
C461   C     0.57006   0.17995   0.75001   0.00000  Uiso   1.00
C462   C     0.92994   0.32005   0.24999   0.00000  Uiso   1.00
C463   C     0.62195   0.40476   0.22484   0.00000  Uiso   1.00
C464   C     0.87800   0.09530   0.77523   0.00000  Uiso   1.00
C465   C     0.59689   0.12364   0.22260   0.00000  Uiso   1.00
C466   C     0.90379   0.37705   0.77653   0.00000  Uiso   1.00
C467   C     0.87803   0.09522   0.22486   0.00000  Uiso   1.00
C468   C     0.77579   0.47941   0.41795   0.00000  Uiso   1.00
C469   C     0.62194   0.40481   0.77511   0.00000  Uiso   1.00
C470   C     0.90379   0.37706   0.22350   0.00000  Uiso   1.00
C471   C     0.59673   0.12348   0.77720   0.00000  Uiso   1.00
C472   C     0.62348   0.09673   0.77719   0.00000  Uiso   1.00
C473   C     0.87705   0.40380   0.22350   0.00000  Uiso   1.00
C474   C     0.59521   0.37808   0.77511   0.00000  Uiso   1.00
C475   C     0.90476   0.12195   0.22484   0.00000  Uiso   1.00
C476   C     0.87704   0.40378   0.77654   0.00000  Uiso   1.00
C477   C     0.62362   0.09688   0.22262   0.00000  Uiso   1.00
C478   C     0.90473   0.12203   0.77523   0.00000  Uiso   1.00
C479   C     0.72358   0.02049   0.58213   0.00000  Uiso   1.00
C480   C     0.59522   0.37803   0.22486   0.00000  Uiso   1.00
C481   C     0.87198   0.15472   0.72479   0.00000  Uiso   1.00
C482   C     0.62804   0.34526   0.27518   0.00000  Uiso   1.00
C483   C     0.84626   0.37300   0.72339   0.00000  Uiso   1.00
C484   C     0.65307   0.12632   0.27746   0.00000  Uiso   1.00
C485   C     0.62803   0.34522   0.72485   0.00000  Uiso   1.00
C486   C     0.87196   0.15479   0.27513   0.00000  Uiso   1.00
C487   C     0.65330   0.12656   0.72289   0.00000  Uiso   1.00
C488   C     0.84618   0.37292   0.27646   0.00000  Uiso   1.00
C489   C     0.87291   0.34618   0.27645   0.00000  Uiso   1.00
C490   C     0.72829   0.02542   0.91793   0.00000  Uiso   1.00
C491   C     0.62656   0.15330   0.72289   0.00000  Uiso   1.00
C492   C     0.84523   0.12806   0.27514   0.00000  Uiso   1.00
C493   C     0.65476   0.37194   0.72485   0.00000  Uiso   1.00
C494   C     0.62632   0.15307   0.27746   0.00000  Uiso   1.00
C495   C     0.87300   0.34627   0.72339   0.00000  Uiso   1.00
C496   C     0.65477   0.37198   0.27516   0.00000  Uiso   1.00
C497   C     0.84526   0.12799   0.72480   0.00000  Uiso   1.00
C498   C     0.51676   0.22086   0.45907   0.00000  Uiso   1.00
C499   C     0.98150   0.27816   0.54122   0.00000  Uiso   1.00
C500   C     0.77681   0.48008   0.45890   0.00000  Uiso   1.00
F501   F     0.54408   0.16083   0.46210   0.00000  Uiso   1.00
F502   F     0.69149   0.08092   0.03744   0.00000  Uiso   1.00
F503   F     0.59265   0.21350   0.96190   0.00000  Uiso   1.00
F504   F     0.91043   0.29318   0.03800   0.00000  Uiso   1.00
F505   F     0.69213   0.08113   0.96203   0.00000  Uiso   1.00
F506   F     0.80676   0.41835   0.03780   0.00000  Uiso   1.00
F507   F     0.91089   0.29411   0.96205   0.00000  Uiso   1.00
F508   F     0.59216   0.21221   0.03815   0.00000  Uiso   1.00
F509   F     0.94958   0.33596   0.53785   0.00000  Uiso   1.00
F510   F     0.83331   0.44594   0.46205   0.00000  Uiso   1.00
F511   F     0.66520   0.05235   0.53809   0.00000  Uiso   1.00
F512   F     0.94909   0.33549   0.46197   0.00000  Uiso   1.00
F513   F     0.54539   0.16142   0.53805   0.00000  Uiso   1.00
F514   F     0.66504   0.05207   0.46219   0.00000  Uiso   1.00
F515   F     0.83332   0.44566   0.53770   0.00000  Uiso   1.00
F516   F     0.80732   0.41869   0.96226   0.00000  Uiso   1.00
H517   H     0.61916   0.42761   0.20516   0.00000  Uiso   1.00
H518   H     0.87903   0.42588   0.20274   0.00000  Uiso   1.00
H519   H     0.57233   0.38089   0.79476   0.00000  Uiso   1.00
H520   H     0.92762   0.11915   0.20517   0.00000  Uiso   1.00
H521   H     0.87897   0.42582   0.79738   0.00000  Uiso   1.00
H522   H     0.62221   0.07537   0.20112   0.00000  Uiso   1.00
H523   H     0.92757   0.11930   0.79497   0.00000  Uiso   1.00
H524   H     0.57234   0.38080   0.20518   0.00000  Uiso   1.00
H525   H     0.86923   0.17755   0.70506   0.00000  Uiso   1.00
H526   H     0.63082   0.32240   0.29487   0.00000  Uiso   1.00
H527   H     0.82421   0.37107   0.70256   0.00000  Uiso   1.00
H528   H     0.88076   0.07247   0.79496   0.00000  Uiso   1.00
H529   H     0.67456   0.12770   0.29899   0.00000  Uiso   1.00
H530   H     0.63082   0.32233   0.70520   0.00000  Uiso   1.00
H531   H     0.86918   0.17768   0.29480   0.00000  Uiso   1.00
H532   H     0.67496   0.12811   0.70159   0.00000  Uiso   1.00
H533   H     0.82409   0.37095   0.29722   0.00000  Uiso   1.00
H534   H     0.87093   0.32409   0.29720   0.00000  Uiso   1.00
H535   H     0.62811   0.17496   0.70159   0.00000  Uiso   1.00
H536   H     0.82237   0.13086   0.29482   0.00000  Uiso   1.00
H537   H     0.67764   0.36914   0.70520   0.00000  Uiso   1.00
H538   H     0.62769   0.17455   0.29900   0.00000  Uiso   1.00
H539   H     0.57540   0.12227   0.20107   0.00000  Uiso   1.00
H540   H     0.87106   0.32422   0.70256   0.00000  Uiso   1.00
H541   H     0.67765   0.36921   0.29484   0.00000  Uiso   1.00
H542   H     0.82242   0.13073   0.70507   0.00000  Uiso   1.00
H543   H     0.95022   0.30235   0.37561   0.00000  Uiso   1.00
H544   H     0.97976   0.36030   0.37328   0.00000  Uiso   1.00
H545   H     0.51380   0.32572   0.36436   0.00000  Uiso   1.00
H546   H     0.50978   0.34645   0.41197   0.00000  Uiso   1.00
H547   H     0.56551   0.19068   0.59466   0.00000  Uiso   1.00
H548   H     0.52585   0.14084   0.60785   0.00000  Uiso   1.00
H549   H     0.98960   0.17166   0.62149   0.00000  Uiso   1.00
H550   H     0.92584   0.37900   0.79735   0.00000  Uiso   1.00
H551   H     0.52816   0.16518   0.65328   0.00000  Uiso   1.00
H552   H     0.68812   0.03205   0.37197   0.00000  Uiso   1.00
H553   H     0.68406   0.09623   0.38066   0.00000  Uiso   1.00
H554   H     0.73198   0.08529   0.37779   0.00000  Uiso   1.00
H555   H     0.71085   0.09316   0.42434   0.00000  Uiso   1.00
H556   H     0.80417   0.43020   0.59565   0.00000  Uiso   1.00
H557   H     0.85718   0.46696   0.60564   0.00000  Uiso   1.00
H558   H     0.83426   0.46686   0.65194   0.00000  Uiso   1.00
H559   H     0.82921   0.00531   0.61978   0.00000  Uiso   1.00
H560   H     0.52438   0.18548   0.37161   0.00000  Uiso   1.00
H561   H     0.88081   0.07233   0.20519   0.00000  Uiso   1.00
H562   H     0.58783   0.17417   0.37968   0.00000  Uiso   1.00
H563   H     0.58825   0.20161   0.42302   0.00000  Uiso   1.00
H564   H     0.58203   0.22292   0.37632   0.00000  Uiso   1.00
H565   H     0.93358   0.30809   0.59624   0.00000  Uiso   1.00
H566   H     0.97350   0.35901   0.60536   0.00000  Uiso   1.00
H567   H     0.51024   0.32893   0.61948   0.00000  Uiso   1.00
H568   H     0.97235   0.33643   0.65185   0.00000  Uiso   1.00
H569   H     0.80407   0.43073   0.40404   0.00000  Uiso   1.00
H570   H     0.85702   0.46772   0.39435   0.00000  Uiso   1.00
H571   H     0.82891   0.00601   0.38032   0.00000  Uiso   1.00
H572   H     0.61916   0.42770   0.79476   0.00000  Uiso   1.00
H573   H     0.83410   0.46766   0.34802   0.00000  Uiso   1.00
H574   H     0.69519   0.06927   0.59528   0.00000  Uiso   1.00
H575   H     0.64258   0.03254   0.60687   0.00000  Uiso   1.00
H576   H     0.66629   0.03315   0.65274   0.00000  Uiso   1.00
H577   H     0.67091   0.49440   0.62085   0.00000  Uiso   1.00
H578   H     0.67842   0.05152   0.90392   0.00000  Uiso   1.00
H579   H     0.71323   0.10613   0.89468   0.00000  Uiso   1.00
H580   H     0.71402   0.08347   0.84823   0.00000  Uiso   1.00
H581   H     0.75263   0.07971   0.88041   0.00000  Uiso   1.00
H582   H     0.82030   0.44712   0.09637   0.00000  Uiso   1.00
H583   H     0.92588   0.37904   0.20275   0.00000  Uiso   1.00
H584   H     0.78411   0.39322   0.10480   0.00000  Uiso   1.00
H585   H     0.74534   0.42047   0.11927   0.00000  Uiso   1.00
H586   H     0.78380   0.41552   0.15147   0.00000  Uiso   1.00
H587   H     0.94447   0.29513   0.87491   0.00000  Uiso   1.00
H588   H     0.88838   0.26215   0.87353   0.00000  Uiso   1.00
H589   H     0.90422   0.23376   0.91272   0.00000  Uiso   1.00
H590   H     0.92505   0.23024   0.86515   0.00000  Uiso   1.00
H591   H     0.56526   0.22699   0.12863   0.00000  Uiso   1.00
H592   H     0.57860   0.16416   0.11942   0.00000  Uiso   1.00
H593   H     0.55188   0.16376   0.07557   0.00000  Uiso   1.00
H594   H     0.57509   0.12195   0.79851   0.00000  Uiso   1.00
H595   H     0.52964   0.16845   0.12210   0.00000  Uiso   1.00
H596   H     0.82169   0.44842   0.90435   0.00000  Uiso   1.00
H597   H     0.78687   0.39402   0.89453   0.00000  Uiso   1.00
H598   H     0.78617   0.41685   0.84819   0.00000  Uiso   1.00
H599   H     0.74753   0.42056   0.88031   0.00000  Uiso   1.00
H600   H     0.71474   0.07889   0.10086   0.00000  Uiso   1.00
H601   H     0.65237   0.06057   0.09232   0.00000  Uiso   1.00
H602   H     0.66340   0.04909   0.14169   0.00000  Uiso   1.00
H603   H     0.66401   0.01412   0.10494   0.00000  Uiso   1.00
H604   H     0.56614   0.23099   0.87136   0.00000  Uiso   1.00
H605   H     0.62193   0.07508   0.79850   0.00000  Uiso   1.00
H606   H     0.58237   0.16861   0.87930   0.00000  Uiso   1.00
H607   H     0.53334   0.17079   0.87585   0.00000  Uiso   1.00
H608   H     0.55504   0.16603   0.92260   0.00000  Uiso   1.00
H609   H     0.93713   0.31128   0.09639   0.00000  Uiso   1.00
H610   H     0.88957   0.26754   0.10566   0.00000  Uiso   1.00
H611   H     0.91219   0.27032   0.15207   0.00000  Uiso   1.00
H612   H     0.92248   0.23321   0.11951   0.00000  Uiso   1.00
N613   N     0.96828   0.30907   0.39735   0.00000  Uiso   1.00
N614   N     0.79327   0.44987   0.10402   0.00000  Uiso   1.00
N615   N     0.93884   0.27731   0.89721   0.00000  Uiso   1.00
N616   N     0.55791   0.21515   0.10264   0.00000  Uiso   1.00
N617   N     0.79476   0.45086   0.89616   0.00000  Uiso   1.00
N618   N     0.70817   0.05173   0.10408   0.00000  Uiso   1.00
N619   N     0.55925   0.21829   0.89701   0.00000  Uiso   1.00
N620   N     0.94419   0.28511   0.10432   0.00000  Uiso   1.00
N621   N     0.53942   0.19650   0.60393   0.00000  Uiso   1.00
N622   N     0.69762   0.04294   0.39764   0.00000  Uiso   1.00
N623   N     0.80068   0.45700   0.60392   0.00000  Uiso   1.00
N624   N     0.53650   0.19351   0.39722   0.00000  Uiso   1.00
N625   N     0.96025   0.30318   0.60416   0.00000  Uiso   1.00
N626   N     0.80054   0.45756   0.39597   0.00000  Uiso   1.00
N627   N     0.69902   0.04265   0.60401   0.00000  Uiso   1.00
N628   N     0.70544   0.04928   0.89600   0.00000  Uiso   1.00
O629   O     0.75000  -0.00000   0.25000   0.00000  Uiso   1.00
O630   O     0.75000   0.46963   0.66245   0.00000  Uiso   1.00
O631   O     0.96963   0.25000   0.33755   0.00000  Uiso   1.00
O632   O     0.53036   0.25000   0.66245   0.00000  Uiso   1.00
O633   O     0.50000   0.21963   0.83755   0.00000  Uiso   1.00
O634   O     0.50000   0.28036   0.16245   0.00000  Uiso   1.00
O635   O     0.78036  -0.00000   0.83755   0.00000  Uiso   1.00
O636   O     0.71963  -0.00000   0.16245   0.00000  Uiso   1.00
O637   O     0.50000   0.28036   0.83755   0.00000  Uiso   1.00
O638   O     0.50000   0.21963   0.16245   0.00000  Uiso   1.00
O639   O     0.71963  -0.00000   0.83755   0.00000  Uiso   1.00
O640   O     0.75000  -0.00000   0.75000   0.00000  Uiso   1.00
O641   O     0.78036  -0.00000   0.16245   0.00000  Uiso   1.00
O642   O     0.70724   0.07307   0.27302   0.00000  Uiso   1.00
O643   O     0.79275   0.42692   0.72698   0.00000  Uiso   1.00
O644   O     0.92692   0.20724   0.27302   0.00000  Uiso   1.00
O645   O     0.57307   0.29275   0.72698   0.00000  Uiso   1.00
O646   O     0.79275   0.42692   0.27302   0.00000  Uiso   1.00
O647   O     0.70724   0.07307   0.72698   0.00000  Uiso   1.00
O648   O     0.57307   0.29275   0.27302   0.00000  Uiso   1.00
O649   O     0.92692   0.20724   0.72698   0.00000  Uiso   1.00
O650   O     0.70724   0.42692   0.72698   0.00000  Uiso   1.00
O651   O     0.50000   0.25000   0.25000   0.00000  Uiso   1.00
O652   O     0.79275   0.07307   0.27302   0.00000  Uiso   1.00
O653   O     0.92692   0.29275   0.72698   0.00000  Uiso   1.00
O654   O     0.57307   0.20724   0.27302   0.00000  Uiso   1.00
O655   O     0.79275   0.07307   0.72698   0.00000  Uiso   1.00
O656   O     0.70724   0.42692   0.27302   0.00000  Uiso   1.00
O657   O     0.57307   0.20724   0.72698   0.00000  Uiso   1.00
O658   O     0.92692   0.29275   0.27302   0.00000  Uiso   1.00
O659   O     0.95724   0.32307   0.77302   0.00000  Uiso   1.00
O660   O     0.54275   0.17692   0.22698   0.00000  Uiso   1.00
O661   O     0.67692   0.45724   0.77302   0.00000  Uiso   1.00
O662   O     0.50000   0.25000   0.75000   0.00000  Uiso   1.00
O663   O     0.82307   0.04275   0.22698   0.00000  Uiso   1.00
O664   O     0.54275   0.17692   0.77302   0.00000  Uiso   1.00
O665   O     0.95724   0.32307   0.22698   0.00000  Uiso   1.00
O666   O     0.82307   0.04275   0.77302   0.00000  Uiso   1.00
O667   O     0.67692   0.45724   0.22698   0.00000  Uiso   1.00
O668   O     0.95724   0.17692   0.22698   0.00000  Uiso   1.00
O669   O     0.54275   0.32307   0.77302   0.00000  Uiso   1.00
O670   O     0.67692   0.04275   0.22698   0.00000  Uiso   1.00
O671   O     0.82307   0.45724   0.77302   0.00000  Uiso   1.00
O672   O     0.54275   0.32307   0.22698   0.00000  Uiso   1.00
O673   O     0.75000   0.46963   0.33755   0.00000  Uiso   1.00
O674   O     0.95724   0.17692   0.77302   0.00000  Uiso   1.00
O675   O     0.82307   0.45724   0.22698   0.00000  Uiso   1.00
O676   O     0.67692   0.04275   0.77302   0.00000  Uiso   1.00
O677   O     0.75000   0.03036   0.66245   0.00000  Uiso   1.00
O678   O     0.53036   0.25000   0.33755   0.00000  Uiso   1.00
O679   O     0.96963   0.25000   0.66245   0.00000  Uiso   1.00
O680   O     0.75000   0.03036   0.33755   0.00000  Uiso   1.00
Zn681  Zn    0.70659  -0.00000   0.21735   0.00000  Uiso   1.00
Zn682  Zn    0.54340   0.25000   0.28265   0.00000  Uiso   1.00
Zn683  Zn    0.75000   0.45659   0.71735   0.00000  Uiso   1.00
Zn684  Zn    0.75000   0.04340   0.28265   0.00000  Uiso   1.00
Zn685  Zn    0.54340   0.25000   0.71735   0.00000  Uiso   1.00
Zn686  Zn    0.95659   0.25000   0.28265   0.00000  Uiso   1.00
Zn687  Zn    0.75000   0.04340   0.71735   0.00000  Uiso   1.00
Zn688  Zn    0.75000   0.45659   0.28265   0.00000  Uiso   1.00
Zn689  Zn    0.79340  -0.00000   0.78265   0.00000  Uiso   1.00
Zn690  Zn    0.50000   0.20659   0.21735   0.00000  Uiso   1.00
Zn691  Zn    0.50000   0.29340   0.78265   0.00000  Uiso   1.00
Zn692  Zn    0.79340  -0.00000   0.21735   0.00000  Uiso   1.00
Zn693  Zn    0.70659  -0.00000   0.78265   0.00000  Uiso   1.00
Zn694  Zn    0.50000   0.29340   0.21735   0.00000  Uiso   1.00
Zn695  Zn    0.50000   0.20659   0.78265   0.00000  Uiso   1.00
Zn696  Zn    0.95659   0.25000   0.71735   0.00000  Uiso   1.00
C697   C     0.48343   0.77900   0.41817   0.00000  Uiso   1.00
C698   C     0.27107   0.97430   0.08205   0.00000  Uiso   1.00
C699   C     0.22236   0.51932   0.54124   0.00000  Uiso   1.00
C700   C     0.48302   0.77891   0.45905   0.00000  Uiso   1.00
C701   C     0.01716   0.72106   0.54122   0.00000  Uiso   1.00
C702   C     0.22236   0.51945   0.45916   0.00000  Uiso   1.00
C703   C     0.27684   0.97980   0.54112   0.00000  Uiso   1.00
C704   C     0.27103   0.97382   0.95892   0.00000  Uiso   1.00
C705   C     0.22948   0.52690   0.04106   0.00000  Uiso   1.00
C706   C     0.03058   0.73584   0.95894   0.00000  Uiso   1.00
C707   C     0.47061   0.76601   0.04124   0.00000  Uiso   1.00
C708   C     0.22917   0.52650   0.95884   0.00000  Uiso   1.00
C709   C     0.46989   0.76438   0.91811   0.00000  Uiso   1.00
C710   C     0.27065   0.97362   0.04112   0.00000  Uiso   1.00
C711   C     0.46995   0.76475   0.95901   0.00000  Uiso   1.00
C712   C     0.03039   0.73526   0.04102   0.00000  Uiso   1.00
C713   C     0.09812   0.84814   0.25002   0.00000  Uiso   1.00
C714   C     0.40186   0.65188   0.75001   0.00000  Uiso   1.00
C715   C     0.15185   0.59811   0.25003   0.00000  Uiso   1.00
C716   C     0.34814   0.90189   0.74998   0.00000  Uiso   1.00
C717   C     0.40186   0.65187   0.24998   0.00000  Uiso   1.00
C718   C     0.09812   0.84815   0.74999   0.00000  Uiso   1.00
C719   C     0.34812   0.90187   0.24999   0.00000  Uiso   1.00
C720   C     0.02936   0.73314   0.08184   0.00000  Uiso   1.00
C721   C     0.15189   0.59814   0.75003   0.00000  Uiso   1.00
C722   C     0.09814   0.65189   0.75003   0.00000  Uiso   1.00
C723   C     0.40186   0.84812   0.24998   0.00000  Uiso   1.00
C724   C     0.15186   0.90187   0.74998   0.00000  Uiso   1.00
C725   C     0.34813   0.59813   0.25001   0.00000  Uiso   1.00
C726   C     0.40189   0.84815   0.74996   0.00000  Uiso   1.00
C727   C     0.09812   0.65186   0.25002   0.00000  Uiso   1.00
C728   C     0.34813   0.59813   0.75001   0.00000  Uiso   1.00
C729   C     0.15186   0.90187   0.25000   0.00000  Uiso   1.00
C730   C     0.49980   0.74985   0.47956   0.00000  Uiso   1.00
C731   C     0.27188   0.97477   0.91801   0.00000  Uiso   1.00
C732   C     0.49950   0.74971   0.52072   0.00000  Uiso   1.00
C733   C     0.24961   0.99971   0.47953   0.00000  Uiso   1.00
C734   C     0.24961   0.99960   0.52068   0.00000  Uiso   1.00
C735   C     0.25014   0.50022   0.97940   0.00000  Uiso   1.00
C736   C     0.25013   0.50028   0.02058   0.00000  Uiso   1.00
C737   C     0.00028   0.75032   0.97947   0.00000  Uiso   1.00
C738   C     0.00039   0.75051   0.02063   0.00000  Uiso   1.00
C739   C     0.49439   0.83671   0.38618   0.00000  Uiso   1.00
C740   C     0.01959   0.66710   0.62246   0.00000  Uiso   1.00
C741   C     0.20672   0.58131   0.39501   0.00000  Uiso   1.00
C742   C     0.22864   0.52592   0.08201   0.00000  Uiso   1.00
C743   C     0.33188   0.97511   0.62106   0.00000  Uiso   1.00
C744   C     0.07560   0.69844   0.39393   0.00000  Uiso   1.00
C745   C     0.48026   0.83338   0.62094   0.00000  Uiso   1.00
C746   C     0.33169   0.97582   0.37893   0.00000  Uiso   1.00
C747   C     0.16817   0.52461   0.62190   0.00000  Uiso   1.00
C748   C     0.22235   0.58125   0.87910   0.00000  Uiso   1.00
C749   C     0.27557   0.91819   0.12060   0.00000  Uiso   1.00
C750   C     0.41289   0.74929   0.88663   0.00000  Uiso   1.00
C751   C     0.05418   0.67589   0.10501   0.00000  Uiso   1.00
C752   C     0.27781   0.91898   0.87906   0.00000  Uiso   1.00
C753   C     0.02985   0.73459   0.91803   0.00000  Uiso   1.00
C754   C     0.17007   0.54332   0.11090   0.00000  Uiso   1.00
C755   C     0.05726   0.67894   0.89356   0.00000  Uiso   1.00
C756   C     0.41571   0.76276   0.12111   0.00000  Uiso   1.00
C757   C     0.47160   0.76687   0.08221   0.00000  Uiso   1.00
C758   C     0.00016   0.75001   0.39807   0.00000  Uiso   1.00
C759   C     0.49986   0.74990   0.60200   0.00000  Uiso   1.00
C760   C     0.24956   0.50026   0.39812   0.00000  Uiso   1.00
C761   C     0.01865   0.72229   0.58211   0.00000  Uiso   1.00
C762   C     0.24991   0.99988   0.60197   0.00000  Uiso   1.00
C763   C     0.25006   0.50005   0.89807   0.00000  Uiso   1.00
C764   C     0.24971   0.50000   0.10191   0.00000  Uiso   1.00
C765   C     0.00006   0.74996   0.89802   0.00000  Uiso   1.00
C766   C     0.00046   0.74987   0.10199   0.00000  Uiso   1.00
C767   C     0.03125   0.69123   0.48005   0.00000  Uiso   1.00
C768   C     0.46536   0.80691   0.52017   0.00000  Uiso   1.00
C769   C     0.30466   0.96232   0.47984   0.00000  Uiso   1.00
C770   C     0.19413   0.53645   0.52030   0.00000  Uiso   1.00
C771   C     0.46592   0.80714   0.47998   0.00000  Uiso   1.00
C772   C     0.22349   0.52117   0.41833   0.00000  Uiso   1.00
C773   C     0.03182   0.69150   0.52024   0.00000  Uiso   1.00
C774   C     0.19406   0.53637   0.48014   0.00000  Uiso   1.00
C775   C     0.30466   0.96218   0.52003   0.00000  Uiso   1.00
C776   C     0.28968   0.94665   0.97995   0.00000  Uiso   1.00
C777   C     0.21028   0.55364   0.01994   0.00000  Uiso   1.00
C778   C     0.06135   0.72387   0.97989   0.00000  Uiso   1.00
C779   C     0.44065   0.77987   0.02024   0.00000  Uiso   1.00
C780   C     0.21023   0.55351   0.97979   0.00000  Uiso   1.00
C781   C     0.28940   0.94649   0.02011   0.00000  Uiso   1.00
C782   C     0.44046   0.77948   0.98002   0.00000  Uiso   1.00
C783   C     0.27596   0.97898   0.58205   0.00000  Uiso   1.00
C784   C     0.06114   0.72331   0.02008   0.00000  Uiso   1.00
C785   C     0.24967   0.50006   0.35578   0.00000  Uiso   1.00
C786   C     0.25003   0.99998   0.64426   0.00000  Uiso   1.00
C787   C     0.00003   0.75008   0.35577   0.00000  Uiso   1.00
C788   C     0.49998   0.75001   0.64427   0.00000  Uiso   1.00
C789   C     0.49991   0.74999   0.85574   0.00000  Uiso   1.00
C790   C     0.00029   0.74996   0.14426   0.00000  Uiso   1.00
C791   C     0.25001   0.99999   0.85576   0.00000  Uiso   1.00
C792   C     0.24995   0.50021   0.14423   0.00000  Uiso   1.00
C793   C     0.17993   0.57005   0.25001   0.00000  Uiso   1.00
C794   C     0.01793   0.72160   0.41815   0.00000  Uiso   1.00
C795   C     0.32006   0.92994   0.75000   0.00000  Uiso   1.00
C796   C     0.42994   0.67994   0.24999   0.00000  Uiso   1.00
C797   C     0.07005   0.82007   0.75000   0.00000  Uiso   1.00
C798   C     0.32005   0.92994   0.25000   0.00000  Uiso   1.00
C799   C     0.17995   0.57006   0.75001   0.00000  Uiso   1.00
C800   C     0.07006   0.82006   0.25001   0.00000  Uiso   1.00
C801   C     0.42993   0.67994   0.75000   0.00000  Uiso   1.00
C802   C     0.17994   0.92994   0.74999   0.00000  Uiso   1.00
C803   C     0.32006   0.57006   0.25001   0.00000  Uiso   1.00
C804   C     0.42995   0.82007   0.74999   0.00000  Uiso   1.00
C805   C     0.48059   0.77721   0.58216   0.00000  Uiso   1.00
C806   C     0.07006   0.67994   0.25001   0.00000  Uiso   1.00
C807   C     0.32006   0.57006   0.75000   0.00000  Uiso   1.00
C808   C     0.17994   0.92994   0.24999   0.00000  Uiso   1.00
C809   C     0.07006   0.67995   0.75001   0.00000  Uiso   1.00
C810   C     0.42994   0.82005   0.24999   0.00000  Uiso   1.00
C811   C     0.12195   0.90476   0.22484   0.00000  Uiso   1.00
C812   C     0.37800   0.59530   0.77523   0.00000  Uiso   1.00
C813   C     0.09689   0.62364   0.22260   0.00000  Uiso   1.00
C814   C     0.40379   0.87705   0.77653   0.00000  Uiso   1.00
C815   C     0.37803   0.59522   0.22486   0.00000  Uiso   1.00
C816   C     0.27579   0.97941   0.41795   0.00000  Uiso   1.00
C817   C     0.12194   0.90481   0.77511   0.00000  Uiso   1.00
C818   C     0.40379   0.87706   0.22350   0.00000  Uiso   1.00
C819   C     0.09673   0.62348   0.77720   0.00000  Uiso   1.00
C820   C     0.12348   0.59673   0.77719   0.00000  Uiso   1.00
C821   C     0.37705   0.90380   0.22350   0.00000  Uiso   1.00
C822   C     0.09521   0.87808   0.77511   0.00000  Uiso   1.00
C823   C     0.40476   0.62195   0.22484   0.00000  Uiso   1.00
C824   C     0.37704   0.90378   0.77654   0.00000  Uiso   1.00
C825   C     0.12362   0.59688   0.22262   0.00000  Uiso   1.00
C826   C     0.40473   0.62203   0.77523   0.00000  Uiso   1.00
C827   C     0.22358   0.52049   0.58213   0.00000  Uiso   1.00
C828   C     0.09522   0.87803   0.22486   0.00000  Uiso   1.00
C829   C     0.37198   0.65472   0.72479   0.00000  Uiso   1.00
C830   C     0.12804   0.84526   0.27518   0.00000  Uiso   1.00
C831   C     0.34626   0.87300   0.72339   0.00000  Uiso   1.00
C832   C     0.15307   0.62632   0.27746   0.00000  Uiso   1.00
C833   C     0.12803   0.84522   0.72485   0.00000  Uiso   1.00
C834   C     0.37196   0.65479   0.27513   0.00000  Uiso   1.00
C835   C     0.15330   0.62656   0.72289   0.00000  Uiso   1.00
C836   C     0.34618   0.87292   0.27646   0.00000  Uiso   1.00
C837   C     0.37291   0.84618   0.27645   0.00000  Uiso   1.00
C838   C     0.22829   0.52542   0.91793   0.00000  Uiso   1.00
C839   C     0.12656   0.65330   0.72289   0.00000  Uiso   1.00
C840   C     0.34523   0.62806   0.27514   0.00000  Uiso   1.00
C841   C     0.15476   0.87194   0.72485   0.00000  Uiso   1.00
C842   C     0.12632   0.65307   0.27746   0.00000  Uiso   1.00
C843   C     0.37300   0.84627   0.72339   0.00000  Uiso   1.00
C844   C     0.15477   0.87198   0.27516   0.00000  Uiso   1.00
C845   C     0.34526   0.62799   0.72480   0.00000  Uiso   1.00
C846   C     0.01676   0.72086   0.45907   0.00000  Uiso   1.00
C847   C     0.48150   0.77816   0.54122   0.00000  Uiso   1.00
C848   C     0.27681   0.98008   0.45890   0.00000  Uiso   1.00
F849   F     0.04408   0.66083   0.46210   0.00000  Uiso   1.00
F850   F     0.19149   0.58092   0.03744   0.00000  Uiso   1.00
F851   F     0.09265   0.71350   0.96190   0.00000  Uiso   1.00
F852   F     0.41043   0.79318   0.03800   0.00000  Uiso   1.00
F853   F     0.19213   0.58113   0.96203   0.00000  Uiso   1.00
F854   F     0.30676   0.91835   0.03780   0.00000  Uiso   1.00
F855   F     0.41089   0.79411   0.96205   0.00000  Uiso   1.00
F856   F     0.09216   0.71221   0.03815   0.00000  Uiso   1.00
F857   F     0.44958   0.83596   0.53785   0.00000  Uiso   1.00
F858   F     0.33331   0.94594   0.46205   0.00000  Uiso   1.00
F859   F     0.16520   0.55235   0.53809   0.00000  Uiso   1.00
F860   F     0.44909   0.83549   0.46197   0.00000  Uiso   1.00
F861   F     0.04539   0.66142   0.53805   0.00000  Uiso   1.00
F862   F     0.16504   0.55207   0.46219   0.00000  Uiso   1.00
F863   F     0.33332   0.94566   0.53770   0.00000  Uiso   1.00
F864   F     0.30732   0.91869   0.96226   0.00000  Uiso   1.00
H865   H     0.11916   0.92761   0.20516   0.00000  Uiso   1.00
H866   H     0.37903   0.92588   0.20274   0.00000  Uiso   1.00
H867   H     0.07233   0.88089   0.79476   0.00000  Uiso   1.00
H868   H     0.42762   0.61915   0.20517   0.00000  Uiso   1.00
H869   H     0.37897   0.92582   0.79738   0.00000  Uiso   1.00
H870   H     0.12221   0.57537   0.20112   0.00000  Uiso   1.00
H871   H     0.42757   0.61930   0.79497   0.00000  Uiso   1.00
H872   H     0.07234   0.88080   0.20518   0.00000  Uiso   1.00
H873   H     0.36923   0.67755   0.70506   0.00000  Uiso   1.00
H874   H     0.13082   0.82240   0.29487   0.00000  Uiso   1.00
H875   H     0.32421   0.87107   0.70256   0.00000  Uiso   1.00
H876   H     0.38076   0.57247   0.79496   0.00000  Uiso   1.00
H877   H     0.17456   0.62770   0.29899   0.00000  Uiso   1.00
H878   H     0.13082   0.82233   0.70520   0.00000  Uiso   1.00
H879   H     0.36918   0.67768   0.29480   0.00000  Uiso   1.00
H880   H     0.17496   0.62811   0.70159   0.00000  Uiso   1.00
H881   H     0.32409   0.87095   0.29722   0.00000  Uiso   1.00
H882   H     0.37093   0.82409   0.29720   0.00000  Uiso   1.00
H883   H     0.12811   0.67496   0.70159   0.00000  Uiso   1.00
H884   H     0.32237   0.63086   0.29482   0.00000  Uiso   1.00
H885   H     0.17764   0.86914   0.70520   0.00000  Uiso   1.00
H886   H     0.12769   0.67455   0.29900   0.00000  Uiso   1.00
H887   H     0.07540   0.62227   0.20107   0.00000  Uiso   1.00
H888   H     0.37106   0.82422   0.70256   0.00000  Uiso   1.00
H889   H     0.17765   0.86921   0.29484   0.00000  Uiso   1.00
H890   H     0.32242   0.63073   0.70507   0.00000  Uiso   1.00
H891   H     0.45022   0.80235   0.37561   0.00000  Uiso   1.00
H892   H     0.47976   0.86030   0.37328   0.00000  Uiso   1.00
H893   H     0.01380   0.82572   0.36436   0.00000  Uiso   1.00
H894   H     0.00978   0.84645   0.41197   0.00000  Uiso   1.00
H895   H     0.06551   0.69068   0.59466   0.00000  Uiso   1.00
H896   H     0.02585   0.64084   0.60785   0.00000  Uiso   1.00
H897   H     0.48960   0.67166   0.62149   0.00000  Uiso   1.00
H898   H     0.42584   0.87900   0.79735   0.00000  Uiso   1.00
H899   H     0.02816   0.66518   0.65328   0.00000  Uiso   1.00
H900   H     0.18812   0.53205   0.37197   0.00000  Uiso   1.00
H901   H     0.18406   0.59623   0.38066   0.00000  Uiso   1.00
H902   H     0.23198   0.58529   0.37779   0.00000  Uiso   1.00
H903   H     0.21085   0.59316   0.42434   0.00000  Uiso   1.00
H904   H     0.30417   0.93020   0.59565   0.00000  Uiso   1.00
H905   H     0.35718   0.96696   0.60564   0.00000  Uiso   1.00
H906   H     0.33426   0.96686   0.65194   0.00000  Uiso   1.00
H907   H     0.32921   0.50531   0.61978   0.00000  Uiso   1.00
H908   H     0.02438   0.68548   0.37161   0.00000  Uiso   1.00
H909   H     0.38081   0.57233   0.20519   0.00000  Uiso   1.00
H910   H     0.08783   0.67417   0.37968   0.00000  Uiso   1.00
H911   H     0.08825   0.70161   0.42302   0.00000  Uiso   1.00
H912   H     0.08203   0.72292   0.37632   0.00000  Uiso   1.00
H913   H     0.43358   0.80809   0.59624   0.00000  Uiso   1.00
H914   H     0.47350   0.85901   0.60536   0.00000  Uiso   1.00
H915   H     0.01024   0.82893   0.61948   0.00000  Uiso   1.00
H916   H     0.47235   0.83643   0.65185   0.00000  Uiso   1.00
H917   H     0.30407   0.93073   0.40404   0.00000  Uiso   1.00
H918   H     0.35702   0.96772   0.39435   0.00000  Uiso   1.00
H919   H     0.32891   0.50601   0.38032   0.00000  Uiso   1.00
H920   H     0.11916   0.92770   0.79476   0.00000  Uiso   1.00
H921   H     0.33410   0.96766   0.34802   0.00000  Uiso   1.00
H922   H     0.19519   0.56927   0.59528   0.00000  Uiso   1.00
H923   H     0.14258   0.53254   0.60687   0.00000  Uiso   1.00
H924   H     0.16629   0.53315   0.65274   0.00000  Uiso   1.00
H925   H     0.17091   0.99440   0.62085   0.00000  Uiso   1.00
H926   H     0.17842   0.55152   0.90392   0.00000  Uiso   1.00
H927   H     0.21323   0.60613   0.89468   0.00000  Uiso   1.00
H928   H     0.21402   0.58347   0.84823   0.00000  Uiso   1.00
H929   H     0.25263   0.57971   0.88041   0.00000  Uiso   1.00
H930   H     0.32030   0.94712   0.09637   0.00000  Uiso   1.00
H931   H     0.42588   0.87904   0.20275   0.00000  Uiso   1.00
H932   H     0.28411   0.89322   0.10480   0.00000  Uiso   1.00
H933   H     0.24534   0.92047   0.11927   0.00000  Uiso   1.00
H934   H     0.28380   0.91552   0.15147   0.00000  Uiso   1.00
H935   H     0.44447   0.79513   0.87491   0.00000  Uiso   1.00
H936   H     0.38838   0.76215   0.87353   0.00000  Uiso   1.00
H937   H     0.40422   0.73376   0.91272   0.00000  Uiso   1.00
H938   H     0.42505   0.73024   0.86515   0.00000  Uiso   1.00
H939   H     0.06526   0.72699   0.12863   0.00000  Uiso   1.00
H940   H     0.07860   0.66416   0.11942   0.00000  Uiso   1.00
H941   H     0.05188   0.66376   0.07557   0.00000  Uiso   1.00
H942   H     0.07509   0.62195   0.79851   0.00000  Uiso   1.00
H943   H     0.02964   0.66845   0.12210   0.00000  Uiso   1.00
H944   H     0.32169   0.94842   0.90435   0.00000  Uiso   1.00
H945   H     0.28687   0.89402   0.89453   0.00000  Uiso   1.00
H946   H     0.28617   0.91685   0.84819   0.00000  Uiso   1.00
H947   H     0.24753   0.92056   0.88031   0.00000  Uiso   1.00
H948   H     0.21474   0.57889   0.10086   0.00000  Uiso   1.00
H949   H     0.15237   0.56057   0.09232   0.00000  Uiso   1.00
H950   H     0.16340   0.54909   0.14169   0.00000  Uiso   1.00
H951   H     0.16401   0.51412   0.10494   0.00000  Uiso   1.00
H952   H     0.06614   0.73099   0.87136   0.00000  Uiso   1.00
H953   H     0.12193   0.57508   0.79850   0.00000  Uiso   1.00
H954   H     0.08237   0.66861   0.87930   0.00000  Uiso   1.00
H955   H     0.03334   0.67079   0.87585   0.00000  Uiso   1.00
H956   H     0.05504   0.66603   0.92260   0.00000  Uiso   1.00
H957   H     0.43713   0.81128   0.09639   0.00000  Uiso   1.00
H958   H     0.38957   0.76754   0.10566   0.00000  Uiso   1.00
H959   H     0.41219   0.77032   0.15207   0.00000  Uiso   1.00
H960   H     0.42248   0.73321   0.11951   0.00000  Uiso   1.00
N961   N     0.46828   0.80907   0.39735   0.00000  Uiso   1.00
N962   N     0.29327   0.94987   0.10402   0.00000  Uiso   1.00
N963   N     0.43884   0.77731   0.89721   0.00000  Uiso   1.00
N964   N     0.05791   0.71515   0.10264   0.00000  Uiso   1.00
N965   N     0.29476   0.95086   0.89616   0.00000  Uiso   1.00
N966   N     0.20817   0.55173   0.10408   0.00000  Uiso   1.00
N967   N     0.05925   0.71829   0.89701   0.00000  Uiso   1.00
N968   N     0.44419   0.78511   0.10432   0.00000  Uiso   1.00
N969   N     0.03942   0.69650   0.60393   0.00000  Uiso   1.00
N970   N     0.19762   0.54294   0.39764   0.00000  Uiso   1.00
N971   N     0.30068   0.95700   0.60392   0.00000  Uiso   1.00
N972   N     0.03650   0.69351   0.39722   0.00000  Uiso   1.00
N973   N     0.46025   0.80318   0.60416   0.00000  Uiso   1.00
N974   N     0.30054   0.95756   0.39597   0.00000  Uiso   1.00
N975   N     0.19902   0.54265   0.60401   0.00000  Uiso   1.00
N976   N     0.20544   0.54928   0.89600   0.00000  Uiso   1.00
O977   O     0.25000   0.50000   0.25000   0.00000  Uiso   1.00
O978   O     0.25000   0.96963   0.66245   0.00000  Uiso   1.00
O979   O     0.46963   0.75000   0.33755   0.00000  Uiso   1.00
O980   O     0.03036   0.75000   0.66245   0.00000  Uiso   1.00
O981   O     0.00000   0.71963   0.83755   0.00000  Uiso   1.00
O982   O     0.00000   0.78036   0.16245   0.00000  Uiso   1.00
O983   O     0.28036   0.50000   0.83755   0.00000  Uiso   1.00
O984   O     0.21963   0.50000   0.16245   0.00000  Uiso   1.00
O985   O    -0.00000   0.78036   0.83755   0.00000  Uiso   1.00
O986   O     0.00000   0.71963   0.16245   0.00000  Uiso   1.00
O987   O     0.21963   0.50000   0.83755   0.00000  Uiso   1.00
O988   O     0.25000   0.50000   0.75000   0.00000  Uiso   1.00
O989   O     0.28036   0.50000   0.16245   0.00000  Uiso   1.00
O990   O     0.20724   0.57307   0.27302   0.00000  Uiso   1.00
O991   O     0.29275   0.92692   0.72698   0.00000  Uiso   1.00
O992   O     0.42692   0.70724   0.27302   0.00000  Uiso   1.00
O993   O     0.07307   0.79275   0.72698   0.00000  Uiso   1.00
O994   O     0.29275   0.92692   0.27302   0.00000  Uiso   1.00
O995   O     0.20724   0.57307   0.72698   0.00000  Uiso   1.00
O996   O     0.07307   0.79275   0.27302   0.00000  Uiso   1.00
O997   O     0.42692   0.70724   0.72698   0.00000  Uiso   1.00
O998   O     0.20724   0.92692   0.72698   0.00000  Uiso   1.00
O999   O     0.00000   0.75000   0.25000   0.00000  Uiso   1.00
O1000  O     0.29275   0.57307   0.27302   0.00000  Uiso   1.00
O1001  O     0.42692   0.79275   0.72698   0.00000  Uiso   1.00
O1002  O     0.07307   0.70724   0.27302   0.00000  Uiso   1.00
O1003  O     0.29275   0.57307   0.72698   0.00000  Uiso   1.00
O1004  O     0.20724   0.92692   0.27302   0.00000  Uiso   1.00
O1005  O     0.07307   0.70724   0.72698   0.00000  Uiso   1.00
O1006  O     0.42692   0.79275   0.27302   0.00000  Uiso   1.00
O1007  O     0.45724   0.82307   0.77302   0.00000  Uiso   1.00
O1008  O     0.04275   0.67692   0.22698   0.00000  Uiso   1.00
O1009  O     0.17692   0.95724   0.77302   0.00000  Uiso   1.00
O1010  O    -0.00000   0.75000   0.75000   0.00000  Uiso   1.00
O1011  O     0.32307   0.54275   0.22698   0.00000  Uiso   1.00
O1012  O     0.04275   0.67692   0.77302   0.00000  Uiso   1.00
O1013  O     0.45724   0.82307   0.22698   0.00000  Uiso   1.00
O1014  O     0.32307   0.54275   0.77302   0.00000  Uiso   1.00
O1015  O     0.17692   0.95724   0.22698   0.00000  Uiso   1.00
O1016  O     0.45724   0.67692   0.22698   0.00000  Uiso   1.00
O1017  O     0.04275   0.82307   0.77302   0.00000  Uiso   1.00
O1018  O     0.17692   0.54275   0.22698   0.00000  Uiso   1.00
O1019  O     0.32307   0.95724   0.77302   0.00000  Uiso   1.00
O1020  O     0.04275   0.82307   0.22698   0.00000  Uiso   1.00
O1021  O     0.25000   0.96963   0.33755   0.00000  Uiso   1.00
O1022  O     0.45724   0.67692   0.77302   0.00000  Uiso   1.00
O1023  O     0.32307   0.95724   0.22698   0.00000  Uiso   1.00
O1024  O     0.17692   0.54275   0.77302   0.00000  Uiso   1.00
O1025  O     0.25000   0.53036   0.66245   0.00000  Uiso   1.00
O1026  O     0.03036   0.75000   0.33755   0.00000  Uiso   1.00
O1027  O     0.46963   0.75000   0.66245   0.00000  Uiso   1.00
O1028  O     0.25000   0.53036   0.33755   0.00000  Uiso   1.00
Zn1029 Zn    0.20659   0.50000   0.21735   0.00000  Uiso   1.00
Zn1030 Zn    0.04340   0.75000   0.28265   0.00000  Uiso   1.00
Zn1031 Zn    0.25000   0.95659   0.71735   0.00000  Uiso   1.00
Zn1032 Zn    0.25000   0.54340   0.28265   0.00000  Uiso   1.00
Zn1033 Zn    0.04340   0.75000   0.71735   0.00000  Uiso   1.00
Zn1034 Zn    0.45659   0.75000   0.28265   0.00000  Uiso   1.00
Zn1035 Zn    0.25000   0.54340   0.71735   0.00000  Uiso   1.00
Zn1036 Zn    0.25000   0.95659   0.28265   0.00000  Uiso   1.00
Zn1037 Zn    0.29340   0.50000   0.78265   0.00000  Uiso   1.00
Zn1038 Zn    0.00000   0.70659   0.21735   0.00000  Uiso   1.00
Zn1039 Zn    0.00000   0.79340   0.78265   0.00000  Uiso   1.00
Zn1040 Zn    0.29340   0.50000   0.21735   0.00000  Uiso   1.00
Zn1041 Zn    0.20659   0.50000   0.78265   0.00000  Uiso   1.00
Zn1042 Zn   -0.00000   0.79340   0.21735   0.00000  Uiso   1.00
Zn1043 Zn    0.00000   0.70659   0.78265   0.00000  Uiso   1.00
Zn1044 Zn    0.45659   0.75000   0.71735   0.00000  Uiso   1.00
C1045  C     0.98343   0.77900   0.41817   0.00000  Uiso   1.00
C1046  C     0.77107   0.97430   0.08205   0.00000  Uiso   1.00
C1047  C     0.72236   0.51932   0.54124   0.00000  Uiso   1.00
C1048  C     0.98302   0.77891   0.45905   0.00000  Uiso   1.00
C1049  C     0.51716   0.72106   0.54122   0.00000  Uiso   1.00
C1050  C     0.72236   0.51945   0.45916   0.00000  Uiso   1.00
C1051  C     0.77684   0.97980   0.54112   0.00000  Uiso   1.00
C1052  C     0.77103   0.97382   0.95892   0.00000  Uiso   1.00
C1053  C     0.72948   0.52690   0.04106   0.00000  Uiso   1.00
C1054  C     0.53058   0.73584   0.95894   0.00000  Uiso   1.00
C1055  C     0.97061   0.76601   0.04124   0.00000  Uiso   1.00
C1056  C     0.72917   0.52650   0.95884   0.00000  Uiso   1.00
C1057  C     0.96989   0.76438   0.91811   0.00000  Uiso   1.00
C1058  C     0.77065   0.97362   0.04112   0.00000  Uiso   1.00
C1059  C     0.96995   0.76475   0.95901   0.00000  Uiso   1.00
C1060  C     0.53039   0.73526   0.04102   0.00000  Uiso   1.00
C1061  C     0.59812   0.84814   0.25002   0.00000  Uiso   1.00
C1062  C     0.90186   0.65188   0.75001   0.00000  Uiso   1.00
C1063  C     0.65185   0.59811   0.25003   0.00000  Uiso   1.00
C1064  C     0.84814   0.90189   0.74998   0.00000  Uiso   1.00
C1065  C     0.90186   0.65187   0.24998   0.00000  Uiso   1.00
C1066  C     0.59812   0.84815   0.74999   0.00000  Uiso   1.00
C1067  C     0.84812   0.90187   0.24999   0.00000  Uiso   1.00
C1068  C     0.52936   0.73314   0.08184   0.00000  Uiso   1.00
C1069  C     0.65189   0.59814   0.75003   0.00000  Uiso   1.00
C1070  C     0.59814   0.65189   0.75003   0.00000  Uiso   1.00
C1071  C     0.90186   0.84812   0.24998   0.00000  Uiso   1.00
C1072  C     0.65186   0.90187   0.74998   0.00000  Uiso   1.00
C1073  C     0.84813   0.59813   0.25001   0.00000  Uiso   1.00
C1074  C     0.90189   0.84815   0.74996   0.00000  Uiso   1.00
C1075  C     0.59812   0.65186   0.25002   0.00000  Uiso   1.00
C1076  C     0.84813   0.59813   0.75001   0.00000  Uiso   1.00
C1077  C     0.65186   0.90187   0.25000   0.00000  Uiso   1.00
C1078  C     0.99980   0.74985   0.47956   0.00000  Uiso   1.00
C1079  C     0.77188   0.97477   0.91801   0.00000  Uiso   1.00
C1080  C     0.99950   0.74971   0.52072   0.00000  Uiso   1.00
C1081  C     0.74961   0.99971   0.47953   0.00000  Uiso   1.00
C1082  C     0.74961   0.99960   0.52068   0.00000  Uiso   1.00
C1083  C     0.75014   0.50022   0.97940   0.00000  Uiso   1.00
C1084  C     0.75013   0.50028   0.02058   0.00000  Uiso   1.00
C1085  C     0.50028   0.75032   0.97947   0.00000  Uiso   1.00
C1086  C     0.50039   0.75051   0.02063   0.00000  Uiso   1.00
C1087  C     0.99439   0.83671   0.38618   0.00000  Uiso   1.00
C1088  C     0.51959   0.66710   0.62246   0.00000  Uiso   1.00
C1089  C     0.70672   0.58131   0.39501   0.00000  Uiso   1.00
C1090  C     0.72864   0.52592   0.08201   0.00000  Uiso   1.00
C1091  C     0.83188   0.97511   0.62106   0.00000  Uiso   1.00
C1092  C     0.57560   0.69844   0.39393   0.00000  Uiso   1.00
C1093  C     0.98026   0.83338   0.62094   0.00000  Uiso   1.00
C1094  C     0.83169   0.97582   0.37893   0.00000  Uiso   1.00
C1095  C     0.66817   0.52461   0.62190   0.00000  Uiso   1.00
C1096  C     0.72235   0.58125   0.87910   0.00000  Uiso   1.00
C1097  C     0.77557   0.91819   0.12060   0.00000  Uiso   1.00
C1098  C     0.91289   0.74929   0.88663   0.00000  Uiso   1.00
C1099  C     0.55418   0.67589   0.10501   0.00000  Uiso   1.00
C1100  C     0.77781   0.91898   0.87906   0.00000  Uiso   1.00
C1101  C     0.52985   0.73459   0.91803   0.00000  Uiso   1.00
C1102  C     0.67007   0.54332   0.11090   0.00000  Uiso   1.00
C1103  C     0.55726   0.67894   0.89356   0.00000  Uiso   1.00
C1104  C     0.91571   0.76276   0.12111   0.00000  Uiso   1.00
C1105  C     0.97160   0.76687   0.08221   0.00000  Uiso   1.00
C1106  C     0.50016   0.75001   0.39807   0.00000  Uiso   1.00
C1107  C     0.99986   0.74990   0.60200   0.00000  Uiso   1.00
C1108  C     0.74956   0.50026   0.39812   0.00000  Uiso   1.00
C1109  C     0.51865   0.72229   0.58211   0.00000  Uiso   1.00
C1110  C     0.74991   0.99988   0.60197   0.00000  Uiso   1.00
C1111  C     0.75006   0.50005   0.89807   0.00000  Uiso   1.00
C1112  C     0.74971   0.50000   0.10191   0.00000  Uiso   1.00
C1113  C     0.50006   0.74996   0.89802   0.00000  Uiso   1.00
C1114  C     0.50046   0.74987   0.10199   0.00000  Uiso   1.00
C1115  C     0.53125   0.69123   0.48005   0.00000  Uiso   1.00
C1116  C     0.96536   0.80691   0.52017   0.00000  Uiso   1.00
C1117  C     0.80466   0.96232   0.47984   0.00000  Uiso   1.00
C1118  C     0.69413   0.53645   0.52030   0.00000  Uiso   1.00
C1119  C     0.96592   0.80714   0.47998   0.00000  Uiso   1.00
C1120  C     0.72349   0.52117   0.41833   0.00000  Uiso   1.00
C1121  C     0.53182   0.69150   0.52024   0.00000  Uiso   1.00
C1122  C     0.69406   0.53637   0.48014   0.00000  Uiso   1.00
C1123  C     0.80466   0.96218   0.52003   0.00000  Uiso   1.00
C1124  C     0.78968   0.94665   0.97995   0.00000  Uiso   1.00
C1125  C     0.71028   0.55364   0.01994   0.00000  Uiso   1.00
C1126  C     0.56135   0.72387   0.97989   0.00000  Uiso   1.00
C1127  C     0.94065   0.77987   0.02024   0.00000  Uiso   1.00
C1128  C     0.71023   0.55351   0.97979   0.00000  Uiso   1.00
C1129  C     0.78940   0.94649   0.02011   0.00000  Uiso   1.00
C1130  C     0.94046   0.77948   0.98002   0.00000  Uiso   1.00
C1131  C     0.77596   0.97898   0.58205   0.00000  Uiso   1.00
C1132  C     0.56114   0.72331   0.02008   0.00000  Uiso   1.00
C1133  C     0.74967   0.50006   0.35578   0.00000  Uiso   1.00
C1134  C     0.75003   0.99998   0.64426   0.00000  Uiso   1.00
C1135  C     0.50003   0.75008   0.35577   0.00000  Uiso   1.00
C1136  C     0.99998   0.75001   0.64427   0.00000  Uiso   1.00
C1137  C     0.99991   0.74999   0.85574   0.00000  Uiso   1.00
C1138  C     0.50029   0.74996   0.14426   0.00000  Uiso   1.00
C1139  C     0.75001   0.99999   0.85576   0.00000  Uiso   1.00
C1140  C     0.74995   0.50021   0.14423   0.00000  Uiso   1.00
C1141  C     0.67993   0.57005   0.25001   0.00000  Uiso   1.00
C1142  C     0.51793   0.72160   0.41815   0.00000  Uiso   1.00
C1143  C     0.82006   0.92994   0.75000   0.00000  Uiso   1.00
C1144  C     0.92994   0.67994   0.24999   0.00000  Uiso   1.00
C1145  C     0.57005   0.82007   0.75000   0.00000  Uiso   1.00
C1146  C     0.82005   0.92994   0.25000   0.00000  Uiso   1.00
C1147  C     0.67995   0.57006   0.75001   0.00000  Uiso   1.00
C1148  C     0.57006   0.82006   0.25001   0.00000  Uiso   1.00
C1149  C     0.92993   0.67994   0.75000   0.00000  Uiso   1.00
C1150  C     0.67994   0.92994   0.74999   0.00000  Uiso   1.00
C1151  C     0.82006   0.57006   0.25001   0.00000  Uiso   1.00
C1152  C     0.92995   0.82007   0.74999   0.00000  Uiso   1.00
C1153  C     0.98059   0.77721   0.58216   0.00000  Uiso   1.00
C1154  C     0.57006   0.67994   0.25001   0.00000  Uiso   1.00
C1155  C     0.82006   0.57006   0.75000   0.00000  Uiso   1.00
C1156  C     0.67994   0.92994   0.24999   0.00000  Uiso   1.00
C1157  C     0.57006   0.67995   0.75001   0.00000  Uiso   1.00
C1158  C     0.92994   0.82005   0.24999   0.00000  Uiso   1.00
C1159  C     0.62195   0.90476   0.22484   0.00000  Uiso   1.00
C1160  C     0.87800   0.59530   0.77523   0.00000  Uiso   1.00
C1161  C     0.59689   0.62364   0.22260   0.00000  Uiso   1.00
C1162  C     0.90379   0.87705   0.77653   0.00000  Uiso   1.00
C1163  C     0.87803   0.59522   0.22486   0.00000  Uiso   1.00
C1164  C     0.77579   0.97941   0.41795   0.00000  Uiso   1.00
C1165  C     0.62194   0.90481   0.77511   0.00000  Uiso   1.00
C1166  C     0.90379   0.87706   0.22350   0.00000  Uiso   1.00
C1167  C     0.59673   0.62348   0.77720   0.00000  Uiso   1.00
C1168  C     0.62348   0.59673   0.77719   0.00000  Uiso   1.00
C1169  C     0.87705   0.90380   0.22350   0.00000  Uiso   1.00
C1170  C     0.59521   0.87808   0.77511   0.00000  Uiso   1.00
C1171  C     0.90476   0.62195   0.22484   0.00000  Uiso   1.00
C1172  C     0.87704   0.90378   0.77654   0.00000  Uiso   1.00
C1173  C     0.62362   0.59688   0.22262   0.00000  Uiso   1.00
C1174  C     0.90473   0.62203   0.77523   0.00000  Uiso   1.00
C1175  C     0.72358   0.52049   0.58213   0.00000  Uiso   1.00
C1176  C     0.59522   0.87803   0.22486   0.00000  Uiso   1.00
C1177  C     0.87198   0.65472   0.72479   0.00000  Uiso   1.00
C1178  C     0.62804   0.84526   0.27518   0.00000  Uiso   1.00
C1179  C     0.84626   0.87300   0.72339   0.00000  Uiso   1.00
C1180  C     0.65307   0.62632   0.27746   0.00000  Uiso   1.00
C1181  C     0.62803   0.84522   0.72485   0.00000  Uiso   1.00
C1182  C     0.87196   0.65479   0.27513   0.00000  Uiso   1.00
C1183  C     0.65330   0.62656   0.72289   0.00000  Uiso   1.00
C1184  C     0.84618   0.87292   0.27646   0.00000  Uiso   1.00
C1185  C     0.87291   0.84618   0.27645   0.00000  Uiso   1.00
C1186  C     0.72829   0.52542   0.91793   0.00000  Uiso   1.00
C1187  C     0.62656   0.65330   0.72289   0.00000  Uiso   1.00
C1188  C     0.84523   0.62806   0.27514   0.00000  Uiso   1.00
C1189  C     0.65476   0.87194   0.72485   0.00000  Uiso   1.00
C1190  C     0.62632   0.65307   0.27746   0.00000  Uiso   1.00
C1191  C     0.87300   0.84627   0.72339   0.00000  Uiso   1.00
C1192  C     0.65477   0.87198   0.27516   0.00000  Uiso   1.00
C1193  C     0.84526   0.62799   0.72480   0.00000  Uiso   1.00
C1194  C     0.51676   0.72086   0.45907   0.00000  Uiso   1.00
C1195  C     0.98150   0.77816   0.54122   0.00000  Uiso   1.00
C1196  C     0.77681   0.98008   0.45890   0.00000  Uiso   1.00
F1197  F     0.54408   0.66083   0.46210   0.00000  Uiso   1.00
F1198  F     0.69149   0.58092   0.03744   0.00000  Uiso   1.00
F1199  F     0.59265   0.71350   0.96190   0.00000  Uiso   1.00
F1200  F     0.91043   0.79318   0.03800   0.00000  Uiso   1.00
F1201  F     0.69213   0.58113   0.96203   0.00000  Uiso   1.00
F1202  F     0.80676   0.91835   0.03780   0.00000  Uiso   1.00
F1203  F     0.91089   0.79411   0.96205   0.00000  Uiso   1.00
F1204  F     0.59216   0.71221   0.03815   0.00000  Uiso   1.00
F1205  F     0.94958   0.83596   0.53785   0.00000  Uiso   1.00
F1206  F     0.83331   0.94594   0.46205   0.00000  Uiso   1.00
F1207  F     0.66520   0.55235   0.53809   0.00000  Uiso   1.00
F1208  F     0.94909   0.83549   0.46197   0.00000  Uiso   1.00
F1209  F     0.54539   0.66142   0.53805   0.00000  Uiso   1.00
F1210  F     0.66504   0.55207   0.46219   0.00000  Uiso   1.00
F1211  F     0.83332   0.94566   0.53770   0.00000  Uiso   1.00
F1212  F     0.80732   0.91869   0.96226   0.00000  Uiso   1.00
H1213  H     0.61916   0.92761   0.20516   0.00000  Uiso   1.00
H1214  H     0.87903   0.92588   0.20274   0.00000  Uiso   1.00
H1215  H     0.57233   0.88089   0.79476   0.00000  Uiso   1.00
H1216  H     0.92762   0.61915   0.20517   0.00000  Uiso   1.00
H1217  H     0.87897   0.92582   0.79738   0.00000  Uiso   1.00
H1218  H     0.62221   0.57537   0.20112   0.00000  Uiso   1.00
H1219  H     0.92757   0.61930   0.79497   0.00000  Uiso   1.00
H1220  H     0.57234   0.88080   0.20518   0.00000  Uiso   1.00
H1221  H     0.86923   0.67755   0.70506   0.00000  Uiso   1.00
H1222  H     0.63082   0.82240   0.29487   0.00000  Uiso   1.00
H1223  H     0.82421   0.87107   0.70256   0.00000  Uiso   1.00
H1224  H     0.88076   0.57247   0.79496   0.00000  Uiso   1.00
H1225  H     0.67456   0.62770   0.29899   0.00000  Uiso   1.00
H1226  H     0.63082   0.82233   0.70520   0.00000  Uiso   1.00
H1227  H     0.86918   0.67768   0.29480   0.00000  Uiso   1.00
H1228  H     0.67496   0.62811   0.70159   0.00000  Uiso   1.00
H1229  H     0.82409   0.87095   0.29722   0.00000  Uiso   1.00
H1230  H     0.87093   0.82409   0.29720   0.00000  Uiso   1.00
H1231  H     0.62811   0.67496   0.70159   0.00000  Uiso   1.00
H1232  H     0.82237   0.63086   0.29482   0.00000  Uiso   1.00
H1233  H     0.67764   0.86914   0.70520   0.00000  Uiso   1.00
H1234  H     0.62769   0.67455   0.29900   0.00000  Uiso   1.00
H1235  H     0.57540   0.62227   0.20107   0.00000  Uiso   1.00
H1236  H     0.87106   0.82422   0.70256   0.00000  Uiso   1.00
H1237  H     0.67765   0.86921   0.29484   0.00000  Uiso   1.00
H1238  H     0.82242   0.63073   0.70507   0.00000  Uiso   1.00
H1239  H     0.95022   0.80235   0.37561   0.00000  Uiso   1.00
H1240  H     0.97976   0.86030   0.37328   0.00000  Uiso   1.00
H1241  H     0.51380   0.82572   0.36436   0.00000  Uiso   1.00
H1242  H     0.50978   0.84645   0.41197   0.00000  Uiso   1.00
H1243  H     0.56551   0.69068   0.59466   0.00000  Uiso   1.00
H1244  H     0.52585   0.64084   0.60785   0.00000  Uiso   1.00
H1245  H     0.98960   0.67166   0.62149   0.00000  Uiso   1.00
H1246  H     0.92584   0.87900   0.79735   0.00000  Uiso   1.00
H1247  H     0.52816   0.66518   0.65328   0.00000  Uiso   1.00
H1248  H     0.68812   0.53205   0.37197   0.00000  Uiso   1.00
H1249  H     0.68406   0.59623   0.38066   0.00000  Uiso   1.00
H1250  H     0.73198   0.58529   0.37779   0.00000  Uiso   1.00
H1251  H     0.71085   0.59316   0.42434   0.00000  Uiso   1.00
H1252  H     0.80417   0.93020   0.59565   0.00000  Uiso   1.00
H1253  H     0.85718   0.96696   0.60564   0.00000  Uiso   1.00
H1254  H     0.83426   0.96686   0.65194   0.00000  Uiso   1.00
H1255  H     0.82921   0.50531   0.61978   0.00000  Uiso   1.00
H1256  H     0.52438   0.68548   0.37161   0.00000  Uiso   1.00
H1257  H     0.88081   0.57233   0.20519   0.00000  Uiso   1.00
H1258  H     0.58783   0.67417   0.37968   0.00000  Uiso   1.00
H1259  H     0.58825   0.70161   0.42302   0.00000  Uiso   1.00
H1260  H     0.58203   0.72292   0.37632   0.00000  Uiso   1.00
H1261  H     0.93358   0.80809   0.59624   0.00000  Uiso   1.00
H1262  H     0.97350   0.85901   0.60536   0.00000  Uiso   1.00
H1263  H     0.51024   0.82893   0.61948   0.00000  Uiso   1.00
H1264  H     0.97235   0.83643   0.65185   0.00000  Uiso   1.00
H1265  H     0.80407   0.93073   0.40404   0.00000  Uiso   1.00
H1266  H     0.85702   0.96772   0.39435   0.00000  Uiso   1.00
H1267  H     0.82891   0.50601   0.38032   0.00000  Uiso   1.00
H1268  H     0.61916   0.92770   0.79476   0.00000  Uiso   1.00
H1269  H     0.83410   0.96766   0.34802   0.00000  Uiso   1.00
H1270  H     0.69519   0.56927   0.59528   0.00000  Uiso   1.00
H1271  H     0.64258   0.53254   0.60687   0.00000  Uiso   1.00
H1272  H     0.66629   0.53315   0.65274   0.00000  Uiso   1.00
H1273  H     0.67091   0.99440   0.62085   0.00000  Uiso   1.00
H1274  H     0.67842   0.55152   0.90392   0.00000  Uiso   1.00
H1275  H     0.71323   0.60613   0.89468   0.00000  Uiso   1.00
H1276  H     0.71402   0.58347   0.84823   0.00000  Uiso   1.00
H1277  H     0.75263   0.57971   0.88041   0.00000  Uiso   1.00
H1278  H     0.82030   0.94712   0.09637   0.00000  Uiso   1.00
H1279  H     0.92588   0.87904   0.20275   0.00000  Uiso   1.00
H1280  H     0.78411   0.89322   0.10480   0.00000  Uiso   1.00
H1281  H     0.74534   0.92047   0.11927   0.00000  Uiso   1.00
H1282  H     0.78380   0.91552   0.15147   0.00000  Uiso   1.00
H1283  H     0.94447   0.79513   0.87491   0.00000  Uiso   1.00
H1284  H     0.88838   0.76215   0.87353   0.00000  Uiso   1.00
H1285  H     0.90422   0.73376   0.91272   0.00000  Uiso   1.00
H1286  H     0.92505   0.73024   0.86515   0.00000  Uiso   1.00
H1287  H     0.56526   0.72699   0.12863   0.00000  Uiso   1.00
H1288  H     0.57860   0.66416   0.11942   0.00000  Uiso   1.00
H1289  H     0.55188   0.66376   0.07557   0.00000  Uiso   1.00
H1290  H     0.57509   0.62195   0.79851   0.00000  Uiso   1.00
H1291  H     0.52964   0.66845   0.12210   0.00000  Uiso   1.00
H1292  H     0.82169   0.94842   0.90435   0.00000  Uiso   1.00
H1293  H     0.78687   0.89402   0.89453   0.00000  Uiso   1.00
H1294  H     0.78617   0.91685   0.84819   0.00000  Uiso   1.00
H1295  H     0.74753   0.92056   0.88031   0.00000  Uiso   1.00
H1296  H     0.71474   0.57889   0.10086   0.00000  Uiso   1.00
H1297  H     0.65237   0.56057   0.09232   0.00000  Uiso   1.00
H1298  H     0.66340   0.54909   0.14169   0.00000  Uiso   1.00
H1299  H     0.66401   0.51412   0.10494   0.00000  Uiso   1.00
H1300  H     0.56614   0.73099   0.87136   0.00000  Uiso   1.00
H1301  H     0.62193   0.57508   0.79850   0.00000  Uiso   1.00
H1302  H     0.58237   0.66861   0.87930   0.00000  Uiso   1.00
H1303  H     0.53334   0.67079   0.87585   0.00000  Uiso   1.00
H1304  H     0.55504   0.66603   0.92260   0.00000  Uiso   1.00
H1305  H     0.93713   0.81128   0.09639   0.00000  Uiso   1.00
H1306  H     0.88957   0.76754   0.10566   0.00000  Uiso   1.00
H1307  H     0.91219   0.77032   0.15207   0.00000  Uiso   1.00
H1308  H     0.92248   0.73321   0.11951   0.00000  Uiso   1.00
N1309  N     0.96828   0.80907   0.39735   0.00000  Uiso   1.00
N1310  N     0.79327   0.94987   0.10402   0.00000  Uiso   1.00
N1311  N     0.93884   0.77731   0.89721   0.00000  Uiso   1.00
N1312  N     0.55791   0.71515   0.10264   0.00000  Uiso   1.00
N1313  N     0.79476   0.95086   0.89616   0.00000  Uiso   1.00
N1314  N     0.70817   0.55173   0.10408   0.00000  Uiso   1.00
N1315  N     0.55925   0.71829   0.89701   0.00000  Uiso   1.00
N1316  N     0.94419   0.78511   0.10432   0.00000  Uiso   1.00
N1317  N     0.53942   0.69650   0.60393   0.00000  Uiso   1.00
N1318  N     0.69762   0.54294   0.39764   0.00000  Uiso   1.00
N1319  N     0.80068   0.95700   0.60392   0.00000  Uiso   1.00
N1320  N     0.53650   0.69351   0.39722   0.00000  Uiso   1.00
N1321  N     0.96025   0.80318   0.60416   0.00000  Uiso   1.00
N1322  N     0.80054   0.95756   0.39597   0.00000  Uiso   1.00
N1323  N     0.69902   0.54265   0.60401   0.00000  Uiso   1.00
N1324  N     0.70544   0.54928   0.89600   0.00000  Uiso   1.00
O1325  O     0.75000   0.50000   0.25000   0.00000  Uiso   1.00
O1326  O     0.75000   0.96963   0.66245   0.00000  Uiso   1.00
O1327  O     0.96963   0.75000   0.33755   0.00000  Uiso   1.00
O1328  O     0.53036   0.75000   0.66245   0.00000  Uiso   1.00
O1329  O     0.50000   0.71963   0.83755   0.00000  Uiso   1.00
O1330  O     0.50000   0.78036   0.16245   0.00000  Uiso   1.00
O1331  O     0.78036   0.50000   0.83755   0.00000  Uiso   1.00
O1332  O     0.71963   0.50000   0.16245   0.00000  Uiso   1.00
O1333  O     0.50000   0.78036   0.83755   0.00000  Uiso   1.00
O1334  O     0.50000   0.71963   0.16245   0.00000  Uiso   1.00
O1335  O     0.71963   0.50000   0.83755   0.00000  Uiso   1.00
O1336  O     0.75000   0.50000   0.75000   0.00000  Uiso   1.00
O1337  O     0.78036   0.50000   0.16245   0.00000  Uiso   1.00
O1338  O     0.70724   0.57307   0.27302   0.00000  Uiso   1.00
O1339  O     0.79275   0.92692   0.72698   0.00000  Uiso   1.00
O1340  O     0.92692   0.70724   0.27302   0.00000  Uiso   1.00
O1341  O     0.57307   0.79275   0.72698   0.00000  Uiso   1.00
O1342  O     0.79275   0.92692   0.27302   0.00000  Uiso   1.00
O1343  O     0.70724   0.57307   0.72698   0.00000  Uiso   1.00
O1344  O     0.57307   0.79275   0.27302   0.00000  Uiso   1.00
O1345  O     0.92692   0.70724   0.72698   0.00000  Uiso   1.00
O1346  O     0.70724   0.92692   0.72698   0.00000  Uiso   1.00
O1347  O     0.50000   0.75000   0.25000   0.00000  Uiso   1.00
O1348  O     0.79275   0.57307   0.27302   0.00000  Uiso   1.00
O1349  O     0.92692   0.79275   0.72698   0.00000  Uiso   1.00
O1350  O     0.57307   0.70724   0.27302   0.00000  Uiso   1.00
O1351  O     0.79275   0.57307   0.72698   0.00000  Uiso   1.00
O1352  O     0.70724   0.92692   0.27302   0.00000  Uiso   1.00
O1353  O     0.57307   0.70724   0.72698   0.00000  Uiso   1.00
O1354  O     0.92692   0.79275   0.27302   0.00000  Uiso   1.00
O1355  O     0.95724   0.82307   0.77302   0.00000  Uiso   1.00
O1356  O     0.54275   0.67692   0.22698   0.00000  Uiso   1.00
O1357  O     0.67692   0.95724   0.77302   0.00000  Uiso   1.00
O1358  O     0.50000   0.75000   0.75000   0.00000  Uiso   1.00
O1359  O     0.82307   0.54275   0.22698   0.00000  Uiso   1.00
O1360  O     0.54275   0.67692   0.77302   0.00000  Uiso   1.00
O1361  O     0.95724   0.82307   0.22698   0.00000  Uiso   1.00
O1362  O     0.82307   0.54275   0.77302   0.00000  Uiso   1.00
O1363  O     0.67692   0.95724   0.22698   0.00000  Uiso   1.00
O1364  O     0.95724   0.67692   0.22698   0.00000  Uiso   1.00
O1365  O     0.54275   0.82307   0.77302   0.00000  Uiso   1.00
O1366  O     0.67692   0.54275   0.22698   0.00000  Uiso   1.00
O1367  O     0.82307   0.95724   0.77302   0.00000  Uiso   1.00
O1368  O     0.54275   0.82307   0.22698   0.00000  Uiso   1.00
O1369  O     0.75000   0.96963   0.33755   0.00000  Uiso   1.00
O1370  O     0.95724   0.67692   0.77302   0.00000  Uiso   1.00
O1371  O     0.82307   0.95724   0.22698   0.00000  Uiso   1.00
O1372  O     0.67692   0.54275   0.77302   0.00000  Uiso   1.00
O1373  O     0.75000   0.53036   0.66245   0.00000  Uiso   1.00
O1374  O     0.53036   0.75000   0.33755   0.00000  Uiso   1.00
O1375  O     0.96963   0.75000   0.66245   0.00000  Uiso   1.00
O1376  O     0.75000   0.53036   0.33755   0.00000  Uiso   1.00
Zn1377 Zn    0.70659   0.50000   0.21735   0.00000  Uiso   1.00
Zn1378 Zn    0.54340   0.75000   0.28265   0.00000  Uiso   1.00
Zn1379 Zn    0.75000   0.95659   0.71735   0.00000  Uiso   1.00
Zn1380 Zn    0.75000   0.54340   0.28265   0.00000  Uiso   1.00
Zn1381 Zn    0.54340   0.75000   0.71735   0.00000  Uiso   1.00
Zn1382 Zn    0.95659   0.75000   0.28265   0.00000  Uiso   1.00
Zn1383 Zn    0.75000   0.54340   0.71735   0.00000  Uiso   1.00
Zn1384 Zn    0.75000   0.95659   0.28265   0.00000  Uiso   1.00
Zn1385 Zn    0.79340   0.50000   0.78265   0.00000  Uiso   1.00
Zn1386 Zn    0.50000   0.70659   0.21735   0.00000  Uiso   1.00
Zn1387 Zn    0.50000   0.79340   0.78265   0.00000  Uiso   1.00
Zn1388 Zn    0.79340   0.50000   0.21735   0.00000  Uiso   1.00
Zn1389 Zn    0.70659   0.50000   0.78265   0.00000  Uiso   1.00
Zn1390 Zn    0.50000   0.79340   0.21735   0.00000  Uiso   1.00
Zn1391 Zn    0.50000   0.70659   0.78265   0.00000  Uiso   1.00
Zn1392 Zn    0.95659   0.75000   0.71735   0.00000  Uiso   1.00
loop_
_geom_bond_atom_site_label_1
_geom_bond_atom_site_label_2
_geom_bond_distance
_geom_bond_site_symmetry_2
_ccdc_geom_bond_type
C1     C4      1.409   .     A
C1     N265    1.428   .     S
C1     C410    1.408   .     S
C2     C14     1.411   .     A
C2     C764    1.403   .     A
C2     N266    1.427   .     S
C3     C131    1.411   .     A
C3     C74     1.409   .     A
C3     C734    1.422   1_545 S
C4     C75     1.409   .     A
C4     C34     1.419   .     A
C5     C65     1.411   .     A
C5     C77     1.409   .     A
C5     C384    1.422   1_455 S
C6     C78     1.408   .     A
C6     C76     1.409   .     A
C6     C733    1.419   1_545 S
C7     C79     1.409   .     A
C7     C87     1.411   .     A
C7     C38     1.421   .     A
C8     C35     1.411   .     A
C8     C80     1.409   .     A
C8     C735    1.422   .     S
C9     C46     1.412   .     A
C9     C40     1.422   .     A
C9     C81     1.409   .     A
C10    C41     1.420   .     A
C10    C82     1.409   .     A
C10    C57     1.411   .     A
C11    C61     1.413   .     A
C11    C83     1.410   .     A
C11    C390    1.421   .     S
C12    C84     1.408   .     A
C12    C39     1.421   .     A
C12    C142    1.411   .     A
C13    N267    1.428   .     S
C13    C15     1.410   .     A
C13    C417    1.408   .     S
C14    C85     1.409   .     A
C14    C736    1.422   .     S
C15    C86     1.409   .     A
C15    C389    1.418   .     S
C16    C88     1.409   .     A
C16    C24     1.410   .     A
C16    C42     1.420   .     A
C17    C104    1.456   .     S
C17    C132    1.402   .     A
C17    C134    1.402   .     A
C18    C133    1.402   .     A
C18    C130    1.402   .     A
C18    C105    1.456   .     S
C19    C129    1.402   .     A
C19    C136    1.402   .     A
C19    C97     1.455   .     S
C20    C99     1.455   .     S
C20    C128    1.402   .     A
C20    C135    1.402   .     A
C21    C138    1.402   .     A
C21    C127    1.402   .     A
C21    C100    1.456   .     S
C22    C137    1.402   .     A
C22    C101    1.456   .     S
C22    C126    1.402   .     A
C23    C140    1.402   .     A
C23    C102    1.455   .     S
C23    C125    1.402   .     A
C24    C70     1.407   .     A
C24    N268    1.429   .     S
C25    C139    1.402   .     A
C25    C103    1.455   .     S
C25    C124    1.402   .     A
C26    C123    1.402   .     A
C26    C143    1.402   .     A
C26    C113    1.455   .     S
C27    C141    1.402   .     A
C27    C122    1.402   .     A
C27    C114    1.455   .     S
C28    C106    1.456   .     S
C28    C145    1.402   .     A
C28    C121    1.402   .     A
C29    C119    1.402   .     A
C29    C144    1.402   .     A
C29    C107    1.456   .     S
C30    C108    1.455   .     S
C30    C147    1.402   .     A
C30    C118    1.402   .     A
C31    C110    1.455   .     S
C31    C117    1.402   .     A
C31    C146    1.402   .     A
C32    C116    1.402   .     A
C32    C111    1.456   .     S
C32    C149    1.402   .     A
C33    C115    1.402   .     A
C33    C148    1.402   .     A
C33    C112    1.456   .     S
C34    C36     1.419   .     A
C34    C498    1.419   .     S
C35    N269    1.428   .     S
C35    C763    1.404   .     S
C36    C151    1.422   .     A
C36    C353    1.422   .     S
C37    C38     1.419   .     A
C37    C152    1.420   .     A
C37    C702    1.419   .     S
C38    C699    1.422   .     S
C39    C704    1.422   1_545 S
C39    C40     1.419   1_556 S
C40    C710    1.422   1_545 S
C40    C39     1.419   1_554 S
C41    C363    1.418   1_455 S
C41    C42     1.419   1_556 S
C42    C359    1.421   1_455 S
C42    C41     1.419   1_554 S
C43    N265    1.447   .     S
C43    H196    1.110   .     S
C43    H545    1.111   .     S
C43    H546    1.111   .     S
C44    H203    1.110   .     S
C44    H200    1.110   .     S
C44    N273    1.449   .     S
C44    H549    1.112   1_455 S
C45    N274    1.449   .     S
C45    H206    1.110   .     S
C45    H205    1.110   .     S
C45    H207    1.111   .     S
C46    N270    1.427   .     S
C46    C68     1.403   .     S
C47    H209    1.110   .     S
C47    N275    1.449   .     S
C47    H210    1.110   .     S
C47    H907    1.112   .     S
C48    H215    1.110   .     S
C48    N276    1.449   .     S
C48    H214    1.110   .     S
C48    H216    1.109   .     S
C49    N277    1.449   .     S
C49    H218    1.110   .     S
C49    H220    1.110   .     S
C49    H567    1.112   .     S
C50    H222    1.110   .     S
C50    N278    1.449   .     S
C50    H225    1.110   .     S
C50    H919    1.112   .     S
C51    H228    1.110   .     S
C51    H227    1.110   .     S
C51    N279    1.449   .     S
C51    H925    1.112   1_545 S
C52    H232    1.110   .     S
C52    H231    1.110   .     S
C52    H233    1.112   .     S
C52    N280    1.449   .     S
C53    H237    1.112   .     S
C53    H236    1.110   .     S
C53    N266    1.449   .     S
C53    H238    1.110   .     S
C54    H242    1.111   .     S
C54    N267    1.447   .     S
C54    H241    1.111   .     S
C54    H240    1.110   .     S
C55    H245    1.111   .     S
C55    H244    1.110   .     S
C55    N268    1.448   .     S
C55    H247    1.110   .     S
C56    H249    1.110   .     S
C56    H251    1.112   .     S
C56    H250    1.110   .     S
C56    N269    1.449   .     S
C57    N271    1.430   .     S
C57    C69     1.409   .     A
C58    N270    1.450   .     S
C58    H254    1.110   .     S
C58    H255    1.112   .     S
C58    H253    1.109   .     S
C59    H260    1.111   .     S
C59    H258    1.110   .     S
C59    H259    1.109   .     S
C59    N271    1.449   .     S
C60    H263    1.110   .     S
C60    H262    1.110   .     S
C60    H264    1.112   .     S
C60    N272    1.449   .     S
C61    N272    1.427   .     S
C61    C418    1.404   .     S
C62    C91     1.458   .     S
C62    C98     1.410   .     A
C62    C349    1.408   1_455 S
C63    C109    1.403   .     A
C63    C92     1.457   .     S
C63    C413    1.403   .     S
C64    C89     1.459   .     S
C64    C76     1.409   .     A
C64    C816    1.405   1_545 S
C65    N273    1.428   .     S
C65    C411    1.403   1_455 S
C66    C90     1.457   .     S
C66    C87     1.404   .     A
C66    C827    1.403   .     S
C67    C142    1.403   .     A
C67    C731    1.404   1_545 S
C67    C791    1.458   1_545 S
C68    C698    1.403   1_545 A
C68    C96     1.459   .     S
C69    C361    1.408   1_455 S
C69    C441    1.457   1_455 S
C70    C94     1.457   .     S
C70    C409    1.404   1_455 S
C71    C150    1.409   .     A
C71    C77     1.385   .     A
C71    F153    1.358   .     S
C72    F161    1.356   .     S
C72    C151    1.410   .     A
C72    C75     1.385   .     A
C73    C79     1.385   .     A
C73    C152    1.409   .     A
C73    F162    1.357   .     S
C74    C78     1.384   .     A
C74    F163    1.357   .     S
C75    F164    1.358   .     S
C76    N274    1.430   .     S
C77    F165    1.357   .     S
C78    F166    1.358   .     S
C79    F167    1.357   .     S
C80    F168    1.357   .     S
C80    C85     1.384   1_556 S
C81    F154    1.356   .     S
C81    C84     1.384   1_554 S
C82    F155    1.358   .     S
C82    C88     1.385   1_556 S
C83    F156    1.356   .     S
C83    C86     1.386   1_554 S
C84    F157    1.357   .     S
C84    C81     1.384   1_556 S
C85    F158    1.357   .     S
C85    C80     1.384   1_554 S
C86    F159    1.358   .     S
C86    C83     1.386   1_556 S
C87    N275    1.427   .     S
C88    F160    1.358   .     S
C88    C82     1.385   1_554 S
C89    O332    1.277   .     A
C89    O1021   1.280   1_545 S
C90    O282    1.277   .     A
C90    O1025   1.278   .     S
C91    O330    1.277   .     A
C91    O631    1.279   1_455 S
C92    O331    1.277   .     A
C92    O632    1.278   .     S
C93    O637    1.278   .     A
C93    C417    1.457   .     S
C93    O633    1.277   .     S
C94    O290    1.277   .     A
C94    O286    1.279   .     A
C95    C763    1.458   .     S
C95    O983    1.278   .     S
C95    O987    1.278   .     S
C96    O288    1.277   .     S
C96    O293    1.279   .     S
C97    O294    1.282   .     A
C97    O322    1.282   .     A
C98    N276    1.430   .     S
C98    C150    1.411   .     A
C99    O323    1.282   .     A
C99    O295    1.282   .     A
C100   O296    1.282   .     A
C100   O320    1.282   .     A
C101   O297    1.282   .     A
C101   O321    1.282   .     A
C102   O327    1.282   .     A
C102   O298    1.282   .     A
C103   O299    1.282   .     A
C103   O328    1.282   .     A
C104   O300    1.282   .     A
C104   O324    1.282   .     A
C105   O301    1.282   .     A
C105   O326    1.282   .     A
C106   O313    1.282   .     A
C106   O302    1.282   .     A
C107   O315    1.282   .     A
C107   O304    1.282   .     A
C108   O311    1.282   .     A
C108   O305    1.282   .     A
C109   C151    1.412   .     A
C109   N277    1.427   .     S
C110   O312    1.282   .     A
C110   O306    1.282   .     A
C111   O307    1.282   .     A
C111   O318    1.282   .     A
C112   O319    1.282   .     A
C112   O308    1.282   .     A
C113   O309    1.282   .     A
C113   O316    1.282   .     A
C114   O317    1.282   .     A
C114   O310    1.282   .     A
C115   C132    1.386   .     A
C115   H169    1.083   .     S
C116   H180    1.083   .     S
C116   C130    1.386   .     A
C117   C129    1.386   .     A
C117   H191    1.083   .     S
C118   H202    1.083   .     S
C118   C128    1.386   .     A
C119   C127    1.386   .     A
C119   H213    1.083   .     S
C120   C152    1.412   .     A
C120   N278    1.428   .     S
C120   C760    1.405   .     S
C121   H224    1.083   .     S
C121   C126    1.386   .     A
C122   C125    1.386   .     A
C122   H235    1.083   .     S
C123   C124    1.386   .     A
C123   H246    1.083   .     S
C124   H257    1.083   .     S
C125   H170    1.083   .     S
C126   H171    1.083   .     S
C127   H172    1.083   .     S
C128   H173    1.083   .     S
C129   H174    1.083   .     S
C130   H175    1.083   .     S
C131   N279    1.428   .     S
C131   C762    1.403   1_545 S
C132   H176    1.083   .     S
C133   H177    1.083   .     S
C133   C149    1.386   .     A
C134   H178    1.083   .     S
C134   C148    1.386   .     A
C135   C147    1.386   .     A
C135   H179    1.083   .     S
C136   H181    1.083   .     S
C136   C146    1.386   .     A
C137   C145    1.386   .     A
C137   H182    1.083   .     S
C138   C144    1.386   .     A
C138   H183    1.083   .     S
C139   C143    1.386   .     A
C139   H184    1.083   .     S
C140   H185    1.083   .     S
C140   C141    1.386   .     A
C141   H186    1.083   .     S
C142   N280    1.427   .     S
C143   H187    1.083   .     S
C144   H188    1.083   .     S
C145   H189    1.083   .     S
C146   H190    1.083   .     S
C147   H192    1.083   .     S
C148   H193    1.083   .     S
C149   H194    1.083   .     S
C150   C382    1.419   1_455 S
H195   N265    1.030   .     S
H197   C391    1.111   1_455 S
H198   C391    1.111   1_455 S
H199   N273    1.031   .     S
H201   C392    1.112   .     S
H204   N274    1.031   .     S
H208   N275    1.031   .     S
H211   C743    1.112   1_545 S
H212   N276    1.031   .     S
H217   N277    1.031   .     S
H219   C397    1.112   1_455 S
H221   N278    1.031   .     S
H223   C746    1.112   1_545 S
H226   N279    1.031   .     S
H229   C747    1.112   .     S
H230   N280    1.031   .     S
H234   N266    1.031   .     S
H239   N267    1.030   .     S
H243   N268    1.031   .     S
H248   N269    1.031   .     S
H252   N270    1.031   .     S
H256   N271    1.031   .     S
H261   N272    1.031   .     S
O281   Zn336   1.949   .     S
O281   Zn333   1.949   .     S
O281   Zn344   1.949   .     S
O281   Zn1036  1.949   1_545 S
O282   Zn335   1.952   .     S
O283   Zn338   1.951   .     S
O283   C439    1.279   .     S
O284   Zn337   1.951   .     S
O284   C440    1.278   1_455 S
O285   Zn347   1.951   .     S
O285   C441    1.277   1_455 S
O286   Zn346   1.951   .     S
O287   Zn341   1.952   .     S
O287   C791    1.278   1_545 S
O288   Zn333   1.952   .     S
O289   C441    1.278   1_455 A
O289   Zn343   1.952   .     S
O290   Zn342   1.952   .     S
O291   Zn345   1.951   .     S
O291   C791    1.278   1_545 S
O292   Zn339   1.949   .     S
O292   Zn341   1.949   .     S
O292   Zn345   1.949   .     S
O292   Zn1031  1.949   1_545 S
O293   Zn344   1.951   .     S
O294   Zn336   1.936   .     S
O295   Zn335   1.936   .     S
O296   Zn338   1.937   .     S
O297   Zn337   1.937   .     S
O298   Zn340   1.936   .     S
O299   Zn339   1.936   .     S
O300   Zn334   1.937   .     S
O301   Zn348   1.937   .     S
O302   Zn335   1.937   .     S
O303   Zn342   1.949   .     S
O303   Zn334   1.949   .     S
O303   Zn686   1.949   1_455 S
O303   Zn346   1.949   .     S
O304   Zn336   1.937   .     S
O305   Zn348   1.936   .     S
O306   Zn334   1.936   .     S
O307   Zn339   1.937   .     S
O308   Zn340   1.937   .     S
O309   Zn337   1.936   .     S
O310   Zn338   1.936   .     S
O311   Zn691   1.936   .     S
O312   Zn342   1.936   .     S
O313   Zn1041  1.937   .     S
O314   Zn696   1.949   1_455 S
O314   Zn337   1.949   .     S
O314   Zn343   1.949   .     S
O314   Zn347   1.949   .     S
O315   Zn344   1.937   .     S
O316   Zn347   1.936   .     S
O317   Zn694   1.936   .     S
O318   Zn341   1.937   .     S
O319   Zn1029  1.937   .     S
O320   Zn690   1.937   .     S
O321   Zn343   1.937   .     S
O322   Zn333   1.936   .     S
O323   Zn1037  1.936   .     S
O324   Zn346   1.937   .     S
O325   Zn340   1.951   .     S
O325   C785    1.280   .     S
O326   Zn695   1.937   .     S
O327   Zn1040  1.936   .     S
O328   Zn345   1.936   .     S
O329   Zn339   1.951   .     S
O329   C786    1.278   1_545 S
O330   Zn334   1.952   .     S
O331   Zn348   1.952   .     S
O332   Zn336   1.952   .     S
Zn333  O1015   1.937   1_545 S
Zn335  O988    1.949   .     S
Zn338  O651    1.949   .     S
Zn340  O977    1.949   .     S
Zn341  O1019   1.936   1_545 S
Zn342  O668    1.937   1_455 S
Zn343  O659    1.936   1_455 S
Zn344  O1023   1.936   1_545 S
Zn345  O1009   1.937   1_545 S
Zn346  O665    1.936   1_455 S
Zn347  O674    1.937   1_455 S
Zn348  O662    1.949   .     S
C349   C352    1.409   .     A
C349   N613    1.428   .     S
C349   C62     1.408   1_655 S
C350   C362    1.411   .     A
C350   C1112   1.403   .     A
C350   N614    1.427   .     S
C351   C479    1.411   .     A
C351   C422    1.409   .     A
C351   C1082   1.422   1_545 S
C352   C423    1.409   .     A
C352   C382    1.419   .     A
C353   C413    1.411   .     A
C353   C425    1.409   .     A
C354   C426    1.408   .     A
C354   C424    1.409   .     A
C354   C1081   1.419   1_545 S
C355   C427    1.409   .     A
C355   C435    1.411   .     A
C355   C386    1.421   .     A
C356   C383    1.411   .     A
C356   C428    1.409   .     A
C356   C1083   1.422   .     S
C357   C394    1.412   .     A
C357   C388    1.422   .     A
C357   C429    1.409   .     A
C358   C389    1.420   .     A
C358   C430    1.409   .     A
C358   C405    1.411   .     A
C359   C409    1.413   .     A
C359   C431    1.410   .     A
C359   C42     1.421   1_655 S
C360   C432    1.408   .     A
C360   C387    1.421   .     A
C360   C490    1.411   .     A
C361   N615    1.428   .     S
C361   C363    1.410   .     A
C361   C69     1.408   1_655 S
C362   C433    1.409   .     A
C362   C1084   1.422   .     S
C363   C434    1.409   .     A
C363   C41     1.418   1_655 S
C364   C436    1.409   .     A
C364   C372    1.410   .     A
C364   C390    1.420   .     A
C365   C452    1.456   .     S
C365   C480    1.402   .     A
C365   C482    1.402   .     A
C366   C481    1.402   .     A
C366   C478    1.402   .     A
C366   C453    1.456   .     S
C367   C477    1.402   .     A
C367   C484    1.402   .     A
C367   C445    1.455   .     S
C368   C447    1.455   .     S
C368   C476    1.402   .     A
C368   C483    1.402   .     A
C369   C486    1.402   .     A
C369   C475    1.402   .     A
C369   C448    1.456   .     S
C370   C485    1.402   .     A
C370   C449    1.456   .     S
C370   C474    1.402   .     A
C371   C488    1.402   .     A
C371   C450    1.455   .     S
C371   C473    1.402   .     A
C372   C418    1.407   .     A
C372   N616    1.429   .     S
C373   C487    1.402   .     A
C373   C451    1.455   .     S
C373   C472    1.402   .     A
C374   C471    1.402   .     A
C374   C491    1.402   .     A
C374   C461    1.455   .     S
C375   C489    1.402   .     A
C375   C470    1.402   .     A
C375   C462    1.455   .     S
C376   C454    1.456   .     S
C376   C493    1.402   .     A
C376   C469    1.402   .     A
C377   C467    1.402   .     A
C377   C492    1.402   .     A
C377   C455    1.456   .     S
C378   C456    1.455   .     S
C378   C495    1.402   .     A
C378   C466    1.402   .     A
C379   C458    1.455   .     S
C379   C465    1.402   .     A
C379   C494    1.402   .     A
C380   C464    1.402   .     A
C380   C459    1.456   .     S
C380   C497    1.402   .     A
C381   C463    1.402   .     A
C381   C496    1.402   .     A
C381   C460    1.456   .     S
C382   C384    1.419   .     A
C382   C150    1.419   1_655 S
C383   N617    1.428   .     S
C383   C1111   1.404   .     S
C384   C499    1.422   .     A
C384   C5      1.422   1_655 S
C385   C386    1.419   .     A
C385   C500    1.420   .     A
C385   C1050   1.419   .     S
C386   C1047   1.422   .     S
C387   C1052   1.422   1_545 S
C387   C388    1.419   1_556 S
C388   C1058   1.422   1_545 S
C388   C387    1.419   1_554 S
C389   C390    1.419   1_556 S
C390   C389    1.419   1_554 S
C391   N613    1.447   .     S
C391   H544    1.110   .     S
C391   H197    1.111   1_655 S
C391   H198    1.111   1_655 S
C392   H551    1.110   .     S
C392   H548    1.110   .     S
C392   N621    1.449   .     S
C393   N622    1.449   .     S
C393   H554    1.110   .     S
C393   H553    1.110   .     S
C393   H555    1.111   .     S
C394   N618    1.427   .     S
C394   C416    1.403   .     S
C395   H557    1.110   .     S
C395   N623    1.449   .     S
C395   H558    1.110   .     S
C395   H1255   1.112   .     S
C396   H563    1.110   .     S
C396   N624    1.449   .     S
C396   H562    1.110   .     S
C396   H564    1.109   .     S
C397   N625    1.449   .     S
C397   H566    1.110   .     S
C397   H568    1.110   .     S
C397   H219    1.112   1_655 S
C398   H570    1.110   .     S
C398   N626    1.449   .     S
C398   H573    1.110   .     S
C398   H1267   1.112   .     S
C399   H576    1.110   .     S
C399   H575    1.110   .     S
C399   N627    1.449   .     S
C399   H1273   1.112   1_545 S
C400   H580    1.110   .     S
C400   H579    1.110   .     S
C400   H581    1.112   .     S
C400   N628    1.449   .     S
C401   H585    1.112   .     S
C401   H584    1.110   .     S
C401   N614    1.449   .     S
C401   H586    1.110   .     S
C402   H590    1.111   .     S
C402   N615    1.447   .     S
C402   H589    1.111   .     S
C402   H588    1.110   .     S
C403   H593    1.111   .     S
C403   H592    1.110   .     S
C403   N616    1.448   .     S
C403   H595    1.110   .     S
C404   H597    1.110   .     S
C404   H599    1.112   .     S
C404   H598    1.110   .     S
C404   N617    1.449   .     S
C405   N619    1.430   .     S
C405   C417    1.409   .     A
C406   N618    1.450   .     S
C406   H602    1.110   .     S
C406   H603    1.112   .     S
C406   H601    1.109   .     S
C407   H608    1.111   .     S
C407   H606    1.110   .     S
C407   H607    1.109   .     S
C407   N619    1.449   .     S
C408   H611    1.110   .     S
C408   H610    1.110   .     S
C408   H612    1.112   .     S
C408   N620    1.449   .     S
C409   N620    1.427   .     S
C409   C70     1.404   1_655 S
C410   C439    1.458   .     S
C410   C446    1.410   .     A
C411   C457    1.403   .     A
C411   C440    1.457   .     S
C411   C65     1.403   1_655 S
C412   C437    1.459   .     S
C412   C424    1.409   .     A
C412   C1164   1.405   1_545 S
C413   N621    1.428   .     S
C414   C438    1.457   .     S
C414   C435    1.404   .     A
C414   C1175   1.403   .     S
C415   C490    1.403   .     A
C415   C1079   1.404   1_545 S
C415   C1139   1.458   1_545 S
C416   C1046   1.403   1_545 A
C416   C444    1.459   .     S
C418   C442    1.457   .     S
C419   C498    1.409   .     A
C419   C425    1.385   .     A
C419   F501    1.358   .     S
C420   F509    1.356   .     S
C420   C499    1.410   .     A
C420   C423    1.385   .     A
C421   C427    1.385   .     A
C421   C500    1.409   .     A
C421   F510    1.357   .     S
C422   C426    1.384   .     A
C422   F511    1.357   .     S
C423   F512    1.358   .     S
C424   N622    1.430   .     S
C425   F513    1.357   .     S
C426   F514    1.358   .     S
C427   F515    1.357   .     S
C428   F516    1.357   .     S
C428   C433    1.384   1_556 S
C429   F502    1.356   .     S
C429   C432    1.384   1_554 S
C430   F503    1.358   .     S
C430   C436    1.385   1_556 S
C431   F504    1.356   .     S
C431   C434    1.386   1_554 S
C432   F505    1.357   .     S
C432   C429    1.384   1_556 S
C433   F506    1.357   .     S
C433   C428    1.384   1_554 S
C434   F507    1.358   .     S
C434   C431    1.386   1_556 S
C435   N623    1.427   .     S
C436   F508    1.358   .     S
C436   C430    1.385   1_554 S
C437   O680    1.277   .     A
C437   O1369   1.280   1_545 S
C438   O630    1.277   .     A
C438   O1373   1.278   .     S
C439   O678    1.277   .     A
C440   O679    1.277   .     A
C440   O284    1.278   1_655 S
C441   O289    1.278   1_655 A
C441   C69     1.457   1_655 S
C441   O285    1.277   1_655 S
C442   O638    1.277   .     A
C442   O634    1.279   .     A
C443   C1111   1.458   .     S
C443   O1331   1.278   .     S
C443   O1335   1.278   .     S
C444   O636    1.277   .     S
C444   O641    1.279   .     S
C445   O642    1.282   .     A
C445   O670    1.282   .     A
C446   N624    1.430   .     S
C446   C498    1.411   .     A
C447   O671    1.282   .     A
C447   O643    1.282   .     A
C448   O644    1.282   .     A
C448   O668    1.282   .     A
C449   O645    1.282   .     A
C449   O669    1.282   .     A
C450   O675    1.282   .     A
C450   O646    1.282   .     A
C451   O647    1.282   .     A
C451   O676    1.282   .     A
C452   O648    1.282   .     A
C452   O672    1.282   .     A
C453   O649    1.282   .     A
C453   O674    1.282   .     A
C454   O661    1.282   .     A
C454   O650    1.282   .     A
C455   O663    1.282   .     A
C455   O652    1.282   .     A
C456   O659    1.282   .     A
C456   O653    1.282   .     A
C457   C499    1.412   .     A
C457   N625    1.427   .     S
C458   O660    1.282   .     A
C458   O654    1.282   .     A
C459   O655    1.282   .     A
C459   O666    1.282   .     A
C460   O667    1.282   .     A
C460   O656    1.282   .     A
C461   O657    1.282   .     A
C461   O664    1.282   .     A
C462   O665    1.282   .     A
C462   O658    1.282   .     A
C463   C480    1.386   .     A
C463   H517    1.083   .     S
C464   H528    1.083   .     S
C464   C478    1.386   .     A
C465   C477    1.386   .     A
C465   H539    1.083   .     S
C466   H550    1.083   .     S
C466   C476    1.386   .     A
C467   C475    1.386   .     A
C467   H561    1.083   .     S
C468   C500    1.412   .     A
C468   N626    1.428   .     S
C468   C1108   1.405   .     S
C469   H572    1.083   .     S
C469   C474    1.386   .     A
C470   C473    1.386   .     A
C470   H583    1.083   .     S
C471   C472    1.386   .     A
C471   H594    1.083   .     S
C472   H605    1.083   .     S
C473   H518    1.083   .     S
C474   H519    1.083   .     S
C475   H520    1.083   .     S
C476   H521    1.083   .     S
C477   H522    1.083   .     S
C478   H523    1.083   .     S
C479   N627    1.428   .     S
C479   C1110   1.403   1_545 S
C480   H524    1.083   .     S
C481   H525    1.083   .     S
C481   C497    1.386   .     A
C482   H526    1.083   .     S
C482   C496    1.386   .     A
C483   C495    1.386   .     A
C483   H527    1.083   .     S
C484   H529    1.083   .     S
C484   C494    1.386   .     A
C485   C493    1.386   .     A
C485   H530    1.083   .     S
C486   C492    1.386   .     A
C486   H531    1.083   .     S
C487   C491    1.386   .     A
C487   H532    1.083   .     S
C488   H533    1.083   .     S
C488   C489    1.386   .     A
C489   H534    1.083   .     S
C490   N628    1.427   .     S
C491   H535    1.083   .     S
C492   H536    1.083   .     S
C493   H537    1.083   .     S
C494   H538    1.083   .     S
C495   H540    1.083   .     S
C496   H541    1.083   .     S
C497   H542    1.083   .     S
H543   N613    1.030   .     S
H547   N621    1.031   .     S
H549   C44     1.112   1_655 S
H552   N622    1.031   .     S
H556   N623    1.031   .     S
H559   C1091   1.112   1_545 S
H560   N624    1.031   .     S
H565   N625    1.031   .     S
H569   N626    1.031   .     S
H571   C1094   1.112   1_545 S
H574   N627    1.031   .     S
H577   C1095   1.112   .     S
H578   N628    1.031   .     S
H582   N614    1.031   .     S
H587   N615    1.030   .     S
H591   N616    1.031   .     S
H596   N617    1.031   .     S
H600   N618    1.031   .     S
H604   N619    1.031   .     S
H609   N620    1.031   .     S
O629   Zn684   1.949   .     S
O629   Zn681   1.949   .     S
O629   Zn692   1.949   .     S
O629   Zn1384  1.949   1_545 S
O630   Zn683   1.952   .     S
O631   Zn686   1.951   .     S
O631   C91     1.279   1_655 S
O632   Zn685   1.951   .     S
O633   Zn695   1.951   .     S
O634   Zn694   1.951   .     S
O635   Zn689   1.952   .     S
O635   C1139   1.278   1_545 S
O636   Zn681   1.952   .     S
O637   Zn691   1.952   .     S
O638   Zn690   1.952   .     S
O639   Zn693   1.951   .     S
O639   C1139   1.278   1_545 S
O640   Zn687   1.949   .     S
O640   Zn689   1.949   .     S
O640   Zn693   1.949   .     S
O640   Zn1379  1.949   1_545 S
O641   Zn692   1.951   .     S
O642   Zn684   1.936   .     S
O643   Zn683   1.936   .     S
O644   Zn686   1.937   .     S
O645   Zn685   1.937   .     S
O646   Zn688   1.936   .     S
O647   Zn687   1.936   .     S
O648   Zn682   1.937   .     S
O649   Zn696   1.937   .     S
O650   Zn683   1.937   .     S
O651   Zn690   1.949   .     S
O651   Zn682   1.949   .     S
O651   Zn694   1.949   .     S
O652   Zn684   1.937   .     S
O653   Zn696   1.936   .     S
O654   Zn682   1.936   .     S
O655   Zn687   1.937   .     S
O656   Zn688   1.937   .     S
O657   Zn685   1.936   .     S
O658   Zn686   1.936   .     S
O659   Zn343   1.936   1_655 S
O660   Zn690   1.936   .     S
O661   Zn1389  1.937   .     S
O662   Zn685   1.949   .     S
O662   Zn691   1.949   .     S
O662   Zn695   1.949   .     S
O663   Zn692   1.937   .     S
O664   Zn695   1.936   .     S
O665   Zn346   1.936   1_655 S
O666   Zn689   1.937   .     S
O667   Zn1377  1.937   .     S
O668   Zn342   1.937   1_655 S
O669   Zn691   1.937   .     S
O670   Zn681   1.936   .     S
O671   Zn1385  1.936   .     S
O672   Zn694   1.937   .     S
O673   Zn688   1.951   .     S
O673   C1133   1.280   .     S
O674   Zn347   1.937   1_655 S
O675   Zn1388  1.936   .     S
O676   Zn693   1.936   .     S
O677   Zn687   1.951   .     S
O677   C1134   1.278   1_545 S
O678   Zn682   1.952   .     S
O679   Zn696   1.952   .     S
O680   Zn684   1.952   .     S
Zn681  O1363   1.937   1_545 S
Zn683  O1336   1.949   .     S
Zn686  O303    1.949   1_655 S
Zn688  O1325   1.949   .     S
Zn689  O1367   1.936   1_545 S
Zn692  O1371   1.936   1_545 S
Zn693  O1357   1.937   1_545 S
Zn696  O314    1.949   1_655 S
C697   C700    1.409   .     A
C697   N961    1.428   .     S
C697   C1106   1.408   .     S
C698   C710    1.411   .     A
C698   C68     1.403   1_565 A
C698   N962    1.427   .     S
C699   C827    1.411   .     A
C699   C770    1.409   .     A
C700   C771    1.409   .     A
C700   C730    1.419   .     A
C701   C761    1.411   .     A
C701   C773    1.409   .     A
C701   C1080   1.422   1_455 S
C702   C774    1.408   .     A
C702   C772    1.409   .     A
C703   C775    1.409   .     A
C703   C783    1.411   .     A
C703   C734    1.421   .     A
C704   C731    1.411   .     A
C704   C776    1.409   .     A
C704   C39     1.422   1_565 S
C705   C742    1.412   .     A
C705   C736    1.422   .     A
C705   C777    1.409   .     A
C706   C737    1.420   .     A
C706   C778    1.409   .     A
C706   C753    1.411   .     A
C707   C757    1.413   .     A
C707   C779    1.410   .     A
C707   C1086   1.421   .     S
C708   C780    1.408   .     A
C708   C735    1.421   .     A
C708   C838    1.411   .     A
C709   N963    1.428   .     S
C709   C711    1.410   .     A
C709   C1113   1.408   .     S
C710   C781    1.409   .     A
C710   C40     1.422   1_565 S
C711   C782    1.409   .     A
C711   C1085   1.418   .     S
C712   C784    1.409   .     A
C712   C720    1.410   .     A
C712   C738    1.420   .     A
C713   C800    1.456   .     S
C713   C828    1.402   .     A
C713   C830    1.402   .     A
C714   C829    1.402   .     A
C714   C826    1.402   .     A
C714   C801    1.456   .     S
C715   C825    1.402   .     A
C715   C832    1.402   .     A
C715   C793    1.455   .     S
C716   C795    1.455   .     S
C716   C824    1.402   .     A
C716   C831    1.402   .     A
C717   C834    1.402   .     A
C717   C823    1.402   .     A
C717   C796    1.456   .     S
C718   C833    1.402   .     A
C718   C797    1.456   .     S
C718   C822    1.402   .     A
C719   C836    1.402   .     A
C719   C798    1.455   .     S
C719   C821    1.402   .     A
C720   C766    1.407   .     A
C720   N964    1.429   .     S
C721   C835    1.402   .     A
C721   C799    1.455   .     S
C721   C820    1.402   .     A
C722   C819    1.402   .     A
C722   C839    1.402   .     A
C722   C809    1.455   .     S
C723   C837    1.402   .     A
C723   C818    1.402   .     A
C723   C810    1.455   .     S
C724   C802    1.456   .     S
C724   C841    1.402   .     A
C724   C817    1.402   .     A
C725   C815    1.402   .     A
C725   C840    1.402   .     A
C725   C803    1.456   .     S
C726   C804    1.455   .     S
C726   C843    1.402   .     A
C726   C814    1.402   .     A
C727   C806    1.455   .     S
C727   C813    1.402   .     A
C727   C842    1.402   .     A
C728   C812    1.402   .     A
C728   C807    1.456   .     S
C728   C845    1.402   .     A
C729   C811    1.402   .     A
C729   C844    1.402   .     A
C729   C808    1.456   .     S
C730   C732    1.419   .     A
C730   C1194   1.419   .     S
C731   N965    1.428   .     S
C731   C67     1.404   1_565 S
C732   C847    1.422   .     A
C732   C1049   1.422   .     S
C733   C734    1.419   .     A
C733   C848    1.420   .     A
C733   C6      1.419   1_565 S
C734   C3      1.422   1_565 S
C735   C736    1.419   1_556 S
C736   C735    1.419   1_554 S
C737   C1059   1.418   1_455 S
C737   C738    1.419   1_556 S
C738   C1055   1.421   1_455 S
C738   C737    1.419   1_554 S
C739   N961    1.447   .     S
C739   H892    1.110   .     S
C739   H1241   1.111   .     S
C739   H1242   1.111   .     S
C740   H899    1.110   .     S
C740   H896    1.110   .     S
C740   N969    1.449   .     S
C740   H1245   1.112   1_455 S
C741   N970    1.449   .     S
C741   H902    1.110   .     S
C741   H901    1.110   .     S
C741   H903    1.111   .     S
C742   N966    1.427   .     S
C742   C764    1.403   .     S
C743   H905    1.110   .     S
C743   N971    1.449   .     S
C743   H906    1.110   .     S
C743   H211    1.112   1_565 S
C744   H911    1.110   .     S
C744   N972    1.449   .     S
C744   H910    1.110   .     S
C744   H912    1.109   .     S
C745   N973    1.449   .     S
C745   H914    1.110   .     S
C745   H916    1.110   .     S
C745   H1263   1.112   .     S
C746   H918    1.110   .     S
C746   N974    1.449   .     S
C746   H921    1.110   .     S
C746   H223    1.112   1_565 S
C747   H924    1.110   .     S
C747   H923    1.110   .     S
C747   N975    1.449   .     S
C748   H928    1.110   .     S
C748   H927    1.110   .     S
C748   H929    1.112   .     S
C748   N976    1.449   .     S
C749   H933    1.112   .     S
C749   H932    1.110   .     S
C749   N962    1.449   .     S
C749   H934    1.110   .     S
C750   H938    1.111   .     S
C750   N963    1.447   .     S
C750   H937    1.111   .     S
C750   H936    1.110   .     S
C751   H941    1.111   .     S
C751   H940    1.110   .     S
C751   N964    1.448   .     S
C751   H943    1.110   .     S
C752   H945    1.110   .     S
C752   H947    1.112   .     S
C752   H946    1.110   .     S
C752   N965    1.449   .     S
C753   N967    1.430   .     S
C753   C765    1.409   .     A
C754   N966    1.450   .     S
C754   H950    1.110   .     S
C754   H951    1.112   .     S
C754   H949    1.109   .     S
C755   H956    1.111   .     S
C755   H954    1.110   .     S
C755   H955    1.109   .     S
C755   N967    1.449   .     S
C756   H959    1.110   .     S
C756   H958    1.110   .     S
C756   H960    1.112   .     S
C756   N968    1.449   .     S
C757   N968    1.427   .     S
C757   C1114   1.404   .     S
C758   C787    1.458   .     S
C758   C794    1.410   .     A
C758   C1045   1.408   1_455 S
C759   C805    1.403   .     A
C759   C788    1.457   .     S
C759   C1109   1.403   .     S
C760   C785    1.459   .     S
C760   C772    1.409   .     A
C761   N969    1.428   .     S
C761   C1107   1.403   1_455 S
C762   C786    1.457   .     S
C762   C783    1.404   .     A
C762   C131    1.403   1_565 S
C763   C838    1.403   .     A
C764   C792    1.459   .     S
C765   C1057   1.408   1_455 S
C765   C1137   1.457   1_455 S
C766   C790    1.457   .     S
C766   C1105   1.404   1_455 S
C767   C846    1.409   .     A
C767   C773    1.385   .     A
C767   F849    1.358   .     S
C768   F857    1.356   .     S
C768   C847    1.410   .     A
C768   C771    1.385   .     A
C769   C775    1.385   .     A
C769   C848    1.409   .     A
C769   F858    1.357   .     S
C770   C774    1.384   .     A
C770   F859    1.357   .     S
C771   F860    1.358   .     S
C772   N970    1.430   .     S
C773   F861    1.357   .     S
C774   F862    1.358   .     S
C775   F863    1.357   .     S
C776   F864    1.357   .     S
C776   C781    1.384   1_556 S
C777   F850    1.356   .     S
C777   C780    1.384   1_554 S
C778   F851    1.358   .     S
C778   C784    1.385   1_556 S
C779   F852    1.356   .     S
C779   C782    1.386   1_554 S
C780   F853    1.357   .     S
C780   C777    1.384   1_556 S
C781   F854    1.357   .     S
C781   C776    1.384   1_554 S
C782   F855    1.358   .     S
C782   C779    1.386   1_556 S
C783   N971    1.427   .     S
C784   F856    1.358   .     S
C784   C778    1.385   1_554 S
C785   O1028   1.277   .     A
C786   O978    1.277   .     A
C786   O329    1.278   1_565 S
C787   O1026   1.277   .     A
C787   O1327   1.279   1_455 S
C788   O1027   1.277   .     A
C788   O1328   1.278   .     S
C789   O1333   1.278   .     A
C789   C1113   1.457   .     S
C789   O1329   1.277   .     S
C790   O986    1.277   .     A
C790   O982    1.279   .     A
C791   C67     1.458   1_565 S
C791   O287    1.278   1_565 S
C791   O291    1.278   1_565 S
C792   O984    1.277   .     S
C792   O989    1.279   .     S
C793   O990    1.282   .     A
C793   O1018   1.282   .     A
C794   N972    1.430   .     S
C794   C846    1.411   .     A
C795   O1019   1.282   .     A
C795   O991    1.282   .     A
C796   O992    1.282   .     A
C796   O1016   1.282   .     A
C797   O993    1.282   .     A
C797   O1017   1.282   .     A
C798   O1023   1.282   .     A
C798   O994    1.282   .     A
C799   O995    1.282   .     A
C799   O1024   1.282   .     A
C800   O996    1.282   .     A
C800   O1020   1.282   .     A
C801   O997    1.282   .     A
C801   O1022   1.282   .     A
C802   O1009   1.282   .     A
C802   O998    1.282   .     A
C803   O1011   1.282   .     A
C803   O1000   1.282   .     A
C804   O1007   1.282   .     A
C804   O1001   1.282   .     A
C805   C847    1.412   .     A
C805   N973    1.427   .     S
C806   O1008   1.282   .     A
C806   O1002   1.282   .     A
C807   O1003   1.282   .     A
C807   O1014   1.282   .     A
C808   O1015   1.282   .     A
C808   O1004   1.282   .     A
C809   O1005   1.282   .     A
C809   O1012   1.282   .     A
C810   O1013   1.282   .     A
C810   O1006   1.282   .     A
C811   C828    1.386   .     A
C811   H865    1.083   .     S
C812   H876    1.083   .     S
C812   C826    1.386   .     A
C813   C825    1.386   .     A
C813   H887    1.083   .     S
C814   H898    1.083   .     S
C814   C824    1.386   .     A
C815   C823    1.386   .     A
C815   H909    1.083   .     S
C816   C848    1.412   .     A
C816   N974    1.428   .     S
C816   C64     1.405   1_565 S
C817   H920    1.083   .     S
C817   C822    1.386   .     A
C818   C821    1.386   .     A
C818   H931    1.083   .     S
C819   C820    1.386   .     A
C819   H942    1.083   .     S
C820   H953    1.083   .     S
C821   H866    1.083   .     S
C822   H867    1.083   .     S
C823   H868    1.083   .     S
C824   H869    1.083   .     S
C825   H870    1.083   .     S
C826   H871    1.083   .     S
C827   N975    1.428   .     S
C828   H872    1.083   .     S
C829   H873    1.083   .     S
C829   C845    1.386   .     A
C830   H874    1.083   .     S
C830   C844    1.386   .     A
C831   C843    1.386   .     A
C831   H875    1.083   .     S
C832   H877    1.083   .     S
C832   C842    1.386   .     A
C833   C841    1.386   .     A
C833   H878    1.083   .     S
C834   C840    1.386   .     A
C834   H879    1.083   .     S
C835   C839    1.386   .     A
C835   H880    1.083   .     S
C836   H881    1.083   .     S
C836   C837    1.386   .     A
C837   H882    1.083   .     S
C838   N976    1.427   .     S
C839   H883    1.083   .     S
C840   H884    1.083   .     S
C841   H885    1.083   .     S
C842   H886    1.083   .     S
C843   H888    1.083   .     S
C844   H889    1.083   .     S
C845   H890    1.083   .     S
C846   C1078   1.419   1_455 S
H891   N961    1.030   .     S
H893   C1087   1.111   1_455 S
H894   C1087   1.111   1_455 S
H895   N969    1.031   .     S
H897   C1088   1.112   .     S
H900   N970    1.031   .     S
H904   N971    1.031   .     S
H908   N972    1.031   .     S
H913   N973    1.031   .     S
H915   C1093   1.112   1_455 S
H917   N974    1.031   .     S
H922   N975    1.031   .     S
H925   C51     1.112   1_565 S
H926   N976    1.031   .     S
H930   N962    1.031   .     S
H935   N963    1.030   .     S
H939   N964    1.031   .     S
H944   N965    1.031   .     S
H948   N966    1.031   .     S
H952   N967    1.031   .     S
H957   N968    1.031   .     S
O977   Zn1032  1.949   .     S
O977   Zn1029  1.949   .     S
O977   Zn1040  1.949   .     S
O978   Zn1031  1.952   .     S
O979   Zn1034  1.951   .     S
O979   C1135   1.279   .     S
O980   Zn1033  1.951   .     S
O980   C1136   1.278   1_455 S
O981   Zn1043  1.951   .     S
O981   C1137   1.277   1_455 S
O982   Zn1042  1.951   .     S
O983   Zn1037  1.952   .     S
O984   Zn1029  1.952   .     S
O985   C1137   1.278   1_455 A
O985   Zn1039  1.952   .     S
O986   Zn1038  1.952   .     S
O987   Zn1041  1.951   .     S
O988   Zn1035  1.949   .     S
O988   Zn1037  1.949   .     S
O988   Zn1041  1.949   .     S
O989   Zn1040  1.951   .     S
O990   Zn1032  1.936   .     S
O991   Zn1031  1.936   .     S
O992   Zn1034  1.937   .     S
O993   Zn1033  1.937   .     S
O994   Zn1036  1.936   .     S
O995   Zn1035  1.936   .     S
O996   Zn1030  1.937   .     S
O997   Zn1044  1.937   .     S
O998   Zn1031  1.937   .     S
O999   Zn1038  1.949   .     S
O999   Zn1030  1.949   .     S
O999   Zn1382  1.949   1_455 S
O999   Zn1042  1.949   .     S
O1000  Zn1032  1.937   .     S
O1001  Zn1044  1.936   .     S
O1002  Zn1030  1.936   .     S
O1003  Zn1035  1.937   .     S
O1004  Zn1036  1.937   .     S
O1005  Zn1033  1.936   .     S
O1006  Zn1034  1.936   .     S
O1007  Zn1387  1.936   .     S
O1008  Zn1038  1.936   .     S
O1009  Zn345   1.937   1_565 S
O1010  Zn1392  1.949   1_455 S
O1010  Zn1033  1.949   .     S
O1010  Zn1039  1.949   .     S
O1010  Zn1043  1.949   .     S
O1011  Zn1040  1.937   .     S
O1012  Zn1043  1.936   .     S
O1013  Zn1390  1.936   .     S
O1014  Zn1037  1.937   .     S
O1015  Zn333   1.937   1_565 S
O1016  Zn1386  1.937   .     S
O1017  Zn1039  1.937   .     S
O1018  Zn1029  1.936   .     S
O1019  Zn341   1.936   1_565 S
O1020  Zn1042  1.937   .     S
O1021  Zn1036  1.951   .     S
O1021  C89     1.280   1_565 S
O1022  Zn1391  1.937   .     S
O1023  Zn344   1.936   1_565 S
O1024  Zn1041  1.936   .     S
O1025  Zn1035  1.951   .     S
O1026  Zn1030  1.952   .     S
O1027  Zn1044  1.952   .     S
O1028  Zn1032  1.952   .     S
Zn1031 O292    1.949   1_565 S
Zn1034 O1347   1.949   .     S
Zn1036 O281    1.949   1_565 S
Zn1038 O1364   1.937   1_455 S
Zn1039 O1355   1.936   1_455 S
Zn1042 O1361   1.936   1_455 S
Zn1043 O1370   1.937   1_455 S
Zn1044 O1358   1.949   .     S
C1045  C1048   1.409   .     A
C1045  N1309   1.428   .     S
C1045  C758    1.408   1_655 S
C1046  C1058   1.411   .     A
C1046  C416    1.403   1_565 A
C1046  N1310   1.427   .     S
C1047  C1175   1.411   .     A
C1047  C1118   1.409   .     A
C1048  C1119   1.409   .     A
C1048  C1078   1.419   .     A
C1049  C1109   1.411   .     A
C1049  C1121   1.409   .     A
C1050  C1122   1.408   .     A
C1050  C1120   1.409   .     A
C1051  C1123   1.409   .     A
C1051  C1131   1.411   .     A
C1051  C1082   1.421   .     A
C1052  C1079   1.411   .     A
C1052  C1124   1.409   .     A
C1052  C387    1.422   1_565 S
C1053  C1090   1.412   .     A
C1053  C1084   1.422   .     A
C1053  C1125   1.409   .     A
C1054  C1085   1.420   .     A
C1054  C1126   1.409   .     A
C1054  C1101   1.411   .     A
C1055  C1105   1.413   .     A
C1055  C1127   1.410   .     A
C1055  C738    1.421   1_655 S
C1056  C1128   1.408   .     A
C1056  C1083   1.421   .     A
C1056  C1186   1.411   .     A
C1057  N1311   1.428   .     S
C1057  C1059   1.410   .     A
C1057  C765    1.408   1_655 S
C1058  C1129   1.409   .     A
C1058  C388    1.422   1_565 S
C1059  C1130   1.409   .     A
C1059  C737    1.418   1_655 S
C1060  C1132   1.409   .     A
C1060  C1068   1.410   .     A
C1060  C1086   1.420   .     A
C1061  C1148   1.456   .     S
C1061  C1176   1.402   .     A
C1061  C1178   1.402   .     A
C1062  C1177   1.402   .     A
C1062  C1174   1.402   .     A
C1062  C1149   1.456   .     S
C1063  C1173   1.402   .     A
C1063  C1180   1.402   .     A
C1063  C1141   1.455   .     S
C1064  C1143   1.455   .     S
C1064  C1172   1.402   .     A
C1064  C1179   1.402   .     A
C1065  C1182   1.402   .     A
C1065  C1171   1.402   .     A
C1065  C1144   1.456   .     S
C1066  C1181   1.402   .     A
C1066  C1145   1.456   .     S
C1066  C1170   1.402   .     A
C1067  C1184   1.402   .     A
C1067  C1146   1.455   .     S
C1067  C1169   1.402   .     A
C1068  C1114   1.407   .     A
C1068  N1312   1.429   .     S
C1069  C1183   1.402   .     A
C1069  C1147   1.455   .     S
C1069  C1168   1.402   .     A
C1070  C1167   1.402   .     A
C1070  C1187   1.402   .     A
C1070  C1157   1.455   .     S
C1071  C1185   1.402   .     A
C1071  C1166   1.402   .     A
C1071  C1158   1.455   .     S
C1072  C1150   1.456   .     S
C1072  C1189   1.402   .     A
C1072  C1165   1.402   .     A
C1073  C1163   1.402   .     A
C1073  C1188   1.402   .     A
C1073  C1151   1.456   .     S
C1074  C1152   1.455   .     S
C1074  C1191   1.402   .     A
C1074  C1162   1.402   .     A
C1075  C1154   1.455   .     S
C1075  C1161   1.402   .     A
C1075  C1190   1.402   .     A
C1076  C1160   1.402   .     A
C1076  C1155   1.456   .     S
C1076  C1193   1.402   .     A
C1077  C1159   1.402   .     A
C1077  C1192   1.402   .     A
C1077  C1156   1.456   .     S
C1078  C1080   1.419   .     A
C1078  C846    1.419   1_655 S
C1079  N1313   1.428   .     S
C1079  C415    1.404   1_565 S
C1080  C1195   1.422   .     A
C1080  C701    1.422   1_655 S
C1081  C1082   1.419   .     A
C1081  C1196   1.420   .     A
C1081  C354    1.419   1_565 S
C1082  C351    1.422   1_565 S
C1083  C1084   1.419   1_556 S
C1084  C1083   1.419   1_554 S
C1085  C1086   1.419   1_556 S
C1086  C1085   1.419   1_554 S
C1087  N1309   1.447   .     S
C1087  H1240   1.110   .     S
C1087  H893    1.111   1_655 S
C1087  H894    1.111   1_655 S
C1088  H1247   1.110   .     S
C1088  H1244   1.110   .     S
C1088  N1317   1.449   .     S
C1089  N1318   1.449   .     S
C1089  H1250   1.110   .     S
C1089  H1249   1.110   .     S
C1089  H1251   1.111   .     S
C1090  N1314   1.427   .     S
C1090  C1112   1.403   .     S
C1091  H1253   1.110   .     S
C1091  N1319   1.449   .     S
C1091  H1254   1.110   .     S
C1091  H559    1.112   1_565 S
C1092  H1259   1.110   .     S
C1092  N1320   1.449   .     S
C1092  H1258   1.110   .     S
C1092  H1260   1.109   .     S
C1093  N1321   1.449   .     S
C1093  H1262   1.110   .     S
C1093  H1264   1.110   .     S
C1093  H915    1.112   1_655 S
C1094  H1266   1.110   .     S
C1094  N1322   1.449   .     S
C1094  H1269   1.110   .     S
C1094  H571    1.112   1_565 S
C1095  H1272   1.110   .     S
C1095  H1271   1.110   .     S
C1095  N1323   1.449   .     S
C1096  H1276   1.110   .     S
C1096  H1275   1.110   .     S
C1096  H1277   1.112   .     S
C1096  N1324   1.449   .     S
C1097  H1281   1.112   .     S
C1097  H1280   1.110   .     S
C1097  N1310   1.449   .     S
C1097  H1282   1.110   .     S
C1098  H1286   1.111   .     S
C1098  N1311   1.447   .     S
C1098  H1285   1.111   .     S
C1098  H1284   1.110   .     S
C1099  H1289   1.111   .     S
C1099  H1288   1.110   .     S
C1099  N1312   1.448   .     S
C1099  H1291   1.110   .     S
C1100  H1293   1.110   .     S
C1100  H1295   1.112   .     S
C1100  H1294   1.110   .     S
C1100  N1313   1.449   .     S
C1101  N1315   1.430   .     S
C1101  C1113   1.409   .     A
C1102  N1314   1.450   .     S
C1102  H1298   1.110   .     S
C1102  H1299   1.112   .     S
C1102  H1297   1.109   .     S
C1103  H1304   1.111   .     S
C1103  H1302   1.110   .     S
C1103  H1303   1.109   .     S
C1103  N1315   1.449   .     S
C1104  H1307   1.110   .     S
C1104  H1306   1.110   .     S
C1104  H1308   1.112   .     S
C1104  N1316   1.449   .     S
C1105  N1316   1.427   .     S
C1105  C766    1.404   1_655 S
C1106  C1135   1.458   .     S
C1106  C1142   1.410   .     A
C1107  C1153   1.403   .     A
C1107  C1136   1.457   .     S
C1107  C761    1.403   1_655 S
C1108  C1133   1.459   .     S
C1108  C1120   1.409   .     A
C1109  N1317   1.428   .     S
C1110  C1134   1.457   .     S
C1110  C1131   1.404   .     A
C1110  C479    1.403   1_565 S
C1111  C1186   1.403   .     A
C1112  C1140   1.459   .     S
C1114  C1138   1.457   .     S
C1115  C1194   1.409   .     A
C1115  C1121   1.385   .     A
C1115  F1197   1.358   .     S
C1116  F1205   1.356   .     S
C1116  C1195   1.410   .     A
C1116  C1119   1.385   .     A
C1117  C1123   1.385   .     A
C1117  C1196   1.409   .     A
C1117  F1206   1.357   .     S
C1118  C1122   1.384   .     A
C1118  F1207   1.357   .     S
C1119  F1208   1.358   .     S
C1120  N1318   1.430   .     S
C1121  F1209   1.357   .     S
C1122  F1210   1.358   .     S
C1123  F1211   1.357   .     S
C1124  F1212   1.357   .     S
C1124  C1129   1.384   1_556 S
C1125  F1198   1.356   .     S
C1125  C1128   1.384   1_554 S
C1126  F1199   1.358   .     S
C1126  C1132   1.385   1_556 S
C1127  F1200   1.356   .     S
C1127  C1130   1.386   1_554 S
C1128  F1201   1.357   .     S
C1128  C1125   1.384   1_556 S
C1129  F1202   1.357   .     S
C1129  C1124   1.384   1_554 S
C1130  F1203   1.358   .     S
C1130  C1127   1.386   1_556 S
C1131  N1319   1.427   .     S
C1132  F1204   1.358   .     S
C1132  C1126   1.385   1_554 S
C1133  O1376   1.277   .     A
C1134  O1326   1.277   .     A
C1134  O677    1.278   1_565 S
C1135  O1374   1.277   .     A
C1136  O1375   1.277   .     A
C1136  O980    1.278   1_655 S
C1137  O985    1.278   1_655 A
C1137  C765    1.457   1_655 S
C1137  O981    1.277   1_655 S
C1138  O1334   1.277   .     A
C1138  O1330   1.279   .     A
C1139  C415    1.458   1_565 S
C1139  O635    1.278   1_565 S
C1139  O639    1.278   1_565 S
C1140  O1332   1.277   .     S
C1140  O1337   1.279   .     S
C1141  O1338   1.282   .     A
C1141  O1366   1.282   .     A
C1142  N1320   1.430   .     S
C1142  C1194   1.411   .     A
C1143  O1367   1.282   .     A
C1143  O1339   1.282   .     A
C1144  O1340   1.282   .     A
C1144  O1364   1.282   .     A
C1145  O1341   1.282   .     A
C1145  O1365   1.282   .     A
C1146  O1371   1.282   .     A
C1146  O1342   1.282   .     A
C1147  O1343   1.282   .     A
C1147  O1372   1.282   .     A
C1148  O1344   1.282   .     A
C1148  O1368   1.282   .     A
C1149  O1345   1.282   .     A
C1149  O1370   1.282   .     A
C1150  O1357   1.282   .     A
C1150  O1346   1.282   .     A
C1151  O1359   1.282   .     A
C1151  O1348   1.282   .     A
C1152  O1355   1.282   .     A
C1152  O1349   1.282   .     A
C1153  C1195   1.412   .     A
C1153  N1321   1.427   .     S
C1154  O1356   1.282   .     A
C1154  O1350   1.282   .     A
C1155  O1351   1.282   .     A
C1155  O1362   1.282   .     A
C1156  O1363   1.282   .     A
C1156  O1352   1.282   .     A
C1157  O1353   1.282   .     A
C1157  O1360   1.282   .     A
C1158  O1361   1.282   .     A
C1158  O1354   1.282   .     A
C1159  C1176   1.386   .     A
C1159  H1213   1.083   .     S
C1160  H1224   1.083   .     S
C1160  C1174   1.386   .     A
C1161  C1173   1.386   .     A
C1161  H1235   1.083   .     S
C1162  H1246   1.083   .     S
C1162  C1172   1.386   .     A
C1163  C1171   1.386   .     A
C1163  H1257   1.083   .     S
C1164  C1196   1.412   .     A
C1164  N1322   1.428   .     S
C1164  C412    1.405   1_565 S
C1165  H1268   1.083   .     S
C1165  C1170   1.386   .     A
C1166  C1169   1.386   .     A
C1166  H1279   1.083   .     S
C1167  C1168   1.386   .     A
C1167  H1290   1.083   .     S
C1168  H1301   1.083   .     S
C1169  H1214   1.083   .     S
C1170  H1215   1.083   .     S
C1171  H1216   1.083   .     S
C1172  H1217   1.083   .     S
C1173  H1218   1.083   .     S
C1174  H1219   1.083   .     S
C1175  N1323   1.428   .     S
C1176  H1220   1.083   .     S
C1177  H1221   1.083   .     S
C1177  C1193   1.386   .     A
C1178  H1222   1.083   .     S
C1178  C1192   1.386   .     A
C1179  C1191   1.386   .     A
C1179  H1223   1.083   .     S
C1180  H1225   1.083   .     S
C1180  C1190   1.386   .     A
C1181  C1189   1.386   .     A
C1181  H1226   1.083   .     S
C1182  C1188   1.386   .     A
C1182  H1227   1.083   .     S
C1183  C1187   1.386   .     A
C1183  H1228   1.083   .     S
C1184  H1229   1.083   .     S
C1184  C1185   1.386   .     A
C1185  H1230   1.083   .     S
C1186  N1324   1.427   .     S
C1187  H1231   1.083   .     S
C1188  H1232   1.083   .     S
C1189  H1233   1.083   .     S
C1190  H1234   1.083   .     S
C1191  H1236   1.083   .     S
C1192  H1237   1.083   .     S
C1193  H1238   1.083   .     S
H1239  N1309   1.030   .     S
H1243  N1317   1.031   .     S
H1245  C740    1.112   1_655 S
H1248  N1318   1.031   .     S
H1252  N1319   1.031   .     S
H1256  N1320   1.031   .     S
H1261  N1321   1.031   .     S
H1265  N1322   1.031   .     S
H1270  N1323   1.031   .     S
H1273  C399    1.112   1_565 S
H1274  N1324   1.031   .     S
H1278  N1310   1.031   .     S
H1283  N1311   1.030   .     S
H1287  N1312   1.031   .     S
H1292  N1313   1.031   .     S
H1296  N1314   1.031   .     S
H1300  N1315   1.031   .     S
H1305  N1316   1.031   .     S
O1325  Zn1380  1.949   .     S
O1325  Zn1377  1.949   .     S
O1325  Zn1388  1.949   .     S
O1326  Zn1379  1.952   .     S
O1327  Zn1382  1.951   .     S
O1327  C787    1.279   1_655 S
O1328  Zn1381  1.951   .     S
O1329  Zn1391  1.951   .     S
O1330  Zn1390  1.951   .     S
O1331  Zn1385  1.952   .     S
O1332  Zn1377  1.952   .     S
O1333  Zn1387  1.952   .     S
O1334  Zn1386  1.952   .     S
O1335  Zn1389  1.951   .     S
O1336  Zn1383  1.949   .     S
O1336  Zn1385  1.949   .     S
O1336  Zn1389  1.949   .     S
O1337  Zn1388  1.951   .     S
O1338  Zn1380  1.936   .     S
O1339  Zn1379  1.936   .     S
O1340  Zn1382  1.937   .     S
O1341  Zn1381  1.937   .     S
O1342  Zn1384  1.936   .     S
O1343  Zn1383  1.936   .     S
O1344  Zn1378  1.937   .     S
O1345  Zn1392  1.937   .     S
O1346  Zn1379  1.937   .     S
O1347  Zn1386  1.949   .     S
O1347  Zn1378  1.949   .     S
O1347  Zn1390  1.949   .     S
O1348  Zn1380  1.937   .     S
O1349  Zn1392  1.936   .     S
O1350  Zn1378  1.936   .     S
O1351  Zn1383  1.937   .     S
O1352  Zn1384  1.937   .     S
O1353  Zn1381  1.936   .     S
O1354  Zn1382  1.936   .     S
O1355  Zn1039  1.936   1_655 S
O1356  Zn1386  1.936   .     S
O1357  Zn693   1.937   1_565 S
O1358  Zn1381  1.949   .     S
O1358  Zn1387  1.949   .     S
O1358  Zn1391  1.949   .     S
O1359  Zn1388  1.937   .     S
O1360  Zn1391  1.936   .     S
O1361  Zn1042  1.936   1_655 S
O1362  Zn1385  1.937   .     S
O1363  Zn681   1.937   1_565 S
O1364  Zn1038  1.937   1_655 S
O1365  Zn1387  1.937   .     S
O1366  Zn1377  1.936   .     S
O1367  Zn689   1.936   1_565 S
O1368  Zn1390  1.937   .     S
O1369  Zn1384  1.951   .     S
O1369  C437    1.280   1_565 S
O1370  Zn1043  1.937   1_655 S
O1371  Zn692   1.936   1_565 S
O1372  Zn1389  1.936   .     S
O1373  Zn1383  1.951   .     S
O1374  Zn1378  1.952   .     S
O1375  Zn1392  1.952   .     S
O1376  Zn1380  1.952   .     S
Zn1379 O640    1.949   1_565 S
Zn1382 O999    1.949   1_655 S
Zn1384 O629    1.949   1_565 S
Zn1392 O1010   1.949   1_655 S
