data_str_m1_o10_o18_pcu_sym.151
_audit_creation_date              2020-01-03
_audit_creation_method            'Materials Studio'
_symmetry_space_group_name_H-M    'P1'
_symmetry_Int_Tables_number       1
_symmetry_cell_setting            triclinic
loop_
_symmetry_equiv_pos_as_xyz
  x,y,z
_cell_length_a                    32.5232
_cell_length_b                    32.6493
_cell_length_c                    35.8673
_cell_angle_alpha                 98.7671
_cell_angle_beta                  72.9484
_cell_angle_gamma                 98.7402
loop_
_atom_site_label
_atom_site_type_symbol
_atom_site_fract_x
_atom_site_fract_y
_atom_site_fract_z
_atom_site_U_iso_or_equiv
_atom_site_adp_type
_atom_site_occupancy
C1     C     0.05247   0.16001   0.25863   0.00000  Uiso   1.00
C2     C     0.19520   0.12893   0.46094   0.00000  Uiso   1.00
C3     C     0.21498   0.10872   0.48103   0.00000  Uiso   1.00
C4     C     0.28099   0.17363   0.24122   0.00000  Uiso   1.00
C5     C     0.20846   0.11850   0.02124   0.00000  Uiso   1.00
C6     C     0.18088   0.14911   0.04232   0.00000  Uiso   1.00
C7     C     0.22916   0.09749   0.04065   0.00000  Uiso   1.00
C8     C     0.22283   0.10636   0.08094   0.00000  Uiso   1.00
C9     C     0.17568   0.15793   0.08307   0.00000  Uiso   1.00
C10    C     0.32704   0.17639   0.23771   0.00000  Uiso   1.00
C11    C     0.00707   0.15769   0.26197   0.00000  Uiso   1.00
C12    C     0.10645   0.22409   0.42060   0.00000  Uiso   1.00
C13    C     0.18065   0.32240   0.24051   0.00000  Uiso   1.00
C14    C     0.14911   0.01239   0.26168   0.00000  Uiso   1.00
C15    C     0.15601   0.05623   0.25843   0.00000  Uiso   1.00
C16    C     0.17657   0.27761   0.24159   0.00000  Uiso   1.00
C17    C     0.18815   0.14512   0.14416   0.00000  Uiso   1.00
C18    C     0.14546   0.18790   0.35609   0.00000  Uiso   1.00
C19    C     0.13604   0.19634   0.39905   0.00000  Uiso   1.00
C20    C     0.19618   0.13657   0.10195   0.00000  Uiso   1.00
C21    C     0.09798   0.23130   0.46126   0.00000  Uiso   1.00
C22    C     0.10436   0.32883   0.28193   0.00000  Uiso   1.00
C23    C     0.15686   0.17587   0.41861   0.00000  Uiso   1.00
C24    C     0.08828   0.00417   0.32278   0.00000  Uiso   1.00
C25    C     0.04619   0.32161   0.34194   0.00000  Uiso   1.00
C26    C     0.01982   0.29735   0.32041   0.00000  Uiso   1.00
C27    C     0.03539   0.28913   0.27964   0.00000  Uiso   1.00
C28    C     0.07744   0.30496   0.26037   0.00000  Uiso   1.00
C29    C     0.14804   0.18168   0.45979   0.00000  Uiso   1.00
C30    C     0.11855   0.21050   0.48096   0.00000  Uiso   1.00
C31    C     0.16792   0.16011   0.48040   0.00000  Uiso   1.00
C32    C     0.15969   0.16957   0.02194   0.00000  Uiso   1.00
C33    C     0.13015   0.19872   0.04171   0.00000  Uiso   1.00
C34    C     0.10987   0.21844   0.02156   0.00000  Uiso   1.00
H35    H     0.08728   0.24036   0.03797   0.00000  Uiso   1.00
H36    H     0.09000   0.24032   0.40606   0.00000  Uiso   1.00
H37    H     0.18037   0.15599   0.40074   0.00000  Uiso   1.00
H38    H     0.12126   0.20674   0.07302   0.00000  Uiso   1.00
H39    H     0.20153   0.11849   0.43008   0.00000  Uiso   1.00
H40    H     0.10846   0.02287   0.33976   0.00000  Uiso   1.00
H41    H     0.03402   0.32809   0.37348   0.00000  Uiso   1.00
H42    H     0.32062   0.28503   0.33529   0.00000  Uiso   1.00
H43    H     0.01488   0.27052   0.26299   0.00000  Uiso   1.00
H44    H     0.08918   0.29845   0.22877   0.00000  Uiso   1.00
H45    H     0.25005   0.07399   0.02466   0.00000  Uiso   1.00
H46    H     0.01683   0.19365   0.21532   0.00000  Uiso   1.00
H47    H     0.31796   0.14037   0.28463   0.00000  Uiso   1.00
H48    H     0.21086   0.00382   0.22282   0.00000  Uiso   1.00
H49    H     0.15599   0.18111   0.10124   0.00000  Uiso   1.00
H50    H     0.23856   0.08966   0.09574   0.00000  Uiso   1.00
H51    H     0.23558   0.08504   0.46484   0.00000  Uiso   1.00
H52    H     0.07523   0.25317   0.47738   0.00000  Uiso   1.00
O53    O     0.16667   0.16667   0.25000   0.00000  Uiso   1.00
O54    O     0.15693   0.12393   0.16625   0.00000  Uiso   1.00
O55    O     0.12687   0.20646   0.33749   0.00000  Uiso   1.00
O56    O     0.21088   0.17493   0.15877   0.00000  Uiso   1.00
O57    O     0.17198   0.16135   0.33749   0.00000  Uiso   1.00
O58    O     0.17849   0.08101   0.27820   0.00000  Uiso   1.00
O59    O     0.14581   0.26136   0.26767   0.00000  Uiso   1.00
O60    O     0.07452   0.13251   0.23607   0.00000  Uiso   1.00
O61    O     0.26785   0.19179   0.21805   0.00000  Uiso   1.00
O62    O     0.06990   0.18960   0.27820   0.00000  Uiso   1.00
O63    O     0.25440   0.15277   0.26767   0.00000  Uiso   1.00
O64    O     0.13800   0.06903   0.23607   0.00000  Uiso   1.00
O65    O     0.20437   0.25527   0.21805   0.00000  Uiso   1.00
Zn66   Zn    0.19244   0.14090   0.28277   0.00000  Uiso   1.00
Zn67   Zn    0.13459   0.12378   0.22257   0.00000  Uiso   1.00
Zn68   Zn    0.21166   0.19664   0.21188   0.00000  Uiso   1.00
Zn69   Zn    0.12798   0.20535   0.28277   0.00000  Uiso   1.00
C70    C     0.38581   0.16001   0.25863   0.00000  Uiso   1.00
C71    C     0.52853   0.12893   0.46094   0.00000  Uiso   1.00
C72    C     0.54832   0.10872   0.48103   0.00000  Uiso   1.00
C73    C     0.61432   0.17363   0.24122   0.00000  Uiso   1.00
C74    C     0.54180   0.11850   0.02124   0.00000  Uiso   1.00
C75    C     0.51421   0.14911   0.04232   0.00000  Uiso   1.00
C76    C     0.56249   0.09749   0.04065   0.00000  Uiso   1.00
C77    C     0.55616   0.10636   0.08094   0.00000  Uiso   1.00
C78    C     0.50901   0.15793   0.08307   0.00000  Uiso   1.00
C79    C     0.66038   0.17639   0.23771   0.00000  Uiso   1.00
C80    C     0.34040   0.15769   0.26197   0.00000  Uiso   1.00
C81    C     0.43979   0.22409   0.42060   0.00000  Uiso   1.00
C82    C     0.51398   0.32240   0.24051   0.00000  Uiso   1.00
C83    C     0.48244   0.01239   0.26168   0.00000  Uiso   1.00
C84    C     0.48935   0.05623   0.25843   0.00000  Uiso   1.00
C85    C     0.50990   0.27761   0.24159   0.00000  Uiso   1.00
C86    C     0.52148   0.14512   0.14416   0.00000  Uiso   1.00
C87    C     0.47879   0.18790   0.35609   0.00000  Uiso   1.00
C88    C     0.46937   0.19634   0.39905   0.00000  Uiso   1.00
C89    C     0.52952   0.13657   0.10195   0.00000  Uiso   1.00
C90    C     0.43131   0.23130   0.46126   0.00000  Uiso   1.00
C91    C     0.43770   0.32883   0.28193   0.00000  Uiso   1.00
C92    C     0.49019   0.17587   0.41861   0.00000  Uiso   1.00
C93    C     0.42162   0.00417   0.32278   0.00000  Uiso   1.00
C94    C     0.37953   0.32161   0.34194   0.00000  Uiso   1.00
C95    C     0.35316   0.29735   0.32041   0.00000  Uiso   1.00
C96    C     0.36873   0.28913   0.27964   0.00000  Uiso   1.00
C97    C     0.41078   0.30496   0.26037   0.00000  Uiso   1.00
C98    C     0.48137   0.18168   0.45979   0.00000  Uiso   1.00
C99    C     0.45189   0.21050   0.48096   0.00000  Uiso   1.00
C100   C     0.50125   0.16011   0.48040   0.00000  Uiso   1.00
C101   C     0.49303   0.16957   0.02194   0.00000  Uiso   1.00
C102   C     0.46349   0.19872   0.04171   0.00000  Uiso   1.00
C103   C     0.44320   0.21844   0.02156   0.00000  Uiso   1.00
H104   H     0.42062   0.24036   0.03797   0.00000  Uiso   1.00
H105   H     0.42334   0.24032   0.40606   0.00000  Uiso   1.00
H106   H     0.51370   0.15599   0.40074   0.00000  Uiso   1.00
H107   H     0.45459   0.20674   0.07302   0.00000  Uiso   1.00
H108   H     0.53486   0.11849   0.43008   0.00000  Uiso   1.00
H109   H     0.44179   0.02287   0.33976   0.00000  Uiso   1.00
H110   H     0.36736   0.32809   0.37348   0.00000  Uiso   1.00
H111   H     0.65395   0.28503   0.33529   0.00000  Uiso   1.00
H112   H     0.34821   0.27052   0.26299   0.00000  Uiso   1.00
H113   H     0.42252   0.29845   0.22877   0.00000  Uiso   1.00
H114   H     0.58338   0.07399   0.02466   0.00000  Uiso   1.00
H115   H     0.35016   0.19365   0.21532   0.00000  Uiso   1.00
H116   H     0.65129   0.14037   0.28463   0.00000  Uiso   1.00
H117   H     0.54420   0.00382   0.22282   0.00000  Uiso   1.00
H118   H     0.48933   0.18111   0.10124   0.00000  Uiso   1.00
H119   H     0.57190   0.08966   0.09574   0.00000  Uiso   1.00
H120   H     0.56892   0.08504   0.46484   0.00000  Uiso   1.00
H121   H     0.40857   0.25317   0.47738   0.00000  Uiso   1.00
O122   O     0.50000   0.16667   0.25000   0.00000  Uiso   1.00
O123   O     0.49027   0.12393   0.16625   0.00000  Uiso   1.00
O124   O     0.46020   0.20646   0.33749   0.00000  Uiso   1.00
O125   O     0.54421   0.17493   0.15877   0.00000  Uiso   1.00
O126   O     0.50532   0.16135   0.33749   0.00000  Uiso   1.00
O127   O     0.51182   0.08101   0.27820   0.00000  Uiso   1.00
O128   O     0.47914   0.26136   0.26767   0.00000  Uiso   1.00
O129   O     0.40785   0.13251   0.23607   0.00000  Uiso   1.00
O130   O     0.60119   0.19179   0.21805   0.00000  Uiso   1.00
O131   O     0.40323   0.18960   0.27820   0.00000  Uiso   1.00
O132   O     0.58773   0.15277   0.26767   0.00000  Uiso   1.00
O133   O     0.47133   0.06903   0.23607   0.00000  Uiso   1.00
O134   O     0.53771   0.25527   0.21805   0.00000  Uiso   1.00
Zn135  Zn    0.52577   0.14090   0.28277   0.00000  Uiso   1.00
Zn136  Zn    0.46792   0.12378   0.22257   0.00000  Uiso   1.00
Zn137  Zn    0.54500   0.19664   0.21188   0.00000  Uiso   1.00
Zn138  Zn    0.46131   0.20535   0.28277   0.00000  Uiso   1.00
C139   C     0.71914   0.16001   0.25863   0.00000  Uiso   1.00
C140   C     0.86186   0.12893   0.46094   0.00000  Uiso   1.00
C141   C     0.88165   0.10872   0.48103   0.00000  Uiso   1.00
C142   C     0.94765   0.17363   0.24122   0.00000  Uiso   1.00
C143   C     0.87513   0.11850   0.02124   0.00000  Uiso   1.00
C144   C     0.84754   0.14911   0.04232   0.00000  Uiso   1.00
C145   C     0.89583   0.09749   0.04065   0.00000  Uiso   1.00
C146   C     0.88949   0.10636   0.08094   0.00000  Uiso   1.00
C147   C     0.84235   0.15793   0.08307   0.00000  Uiso   1.00
C148   C     0.99371   0.17639   0.23771   0.00000  Uiso   1.00
C149   C     0.67374   0.15769   0.26197   0.00000  Uiso   1.00
C150   C     0.77312   0.22409   0.42060   0.00000  Uiso   1.00
C151   C     0.84731   0.32240   0.24051   0.00000  Uiso   1.00
C152   C     0.81578   0.01239   0.26168   0.00000  Uiso   1.00
C153   C     0.82268   0.05623   0.25843   0.00000  Uiso   1.00
C154   C     0.84323   0.27761   0.24159   0.00000  Uiso   1.00
C155   C     0.85481   0.14512   0.14416   0.00000  Uiso   1.00
C156   C     0.81213   0.18790   0.35609   0.00000  Uiso   1.00
C157   C     0.80270   0.19634   0.39905   0.00000  Uiso   1.00
C158   C     0.86285   0.13657   0.10195   0.00000  Uiso   1.00
C159   C     0.76464   0.23130   0.46126   0.00000  Uiso   1.00
C160   C     0.77103   0.32883   0.28193   0.00000  Uiso   1.00
C161   C     0.82353   0.17587   0.41861   0.00000  Uiso   1.00
C162   C     0.75495   0.00417   0.32278   0.00000  Uiso   1.00
C163   C     0.71286   0.32161   0.34194   0.00000  Uiso   1.00
C164   C     0.68649   0.29735   0.32041   0.00000  Uiso   1.00
C165   C     0.70206   0.28913   0.27964   0.00000  Uiso   1.00
C166   C     0.74411   0.30496   0.26037   0.00000  Uiso   1.00
C167   C     0.81471   0.18168   0.45979   0.00000  Uiso   1.00
C168   C     0.78522   0.21050   0.48096   0.00000  Uiso   1.00
C169   C     0.83459   0.16011   0.48040   0.00000  Uiso   1.00
C170   C     0.82636   0.16957   0.02194   0.00000  Uiso   1.00
C171   C     0.79682   0.19872   0.04171   0.00000  Uiso   1.00
C172   C     0.77653   0.21844   0.02156   0.00000  Uiso   1.00
H173   H     0.75395   0.24036   0.03797   0.00000  Uiso   1.00
H174   H     0.75667   0.24032   0.40606   0.00000  Uiso   1.00
H175   H     0.84703   0.15599   0.40074   0.00000  Uiso   1.00
H176   H     0.78792   0.20674   0.07302   0.00000  Uiso   1.00
H177   H     0.86819   0.11849   0.43008   0.00000  Uiso   1.00
H178   H     0.77513   0.02287   0.33976   0.00000  Uiso   1.00
H179   H     0.70069   0.32809   0.37348   0.00000  Uiso   1.00
H180   H     0.98728   0.28503   0.33529   0.00000  Uiso   1.00
H181   H     0.68154   0.27052   0.26299   0.00000  Uiso   1.00
H182   H     0.75585   0.29845   0.22877   0.00000  Uiso   1.00
H183   H     0.91672   0.07399   0.02466   0.00000  Uiso   1.00
H184   H     0.68349   0.19365   0.21532   0.00000  Uiso   1.00
H185   H     0.98463   0.14037   0.28463   0.00000  Uiso   1.00
H186   H     0.87753   0.00382   0.22282   0.00000  Uiso   1.00
H187   H     0.82266   0.18111   0.10124   0.00000  Uiso   1.00
H188   H     0.90523   0.08966   0.09574   0.00000  Uiso   1.00
H189   H     0.90225   0.08504   0.46484   0.00000  Uiso   1.00
H190   H     0.74190   0.25317   0.47738   0.00000  Uiso   1.00
O191   O     0.83333   0.16667   0.25000   0.00000  Uiso   1.00
O192   O     0.82360   0.12393   0.16625   0.00000  Uiso   1.00
O193   O     0.79354   0.20646   0.33749   0.00000  Uiso   1.00
O194   O     0.87755   0.17493   0.15877   0.00000  Uiso   1.00
O195   O     0.83865   0.16135   0.33749   0.00000  Uiso   1.00
O196   O     0.84515   0.08101   0.27820   0.00000  Uiso   1.00
O197   O     0.81247   0.26136   0.26767   0.00000  Uiso   1.00
O198   O     0.74119   0.13251   0.23607   0.00000  Uiso   1.00
O199   O     0.93452   0.19179   0.21805   0.00000  Uiso   1.00
O200   O     0.73656   0.18960   0.27820   0.00000  Uiso   1.00
O201   O     0.92106   0.15277   0.26767   0.00000  Uiso   1.00
O202   O     0.80467   0.06903   0.23607   0.00000  Uiso   1.00
O203   O     0.87104   0.25527   0.21805   0.00000  Uiso   1.00
Zn204  Zn    0.85910   0.14090   0.28277   0.00000  Uiso   1.00
Zn205  Zn    0.80125   0.12378   0.22257   0.00000  Uiso   1.00
Zn206  Zn    0.87833   0.19664   0.21188   0.00000  Uiso   1.00
Zn207  Zn    0.79465   0.20535   0.28277   0.00000  Uiso   1.00
C208   C     0.05247   0.49334   0.25863   0.00000  Uiso   1.00
C209   C     0.19520   0.46227   0.46094   0.00000  Uiso   1.00
C210   C     0.21498   0.44205   0.48103   0.00000  Uiso   1.00
C211   C     0.28099   0.50696   0.24122   0.00000  Uiso   1.00
C212   C     0.20846   0.45183   0.02124   0.00000  Uiso   1.00
C213   C     0.18088   0.48244   0.04232   0.00000  Uiso   1.00
C214   C     0.22916   0.43082   0.04065   0.00000  Uiso   1.00
C215   C     0.22283   0.43970   0.08094   0.00000  Uiso   1.00
C216   C     0.17568   0.49127   0.08307   0.00000  Uiso   1.00
C217   C     0.32704   0.50972   0.23771   0.00000  Uiso   1.00
C218   C     0.00707   0.49103   0.26197   0.00000  Uiso   1.00
C219   C     0.10645   0.55742   0.42060   0.00000  Uiso   1.00
C220   C     0.18065   0.65574   0.24051   0.00000  Uiso   1.00
C221   C     0.14911   0.34573   0.26168   0.00000  Uiso   1.00
C222   C     0.15601   0.38956   0.25843   0.00000  Uiso   1.00
C223   C     0.17657   0.61095   0.24159   0.00000  Uiso   1.00
C224   C     0.18815   0.47845   0.14416   0.00000  Uiso   1.00
C225   C     0.14546   0.52123   0.35609   0.00000  Uiso   1.00
C226   C     0.13604   0.52967   0.39905   0.00000  Uiso   1.00
C227   C     0.19618   0.46990   0.10195   0.00000  Uiso   1.00
C228   C     0.09798   0.56463   0.46126   0.00000  Uiso   1.00
C229   C     0.10436   0.66216   0.28193   0.00000  Uiso   1.00
C230   C     0.15686   0.50920   0.41861   0.00000  Uiso   1.00
C231   C     0.08828   0.33750   0.32278   0.00000  Uiso   1.00
C232   C     0.04619   0.65494   0.34194   0.00000  Uiso   1.00
C233   C     0.01982   0.63068   0.32041   0.00000  Uiso   1.00
C234   C     0.03539   0.62247   0.27964   0.00000  Uiso   1.00
C235   C     0.07744   0.63830   0.26037   0.00000  Uiso   1.00
C236   C     0.14804   0.51502   0.45979   0.00000  Uiso   1.00
C237   C     0.11855   0.54383   0.48096   0.00000  Uiso   1.00
C238   C     0.16792   0.49345   0.48040   0.00000  Uiso   1.00
C239   C     0.15969   0.50291   0.02194   0.00000  Uiso   1.00
C240   C     0.13015   0.53205   0.04171   0.00000  Uiso   1.00
C241   C     0.10987   0.55178   0.02156   0.00000  Uiso   1.00
H242   H     0.08728   0.57369   0.03797   0.00000  Uiso   1.00
H243   H     0.09000   0.57365   0.40606   0.00000  Uiso   1.00
H244   H     0.18037   0.48933   0.40074   0.00000  Uiso   1.00
H245   H     0.12126   0.54007   0.07302   0.00000  Uiso   1.00
H246   H     0.20153   0.45182   0.43008   0.00000  Uiso   1.00
H247   H     0.10846   0.35621   0.33976   0.00000  Uiso   1.00
H248   H     0.03402   0.66142   0.37348   0.00000  Uiso   1.00
H249   H     0.32062   0.61836   0.33529   0.00000  Uiso   1.00
H250   H     0.01488   0.60386   0.26299   0.00000  Uiso   1.00
H251   H     0.08918   0.63178   0.22877   0.00000  Uiso   1.00
H252   H     0.25005   0.40732   0.02466   0.00000  Uiso   1.00
H253   H     0.01683   0.52698   0.21532   0.00000  Uiso   1.00
H254   H     0.31796   0.47371   0.28463   0.00000  Uiso   1.00
H255   H     0.21086   0.33716   0.22282   0.00000  Uiso   1.00
H256   H     0.15599   0.51444   0.10124   0.00000  Uiso   1.00
H257   H     0.23856   0.42300   0.09574   0.00000  Uiso   1.00
H258   H     0.23558   0.41837   0.46484   0.00000  Uiso   1.00
H259   H     0.07523   0.58650   0.47738   0.00000  Uiso   1.00
O260   O     0.16667   0.50000   0.25000   0.00000  Uiso   1.00
O261   O     0.15693   0.45726   0.16625   0.00000  Uiso   1.00
O262   O     0.12687   0.53979   0.33749   0.00000  Uiso   1.00
O263   O     0.21088   0.50826   0.15877   0.00000  Uiso   1.00
O264   O     0.17198   0.49468   0.33749   0.00000  Uiso   1.00
O265   O     0.17849   0.41434   0.27820   0.00000  Uiso   1.00
O266   O     0.14581   0.59469   0.26767   0.00000  Uiso   1.00
O267   O     0.07452   0.46584   0.23607   0.00000  Uiso   1.00
O268   O     0.26785   0.52512   0.21805   0.00000  Uiso   1.00
O269   O     0.06990   0.52293   0.27820   0.00000  Uiso   1.00
O270   O     0.25440   0.48610   0.26767   0.00000  Uiso   1.00
O271   O     0.13800   0.40236   0.23607   0.00000  Uiso   1.00
O272   O     0.20437   0.58860   0.21805   0.00000  Uiso   1.00
Zn273  Zn    0.19244   0.47423   0.28277   0.00000  Uiso   1.00
Zn274  Zn    0.13459   0.45711   0.22257   0.00000  Uiso   1.00
Zn275  Zn    0.21166   0.52997   0.21188   0.00000  Uiso   1.00
Zn276  Zn    0.12798   0.53868   0.28277   0.00000  Uiso   1.00
C277   C     0.38581   0.49334   0.25863   0.00000  Uiso   1.00
C278   C     0.52853   0.46227   0.46094   0.00000  Uiso   1.00
C279   C     0.54832   0.44205   0.48103   0.00000  Uiso   1.00
C280   C     0.61432   0.50696   0.24122   0.00000  Uiso   1.00
C281   C     0.54180   0.45183   0.02124   0.00000  Uiso   1.00
C282   C     0.51421   0.48244   0.04232   0.00000  Uiso   1.00
C283   C     0.56249   0.43082   0.04065   0.00000  Uiso   1.00
C284   C     0.55616   0.43970   0.08094   0.00000  Uiso   1.00
C285   C     0.50901   0.49127   0.08307   0.00000  Uiso   1.00
C286   C     0.66038   0.50972   0.23771   0.00000  Uiso   1.00
C287   C     0.34040   0.49103   0.26197   0.00000  Uiso   1.00
C288   C     0.43979   0.55742   0.42060   0.00000  Uiso   1.00
C289   C     0.51398   0.65574   0.24051   0.00000  Uiso   1.00
C290   C     0.48244   0.34573   0.26168   0.00000  Uiso   1.00
C291   C     0.48935   0.38956   0.25843   0.00000  Uiso   1.00
C292   C     0.50990   0.61095   0.24159   0.00000  Uiso   1.00
C293   C     0.52148   0.47845   0.14416   0.00000  Uiso   1.00
C294   C     0.47879   0.52123   0.35609   0.00000  Uiso   1.00
C295   C     0.46937   0.52967   0.39905   0.00000  Uiso   1.00
C296   C     0.52952   0.46990   0.10195   0.00000  Uiso   1.00
C297   C     0.43131   0.56463   0.46126   0.00000  Uiso   1.00
C298   C     0.43770   0.66216   0.28193   0.00000  Uiso   1.00
C299   C     0.49019   0.50920   0.41861   0.00000  Uiso   1.00
C300   C     0.42162   0.33750   0.32278   0.00000  Uiso   1.00
C301   C     0.37953   0.65494   0.34194   0.00000  Uiso   1.00
C302   C     0.35316   0.63068   0.32041   0.00000  Uiso   1.00
C303   C     0.36873   0.62247   0.27964   0.00000  Uiso   1.00
C304   C     0.41078   0.63830   0.26037   0.00000  Uiso   1.00
C305   C     0.48137   0.51502   0.45979   0.00000  Uiso   1.00
C306   C     0.45189   0.54383   0.48096   0.00000  Uiso   1.00
C307   C     0.50125   0.49345   0.48040   0.00000  Uiso   1.00
C308   C     0.49303   0.50291   0.02194   0.00000  Uiso   1.00
C309   C     0.46349   0.53205   0.04171   0.00000  Uiso   1.00
C310   C     0.44320   0.55178   0.02156   0.00000  Uiso   1.00
H311   H     0.42062   0.57369   0.03797   0.00000  Uiso   1.00
H312   H     0.42334   0.57365   0.40606   0.00000  Uiso   1.00
H313   H     0.51370   0.48933   0.40074   0.00000  Uiso   1.00
H314   H     0.45459   0.54007   0.07302   0.00000  Uiso   1.00
H315   H     0.53486   0.45182   0.43008   0.00000  Uiso   1.00
H316   H     0.44179   0.35621   0.33976   0.00000  Uiso   1.00
H317   H     0.36736   0.66142   0.37348   0.00000  Uiso   1.00
H318   H     0.65395   0.61836   0.33529   0.00000  Uiso   1.00
H319   H     0.34821   0.60386   0.26299   0.00000  Uiso   1.00
H320   H     0.42252   0.63178   0.22877   0.00000  Uiso   1.00
H321   H     0.58338   0.40732   0.02466   0.00000  Uiso   1.00
H322   H     0.35016   0.52698   0.21532   0.00000  Uiso   1.00
H323   H     0.65129   0.47371   0.28463   0.00000  Uiso   1.00
H324   H     0.54420   0.33716   0.22282   0.00000  Uiso   1.00
H325   H     0.48933   0.51444   0.10124   0.00000  Uiso   1.00
H326   H     0.57190   0.42300   0.09574   0.00000  Uiso   1.00
H327   H     0.56892   0.41837   0.46484   0.00000  Uiso   1.00
H328   H     0.40857   0.58650   0.47738   0.00000  Uiso   1.00
O329   O     0.50000   0.50000   0.25000   0.00000  Uiso   1.00
O330   O     0.49027   0.45726   0.16625   0.00000  Uiso   1.00
O331   O     0.46020   0.53979   0.33749   0.00000  Uiso   1.00
O332   O     0.54421   0.50826   0.15877   0.00000  Uiso   1.00
O333   O     0.50532   0.49468   0.33749   0.00000  Uiso   1.00
O334   O     0.51182   0.41434   0.27820   0.00000  Uiso   1.00
O335   O     0.47914   0.59469   0.26767   0.00000  Uiso   1.00
O336   O     0.40785   0.46584   0.23607   0.00000  Uiso   1.00
O337   O     0.60119   0.52512   0.21805   0.00000  Uiso   1.00
O338   O     0.40323   0.52293   0.27820   0.00000  Uiso   1.00
O339   O     0.58773   0.48610   0.26767   0.00000  Uiso   1.00
O340   O     0.47133   0.40236   0.23607   0.00000  Uiso   1.00
O341   O     0.53771   0.58860   0.21805   0.00000  Uiso   1.00
Zn342  Zn    0.52577   0.47423   0.28277   0.00000  Uiso   1.00
Zn343  Zn    0.46792   0.45711   0.22257   0.00000  Uiso   1.00
Zn344  Zn    0.54500   0.52997   0.21188   0.00000  Uiso   1.00
Zn345  Zn    0.46131   0.53868   0.28277   0.00000  Uiso   1.00
C346   C     0.71914   0.49334   0.25863   0.00000  Uiso   1.00
C347   C     0.86186   0.46227   0.46094   0.00000  Uiso   1.00
C348   C     0.88165   0.44205   0.48103   0.00000  Uiso   1.00
C349   C     0.94765   0.50696   0.24122   0.00000  Uiso   1.00
C350   C     0.87513   0.45183   0.02124   0.00000  Uiso   1.00
C351   C     0.84754   0.48244   0.04232   0.00000  Uiso   1.00
C352   C     0.89583   0.43082   0.04065   0.00000  Uiso   1.00
C353   C     0.88949   0.43970   0.08094   0.00000  Uiso   1.00
C354   C     0.84235   0.49127   0.08307   0.00000  Uiso   1.00
C355   C     0.99371   0.50972   0.23771   0.00000  Uiso   1.00
C356   C     0.67374   0.49103   0.26197   0.00000  Uiso   1.00
C357   C     0.77312   0.55742   0.42060   0.00000  Uiso   1.00
C358   C     0.84731   0.65574   0.24051   0.00000  Uiso   1.00
C359   C     0.81578   0.34573   0.26168   0.00000  Uiso   1.00
C360   C     0.82268   0.38956   0.25843   0.00000  Uiso   1.00
C361   C     0.84323   0.61095   0.24159   0.00000  Uiso   1.00
C362   C     0.85481   0.47845   0.14416   0.00000  Uiso   1.00
C363   C     0.81213   0.52123   0.35609   0.00000  Uiso   1.00
C364   C     0.80270   0.52967   0.39905   0.00000  Uiso   1.00
C365   C     0.86285   0.46990   0.10195   0.00000  Uiso   1.00
C366   C     0.76464   0.56463   0.46126   0.00000  Uiso   1.00
C367   C     0.77103   0.66216   0.28193   0.00000  Uiso   1.00
C368   C     0.82353   0.50920   0.41861   0.00000  Uiso   1.00
C369   C     0.75495   0.33750   0.32278   0.00000  Uiso   1.00
C370   C     0.71286   0.65494   0.34194   0.00000  Uiso   1.00
C371   C     0.68649   0.63068   0.32041   0.00000  Uiso   1.00
C372   C     0.70206   0.62247   0.27964   0.00000  Uiso   1.00
C373   C     0.74411   0.63830   0.26037   0.00000  Uiso   1.00
C374   C     0.81471   0.51502   0.45979   0.00000  Uiso   1.00
C375   C     0.78522   0.54383   0.48096   0.00000  Uiso   1.00
C376   C     0.83459   0.49345   0.48040   0.00000  Uiso   1.00
C377   C     0.82636   0.50291   0.02194   0.00000  Uiso   1.00
C378   C     0.79682   0.53205   0.04171   0.00000  Uiso   1.00
C379   C     0.77653   0.55178   0.02156   0.00000  Uiso   1.00
H380   H     0.75395   0.57369   0.03797   0.00000  Uiso   1.00
H381   H     0.75667   0.57365   0.40606   0.00000  Uiso   1.00
H382   H     0.84703   0.48933   0.40074   0.00000  Uiso   1.00
H383   H     0.78792   0.54007   0.07302   0.00000  Uiso   1.00
H384   H     0.86819   0.45182   0.43008   0.00000  Uiso   1.00
H385   H     0.77513   0.35621   0.33976   0.00000  Uiso   1.00
H386   H     0.70069   0.66142   0.37348   0.00000  Uiso   1.00
H387   H     0.98728   0.61836   0.33529   0.00000  Uiso   1.00
H388   H     0.68154   0.60386   0.26299   0.00000  Uiso   1.00
H389   H     0.75585   0.63178   0.22877   0.00000  Uiso   1.00
H390   H     0.91672   0.40732   0.02466   0.00000  Uiso   1.00
H391   H     0.68349   0.52698   0.21532   0.00000  Uiso   1.00
H392   H     0.98463   0.47371   0.28463   0.00000  Uiso   1.00
H393   H     0.87753   0.33716   0.22282   0.00000  Uiso   1.00
H394   H     0.82266   0.51444   0.10124   0.00000  Uiso   1.00
H395   H     0.90523   0.42300   0.09574   0.00000  Uiso   1.00
H396   H     0.90225   0.41837   0.46484   0.00000  Uiso   1.00
H397   H     0.74190   0.58650   0.47738   0.00000  Uiso   1.00
O398   O     0.83333   0.50000   0.25000   0.00000  Uiso   1.00
O399   O     0.82360   0.45726   0.16625   0.00000  Uiso   1.00
O400   O     0.79354   0.53979   0.33749   0.00000  Uiso   1.00
O401   O     0.87755   0.50826   0.15877   0.00000  Uiso   1.00
O402   O     0.83865   0.49468   0.33749   0.00000  Uiso   1.00
O403   O     0.84515   0.41434   0.27820   0.00000  Uiso   1.00
O404   O     0.81247   0.59469   0.26767   0.00000  Uiso   1.00
O405   O     0.74119   0.46584   0.23607   0.00000  Uiso   1.00
O406   O     0.93452   0.52512   0.21805   0.00000  Uiso   1.00
O407   O     0.73656   0.52293   0.27820   0.00000  Uiso   1.00
O408   O     0.92106   0.48610   0.26767   0.00000  Uiso   1.00
O409   O     0.80467   0.40236   0.23607   0.00000  Uiso   1.00
O410   O     0.87104   0.58860   0.21805   0.00000  Uiso   1.00
Zn411  Zn    0.85910   0.47423   0.28277   0.00000  Uiso   1.00
Zn412  Zn    0.80125   0.45711   0.22257   0.00000  Uiso   1.00
Zn413  Zn    0.87833   0.52997   0.21188   0.00000  Uiso   1.00
Zn414  Zn    0.79465   0.53868   0.28277   0.00000  Uiso   1.00
C415   C     0.05247   0.82667   0.25863   0.00000  Uiso   1.00
C416   C     0.19520   0.79560   0.46094   0.00000  Uiso   1.00
C417   C     0.21498   0.77538   0.48103   0.00000  Uiso   1.00
C418   C     0.28099   0.84029   0.24122   0.00000  Uiso   1.00
C419   C     0.20846   0.78517   0.02124   0.00000  Uiso   1.00
C420   C     0.18088   0.81578   0.04232   0.00000  Uiso   1.00
C421   C     0.22916   0.76416   0.04065   0.00000  Uiso   1.00
C422   C     0.22283   0.77303   0.08094   0.00000  Uiso   1.00
C423   C     0.17568   0.82460   0.08307   0.00000  Uiso   1.00
C424   C     0.32704   0.84305   0.23771   0.00000  Uiso   1.00
C425   C     0.00707   0.82436   0.26197   0.00000  Uiso   1.00
C426   C     0.10645   0.89075   0.42060   0.00000  Uiso   1.00
C427   C     0.18065   0.98907   0.24051   0.00000  Uiso   1.00
C428   C     0.14911   0.67906   0.26168   0.00000  Uiso   1.00
C429   C     0.15601   0.72289   0.25843   0.00000  Uiso   1.00
C430   C     0.17657   0.94428   0.24159   0.00000  Uiso   1.00
C431   C     0.18815   0.81178   0.14416   0.00000  Uiso   1.00
C432   C     0.14546   0.85456   0.35609   0.00000  Uiso   1.00
C433   C     0.13604   0.86301   0.39905   0.00000  Uiso   1.00
C434   C     0.19618   0.80324   0.10195   0.00000  Uiso   1.00
C435   C     0.09798   0.89797   0.46126   0.00000  Uiso   1.00
C436   C     0.10436   0.99549   0.28193   0.00000  Uiso   1.00
C437   C     0.15686   0.84254   0.41861   0.00000  Uiso   1.00
C438   C     0.08828   0.67084   0.32278   0.00000  Uiso   1.00
C439   C     0.04619   0.98828   0.34194   0.00000  Uiso   1.00
C440   C     0.01982   0.96402   0.32041   0.00000  Uiso   1.00
C441   C     0.03539   0.95580   0.27964   0.00000  Uiso   1.00
C442   C     0.07744   0.97163   0.26037   0.00000  Uiso   1.00
C443   C     0.14804   0.84835   0.45979   0.00000  Uiso   1.00
C444   C     0.11855   0.87717   0.48096   0.00000  Uiso   1.00
C445   C     0.16792   0.82678   0.48040   0.00000  Uiso   1.00
C446   C     0.15969   0.83624   0.02194   0.00000  Uiso   1.00
C447   C     0.13015   0.86538   0.04171   0.00000  Uiso   1.00
C448   C     0.10987   0.88511   0.02156   0.00000  Uiso   1.00
H449   H     0.08728   0.90702   0.03797   0.00000  Uiso   1.00
H450   H     0.09000   0.90699   0.40606   0.00000  Uiso   1.00
H451   H     0.18037   0.82266   0.40074   0.00000  Uiso   1.00
H452   H     0.12126   0.87340   0.07302   0.00000  Uiso   1.00
H453   H     0.20153   0.78516   0.43008   0.00000  Uiso   1.00
H454   H     0.10846   0.68954   0.33976   0.00000  Uiso   1.00
H455   H     0.03402   0.99475   0.37348   0.00000  Uiso   1.00
H456   H     0.32062   0.95170   0.33529   0.00000  Uiso   1.00
H457   H     0.01488   0.93719   0.26299   0.00000  Uiso   1.00
H458   H     0.08918   0.96512   0.22877   0.00000  Uiso   1.00
H459   H     0.25005   0.74066   0.02466   0.00000  Uiso   1.00
H460   H     0.01683   0.86031   0.21532   0.00000  Uiso   1.00
H461   H     0.31796   0.80704   0.28463   0.00000  Uiso   1.00
H462   H     0.21086   0.67049   0.22282   0.00000  Uiso   1.00
H463   H     0.15599   0.84777   0.10124   0.00000  Uiso   1.00
H464   H     0.23856   0.75633   0.09574   0.00000  Uiso   1.00
H465   H     0.23558   0.75170   0.46484   0.00000  Uiso   1.00
H466   H     0.07523   0.91984   0.47738   0.00000  Uiso   1.00
O467   O     0.16667   0.83333   0.25000   0.00000  Uiso   1.00
O468   O     0.15693   0.79060   0.16625   0.00000  Uiso   1.00
O469   O     0.12687   0.87313   0.33749   0.00000  Uiso   1.00
O470   O     0.21088   0.84159   0.15877   0.00000  Uiso   1.00
O471   O     0.17198   0.82802   0.33749   0.00000  Uiso   1.00
O472   O     0.17849   0.74768   0.27820   0.00000  Uiso   1.00
O473   O     0.14581   0.92803   0.26767   0.00000  Uiso   1.00
O474   O     0.07452   0.79917   0.23607   0.00000  Uiso   1.00
O475   O     0.26785   0.85845   0.21805   0.00000  Uiso   1.00
O476   O     0.06990   0.85627   0.27820   0.00000  Uiso   1.00
O477   O     0.25440   0.81944   0.26767   0.00000  Uiso   1.00
O478   O     0.13800   0.73570   0.23607   0.00000  Uiso   1.00
O479   O     0.20437   0.92193   0.21805   0.00000  Uiso   1.00
Zn480  Zn    0.19244   0.80756   0.28277   0.00000  Uiso   1.00
Zn481  Zn    0.13459   0.79044   0.22257   0.00000  Uiso   1.00
Zn482  Zn    0.21166   0.86331   0.21188   0.00000  Uiso   1.00
Zn483  Zn    0.12798   0.87202   0.28277   0.00000  Uiso   1.00
C484   C     0.38581   0.82667   0.25863   0.00000  Uiso   1.00
C485   C     0.52853   0.79560   0.46094   0.00000  Uiso   1.00
C486   C     0.54832   0.77538   0.48103   0.00000  Uiso   1.00
C487   C     0.61432   0.84029   0.24122   0.00000  Uiso   1.00
C488   C     0.54180   0.78517   0.02124   0.00000  Uiso   1.00
C489   C     0.51421   0.81578   0.04232   0.00000  Uiso   1.00
C490   C     0.56249   0.76416   0.04065   0.00000  Uiso   1.00
C491   C     0.55616   0.77303   0.08094   0.00000  Uiso   1.00
C492   C     0.50901   0.82460   0.08307   0.00000  Uiso   1.00
C493   C     0.66038   0.84305   0.23771   0.00000  Uiso   1.00
C494   C     0.34040   0.82436   0.26197   0.00000  Uiso   1.00
C495   C     0.43979   0.89075   0.42060   0.00000  Uiso   1.00
C496   C     0.51398   0.98907   0.24051   0.00000  Uiso   1.00
C497   C     0.48244   0.67906   0.26168   0.00000  Uiso   1.00
C498   C     0.48935   0.72289   0.25843   0.00000  Uiso   1.00
C499   C     0.50990   0.94428   0.24159   0.00000  Uiso   1.00
C500   C     0.52148   0.81178   0.14416   0.00000  Uiso   1.00
C501   C     0.47879   0.85456   0.35609   0.00000  Uiso   1.00
C502   C     0.46937   0.86301   0.39905   0.00000  Uiso   1.00
C503   C     0.52952   0.80324   0.10195   0.00000  Uiso   1.00
C504   C     0.43131   0.89797   0.46126   0.00000  Uiso   1.00
C505   C     0.43770   0.99549   0.28193   0.00000  Uiso   1.00
C506   C     0.49019   0.84254   0.41861   0.00000  Uiso   1.00
C507   C     0.42162   0.67084   0.32278   0.00000  Uiso   1.00
C508   C     0.37953   0.98828   0.34194   0.00000  Uiso   1.00
C509   C     0.35316   0.96402   0.32041   0.00000  Uiso   1.00
C510   C     0.36873   0.95580   0.27964   0.00000  Uiso   1.00
C511   C     0.41078   0.97163   0.26037   0.00000  Uiso   1.00
C512   C     0.48137   0.84835   0.45979   0.00000  Uiso   1.00
C513   C     0.45189   0.87717   0.48096   0.00000  Uiso   1.00
C514   C     0.50125   0.82678   0.48040   0.00000  Uiso   1.00
C515   C     0.49303   0.83624   0.02194   0.00000  Uiso   1.00
C516   C     0.46349   0.86538   0.04171   0.00000  Uiso   1.00
C517   C     0.44320   0.88511   0.02156   0.00000  Uiso   1.00
H518   H     0.42062   0.90702   0.03797   0.00000  Uiso   1.00
H519   H     0.42334   0.90699   0.40606   0.00000  Uiso   1.00
H520   H     0.51370   0.82266   0.40074   0.00000  Uiso   1.00
H521   H     0.45459   0.87340   0.07302   0.00000  Uiso   1.00
H522   H     0.53486   0.78516   0.43008   0.00000  Uiso   1.00
H523   H     0.44179   0.68954   0.33976   0.00000  Uiso   1.00
H524   H     0.36736   0.99475   0.37348   0.00000  Uiso   1.00
H525   H     0.65395   0.95170   0.33529   0.00000  Uiso   1.00
H526   H     0.34821   0.93719   0.26299   0.00000  Uiso   1.00
H527   H     0.42252   0.96512   0.22877   0.00000  Uiso   1.00
H528   H     0.58338   0.74066   0.02466   0.00000  Uiso   1.00
H529   H     0.35016   0.86031   0.21532   0.00000  Uiso   1.00
H530   H     0.65129   0.80704   0.28463   0.00000  Uiso   1.00
H531   H     0.54420   0.67049   0.22282   0.00000  Uiso   1.00
H532   H     0.48933   0.84777   0.10124   0.00000  Uiso   1.00
H533   H     0.57190   0.75633   0.09574   0.00000  Uiso   1.00
H534   H     0.56892   0.75170   0.46484   0.00000  Uiso   1.00
H535   H     0.40857   0.91984   0.47738   0.00000  Uiso   1.00
O536   O     0.50000   0.83333   0.25000   0.00000  Uiso   1.00
O537   O     0.49027   0.79060   0.16625   0.00000  Uiso   1.00
O538   O     0.46020   0.87313   0.33749   0.00000  Uiso   1.00
O539   O     0.54421   0.84159   0.15877   0.00000  Uiso   1.00
O540   O     0.50532   0.82802   0.33749   0.00000  Uiso   1.00
O541   O     0.51182   0.74768   0.27820   0.00000  Uiso   1.00
O542   O     0.47914   0.92803   0.26767   0.00000  Uiso   1.00
O543   O     0.40785   0.79917   0.23607   0.00000  Uiso   1.00
O544   O     0.60119   0.85845   0.21805   0.00000  Uiso   1.00
O545   O     0.40323   0.85627   0.27820   0.00000  Uiso   1.00
O546   O     0.58773   0.81944   0.26767   0.00000  Uiso   1.00
O547   O     0.47133   0.73570   0.23607   0.00000  Uiso   1.00
O548   O     0.53771   0.92193   0.21805   0.00000  Uiso   1.00
Zn549  Zn    0.52577   0.80756   0.28277   0.00000  Uiso   1.00
Zn550  Zn    0.46792   0.79044   0.22257   0.00000  Uiso   1.00
Zn551  Zn    0.54500   0.86331   0.21188   0.00000  Uiso   1.00
Zn552  Zn    0.46131   0.87202   0.28277   0.00000  Uiso   1.00
C553   C     0.71914   0.82667   0.25863   0.00000  Uiso   1.00
C554   C     0.86186   0.79560   0.46094   0.00000  Uiso   1.00
C555   C     0.88165   0.77538   0.48103   0.00000  Uiso   1.00
C556   C     0.94765   0.84029   0.24122   0.00000  Uiso   1.00
C557   C     0.87513   0.78517   0.02124   0.00000  Uiso   1.00
C558   C     0.84754   0.81578   0.04232   0.00000  Uiso   1.00
C559   C     0.89583   0.76416   0.04065   0.00000  Uiso   1.00
C560   C     0.88949   0.77303   0.08094   0.00000  Uiso   1.00
C561   C     0.84235   0.82460   0.08307   0.00000  Uiso   1.00
C562   C     0.99371   0.84305   0.23771   0.00000  Uiso   1.00
C563   C     0.67374   0.82436   0.26197   0.00000  Uiso   1.00
C564   C     0.77312   0.89075   0.42060   0.00000  Uiso   1.00
C565   C     0.84731   0.98907   0.24051   0.00000  Uiso   1.00
C566   C     0.81578   0.67906   0.26168   0.00000  Uiso   1.00
C567   C     0.82268   0.72289   0.25843   0.00000  Uiso   1.00
C568   C     0.84323   0.94428   0.24159   0.00000  Uiso   1.00
C569   C     0.85481   0.81178   0.14416   0.00000  Uiso   1.00
C570   C     0.81213   0.85456   0.35609   0.00000  Uiso   1.00
C571   C     0.80270   0.86301   0.39905   0.00000  Uiso   1.00
C572   C     0.86285   0.80324   0.10195   0.00000  Uiso   1.00
C573   C     0.76464   0.89797   0.46126   0.00000  Uiso   1.00
C574   C     0.77103   0.99549   0.28193   0.00000  Uiso   1.00
C575   C     0.82353   0.84254   0.41861   0.00000  Uiso   1.00
C576   C     0.75495   0.67084   0.32278   0.00000  Uiso   1.00
C577   C     0.71286   0.98828   0.34194   0.00000  Uiso   1.00
C578   C     0.68649   0.96402   0.32041   0.00000  Uiso   1.00
C579   C     0.70206   0.95580   0.27964   0.00000  Uiso   1.00
C580   C     0.74411   0.97163   0.26037   0.00000  Uiso   1.00
C581   C     0.81471   0.84835   0.45979   0.00000  Uiso   1.00
C582   C     0.78522   0.87717   0.48096   0.00000  Uiso   1.00
C583   C     0.83459   0.82678   0.48040   0.00000  Uiso   1.00
C584   C     0.82636   0.83624   0.02194   0.00000  Uiso   1.00
C585   C     0.79682   0.86538   0.04171   0.00000  Uiso   1.00
C586   C     0.77653   0.88511   0.02156   0.00000  Uiso   1.00
H587   H     0.75395   0.90702   0.03797   0.00000  Uiso   1.00
H588   H     0.75667   0.90699   0.40606   0.00000  Uiso   1.00
H589   H     0.84703   0.82266   0.40074   0.00000  Uiso   1.00
H590   H     0.78792   0.87340   0.07302   0.00000  Uiso   1.00
H591   H     0.86819   0.78516   0.43008   0.00000  Uiso   1.00
H592   H     0.77513   0.68954   0.33976   0.00000  Uiso   1.00
H593   H     0.70069   0.99475   0.37348   0.00000  Uiso   1.00
H594   H     0.98728   0.95170   0.33529   0.00000  Uiso   1.00
H595   H     0.68154   0.93719   0.26299   0.00000  Uiso   1.00
H596   H     0.75585   0.96512   0.22877   0.00000  Uiso   1.00
H597   H     0.91672   0.74066   0.02466   0.00000  Uiso   1.00
H598   H     0.68349   0.86031   0.21532   0.00000  Uiso   1.00
H599   H     0.98463   0.80704   0.28463   0.00000  Uiso   1.00
H600   H     0.87753   0.67049   0.22282   0.00000  Uiso   1.00
H601   H     0.82266   0.84777   0.10124   0.00000  Uiso   1.00
H602   H     0.90523   0.75633   0.09574   0.00000  Uiso   1.00
H603   H     0.90225   0.75170   0.46484   0.00000  Uiso   1.00
H604   H     0.74190   0.91984   0.47738   0.00000  Uiso   1.00
O605   O     0.83333   0.83333   0.25000   0.00000  Uiso   1.00
O606   O     0.82360   0.79060   0.16625   0.00000  Uiso   1.00
O607   O     0.79354   0.87313   0.33749   0.00000  Uiso   1.00
O608   O     0.87755   0.84159   0.15877   0.00000  Uiso   1.00
O609   O     0.83865   0.82802   0.33749   0.00000  Uiso   1.00
O610   O     0.84515   0.74768   0.27820   0.00000  Uiso   1.00
O611   O     0.81247   0.92803   0.26767   0.00000  Uiso   1.00
O612   O     0.74119   0.79917   0.23607   0.00000  Uiso   1.00
O613   O     0.93452   0.85845   0.21805   0.00000  Uiso   1.00
O614   O     0.73656   0.85627   0.27820   0.00000  Uiso   1.00
O615   O     0.92106   0.81944   0.26767   0.00000  Uiso   1.00
O616   O     0.80467   0.73570   0.23607   0.00000  Uiso   1.00
O617   O     0.87104   0.92193   0.21805   0.00000  Uiso   1.00
Zn618  Zn    0.85910   0.80756   0.28277   0.00000  Uiso   1.00
Zn619  Zn    0.80125   0.79044   0.22257   0.00000  Uiso   1.00
Zn620  Zn    0.87833   0.86331   0.21188   0.00000  Uiso   1.00
Zn621  Zn    0.79465   0.87202   0.28277   0.00000  Uiso   1.00
C622   C     0.05247   0.16001   0.75863   0.00000  Uiso   1.00
C623   C     0.19520   0.12893   0.96094   0.00000  Uiso   1.00
C624   C     0.21498   0.10872   0.98103   0.00000  Uiso   1.00
C625   C     0.28099   0.17363   0.74122   0.00000  Uiso   1.00
C626   C     0.20846   0.11850   0.52124   0.00000  Uiso   1.00
C627   C     0.18088   0.14911   0.54232   0.00000  Uiso   1.00
C628   C     0.22916   0.09749   0.54065   0.00000  Uiso   1.00
C629   C     0.22283   0.10636   0.58094   0.00000  Uiso   1.00
C630   C     0.17568   0.15793   0.58307   0.00000  Uiso   1.00
C631   C     0.32704   0.17639   0.73771   0.00000  Uiso   1.00
C632   C     0.00707   0.15769   0.76197   0.00000  Uiso   1.00
C633   C     0.10645   0.22409   0.92060   0.00000  Uiso   1.00
C634   C     0.18065   0.32240   0.74051   0.00000  Uiso   1.00
C635   C     0.14911   0.01239   0.76168   0.00000  Uiso   1.00
C636   C     0.15601   0.05623   0.75843   0.00000  Uiso   1.00
C637   C     0.17657   0.27761   0.74159   0.00000  Uiso   1.00
C638   C     0.18815   0.14512   0.64416   0.00000  Uiso   1.00
C639   C     0.14546   0.18790   0.85609   0.00000  Uiso   1.00
C640   C     0.13604   0.19634   0.89905   0.00000  Uiso   1.00
C641   C     0.19618   0.13657   0.60195   0.00000  Uiso   1.00
C642   C     0.09798   0.23130   0.96126   0.00000  Uiso   1.00
C643   C     0.10436   0.32883   0.78193   0.00000  Uiso   1.00
C644   C     0.15686   0.17587   0.91861   0.00000  Uiso   1.00
C645   C     0.08828   0.00417   0.82278   0.00000  Uiso   1.00
C646   C     0.04619   0.32161   0.84194   0.00000  Uiso   1.00
C647   C     0.01982   0.29735   0.82041   0.00000  Uiso   1.00
C648   C     0.03539   0.28913   0.77964   0.00000  Uiso   1.00
C649   C     0.07744   0.30496   0.76037   0.00000  Uiso   1.00
C650   C     0.14804   0.18168   0.95979   0.00000  Uiso   1.00
C651   C     0.11855   0.21050   0.98096   0.00000  Uiso   1.00
C652   C     0.16792   0.16011   0.98040   0.00000  Uiso   1.00
C653   C     0.15969   0.16957   0.52194   0.00000  Uiso   1.00
C654   C     0.13015   0.19872   0.54171   0.00000  Uiso   1.00
C655   C     0.10987   0.21844   0.52156   0.00000  Uiso   1.00
H656   H     0.08728   0.24036   0.53797   0.00000  Uiso   1.00
H657   H     0.09000   0.24032   0.90606   0.00000  Uiso   1.00
H658   H     0.18037   0.15599   0.90074   0.00000  Uiso   1.00
H659   H     0.12126   0.20674   0.57302   0.00000  Uiso   1.00
H660   H     0.20153   0.11849   0.93008   0.00000  Uiso   1.00
H661   H     0.10846   0.02287   0.83976   0.00000  Uiso   1.00
H662   H     0.03402   0.32809   0.87348   0.00000  Uiso   1.00
H663   H     0.32062   0.28503   0.83529   0.00000  Uiso   1.00
H664   H     0.01488   0.27052   0.76299   0.00000  Uiso   1.00
H665   H     0.08918   0.29845   0.72877   0.00000  Uiso   1.00
H666   H     0.25005   0.07399   0.52466   0.00000  Uiso   1.00
H667   H     0.01683   0.19365   0.71532   0.00000  Uiso   1.00
H668   H     0.31796   0.14037   0.78463   0.00000  Uiso   1.00
H669   H     0.21086   0.00382   0.72282   0.00000  Uiso   1.00
H670   H     0.15599   0.18111   0.60124   0.00000  Uiso   1.00
H671   H     0.23856   0.08966   0.59574   0.00000  Uiso   1.00
H672   H     0.23558   0.08504   0.96484   0.00000  Uiso   1.00
H673   H     0.07523   0.25317   0.97738   0.00000  Uiso   1.00
O674   O     0.16667   0.16667   0.75000   0.00000  Uiso   1.00
O675   O     0.15693   0.12393   0.66625   0.00000  Uiso   1.00
O676   O     0.12687   0.20646   0.83749   0.00000  Uiso   1.00
O677   O     0.21088   0.17493   0.65877   0.00000  Uiso   1.00
O678   O     0.17198   0.16135   0.83749   0.00000  Uiso   1.00
O679   O     0.17849   0.08101   0.77820   0.00000  Uiso   1.00
O680   O     0.14581   0.26136   0.76767   0.00000  Uiso   1.00
O681   O     0.07452   0.13251   0.73607   0.00000  Uiso   1.00
O682   O     0.26785   0.19179   0.71805   0.00000  Uiso   1.00
O683   O     0.06990   0.18960   0.77820   0.00000  Uiso   1.00
O684   O     0.25440   0.15277   0.76767   0.00000  Uiso   1.00
O685   O     0.13800   0.06903   0.73607   0.00000  Uiso   1.00
O686   O     0.20437   0.25527   0.71805   0.00000  Uiso   1.00
Zn687  Zn    0.19244   0.14090   0.78277   0.00000  Uiso   1.00
Zn688  Zn    0.13459   0.12378   0.72257   0.00000  Uiso   1.00
Zn689  Zn    0.21166   0.19664   0.71188   0.00000  Uiso   1.00
Zn690  Zn    0.12798   0.20535   0.78277   0.00000  Uiso   1.00
C691   C     0.38581   0.16001   0.75863   0.00000  Uiso   1.00
C692   C     0.52853   0.12893   0.96094   0.00000  Uiso   1.00
C693   C     0.54832   0.10872   0.98103   0.00000  Uiso   1.00
C694   C     0.61432   0.17363   0.74122   0.00000  Uiso   1.00
C695   C     0.54180   0.11850   0.52124   0.00000  Uiso   1.00
C696   C     0.51421   0.14911   0.54232   0.00000  Uiso   1.00
C697   C     0.56249   0.09749   0.54065   0.00000  Uiso   1.00
C698   C     0.55616   0.10636   0.58094   0.00000  Uiso   1.00
C699   C     0.50901   0.15793   0.58307   0.00000  Uiso   1.00
C700   C     0.66038   0.17639   0.73771   0.00000  Uiso   1.00
C701   C     0.34040   0.15769   0.76197   0.00000  Uiso   1.00
C702   C     0.43979   0.22409   0.92060   0.00000  Uiso   1.00
C703   C     0.51398   0.32240   0.74051   0.00000  Uiso   1.00
C704   C     0.48244   0.01239   0.76168   0.00000  Uiso   1.00
C705   C     0.48935   0.05623   0.75843   0.00000  Uiso   1.00
C706   C     0.50990   0.27761   0.74159   0.00000  Uiso   1.00
C707   C     0.52148   0.14512   0.64416   0.00000  Uiso   1.00
C708   C     0.47879   0.18790   0.85609   0.00000  Uiso   1.00
C709   C     0.46937   0.19634   0.89905   0.00000  Uiso   1.00
C710   C     0.52952   0.13657   0.60195   0.00000  Uiso   1.00
C711   C     0.43131   0.23130   0.96126   0.00000  Uiso   1.00
C712   C     0.43770   0.32883   0.78193   0.00000  Uiso   1.00
C713   C     0.49019   0.17587   0.91861   0.00000  Uiso   1.00
C714   C     0.42162   0.00417   0.82278   0.00000  Uiso   1.00
C715   C     0.37953   0.32161   0.84194   0.00000  Uiso   1.00
C716   C     0.35316   0.29735   0.82041   0.00000  Uiso   1.00
C717   C     0.36873   0.28913   0.77964   0.00000  Uiso   1.00
C718   C     0.41078   0.30496   0.76037   0.00000  Uiso   1.00
C719   C     0.48137   0.18168   0.95979   0.00000  Uiso   1.00
C720   C     0.45189   0.21050   0.98096   0.00000  Uiso   1.00
C721   C     0.50125   0.16011   0.98040   0.00000  Uiso   1.00
C722   C     0.49303   0.16957   0.52194   0.00000  Uiso   1.00
C723   C     0.46349   0.19872   0.54171   0.00000  Uiso   1.00
C724   C     0.44320   0.21844   0.52156   0.00000  Uiso   1.00
H725   H     0.42062   0.24036   0.53797   0.00000  Uiso   1.00
H726   H     0.42334   0.24032   0.90606   0.00000  Uiso   1.00
H727   H     0.51370   0.15599   0.90074   0.00000  Uiso   1.00
H728   H     0.45459   0.20674   0.57302   0.00000  Uiso   1.00
H729   H     0.53486   0.11849   0.93008   0.00000  Uiso   1.00
H730   H     0.44179   0.02287   0.83976   0.00000  Uiso   1.00
H731   H     0.36736   0.32809   0.87348   0.00000  Uiso   1.00
H732   H     0.65395   0.28503   0.83529   0.00000  Uiso   1.00
H733   H     0.34821   0.27052   0.76299   0.00000  Uiso   1.00
H734   H     0.42252   0.29845   0.72877   0.00000  Uiso   1.00
H735   H     0.58338   0.07399   0.52466   0.00000  Uiso   1.00
H736   H     0.35016   0.19365   0.71532   0.00000  Uiso   1.00
H737   H     0.65129   0.14037   0.78463   0.00000  Uiso   1.00
H738   H     0.54420   0.00382   0.72282   0.00000  Uiso   1.00
H739   H     0.48933   0.18111   0.60124   0.00000  Uiso   1.00
H740   H     0.57190   0.08966   0.59574   0.00000  Uiso   1.00
H741   H     0.56892   0.08504   0.96484   0.00000  Uiso   1.00
H742   H     0.40857   0.25317   0.97738   0.00000  Uiso   1.00
O743   O     0.50000   0.16667   0.75000   0.00000  Uiso   1.00
O744   O     0.49027   0.12393   0.66625   0.00000  Uiso   1.00
O745   O     0.46020   0.20646   0.83749   0.00000  Uiso   1.00
O746   O     0.54421   0.17493   0.65877   0.00000  Uiso   1.00
O747   O     0.50532   0.16135   0.83749   0.00000  Uiso   1.00
O748   O     0.51182   0.08101   0.77820   0.00000  Uiso   1.00
O749   O     0.47914   0.26136   0.76767   0.00000  Uiso   1.00
O750   O     0.40785   0.13251   0.73607   0.00000  Uiso   1.00
O751   O     0.60119   0.19179   0.71805   0.00000  Uiso   1.00
O752   O     0.40323   0.18960   0.77820   0.00000  Uiso   1.00
O753   O     0.58773   0.15277   0.76767   0.00000  Uiso   1.00
O754   O     0.47133   0.06903   0.73607   0.00000  Uiso   1.00
O755   O     0.53771   0.25527   0.71805   0.00000  Uiso   1.00
Zn756  Zn    0.52577   0.14090   0.78277   0.00000  Uiso   1.00
Zn757  Zn    0.46792   0.12378   0.72257   0.00000  Uiso   1.00
Zn758  Zn    0.54500   0.19664   0.71188   0.00000  Uiso   1.00
Zn759  Zn    0.46131   0.20535   0.78277   0.00000  Uiso   1.00
C760   C     0.71914   0.16001   0.75863   0.00000  Uiso   1.00
C761   C     0.86186   0.12893   0.96094   0.00000  Uiso   1.00
C762   C     0.88165   0.10872   0.98103   0.00000  Uiso   1.00
C763   C     0.94765   0.17363   0.74122   0.00000  Uiso   1.00
C764   C     0.87513   0.11850   0.52124   0.00000  Uiso   1.00
C765   C     0.84754   0.14911   0.54232   0.00000  Uiso   1.00
C766   C     0.89583   0.09749   0.54065   0.00000  Uiso   1.00
C767   C     0.88949   0.10636   0.58094   0.00000  Uiso   1.00
C768   C     0.84235   0.15793   0.58307   0.00000  Uiso   1.00
C769   C     0.99371   0.17639   0.73771   0.00000  Uiso   1.00
C770   C     0.67374   0.15769   0.76197   0.00000  Uiso   1.00
C771   C     0.77312   0.22409   0.92060   0.00000  Uiso   1.00
C772   C     0.84731   0.32240   0.74051   0.00000  Uiso   1.00
C773   C     0.81578   0.01239   0.76168   0.00000  Uiso   1.00
C774   C     0.82268   0.05623   0.75843   0.00000  Uiso   1.00
C775   C     0.84323   0.27761   0.74159   0.00000  Uiso   1.00
C776   C     0.85481   0.14512   0.64416   0.00000  Uiso   1.00
C777   C     0.81213   0.18790   0.85609   0.00000  Uiso   1.00
C778   C     0.80270   0.19634   0.89905   0.00000  Uiso   1.00
C779   C     0.86285   0.13657   0.60195   0.00000  Uiso   1.00
C780   C     0.76464   0.23130   0.96126   0.00000  Uiso   1.00
C781   C     0.77103   0.32883   0.78193   0.00000  Uiso   1.00
C782   C     0.82353   0.17587   0.91861   0.00000  Uiso   1.00
C783   C     0.75495   0.00417   0.82278   0.00000  Uiso   1.00
C784   C     0.71286   0.32161   0.84194   0.00000  Uiso   1.00
C785   C     0.68649   0.29735   0.82041   0.00000  Uiso   1.00
C786   C     0.70206   0.28913   0.77964   0.00000  Uiso   1.00
C787   C     0.74411   0.30496   0.76037   0.00000  Uiso   1.00
C788   C     0.81471   0.18168   0.95979   0.00000  Uiso   1.00
C789   C     0.78522   0.21050   0.98096   0.00000  Uiso   1.00
C790   C     0.83459   0.16011   0.98040   0.00000  Uiso   1.00
C791   C     0.82636   0.16957   0.52194   0.00000  Uiso   1.00
C792   C     0.79682   0.19872   0.54171   0.00000  Uiso   1.00
C793   C     0.77653   0.21844   0.52156   0.00000  Uiso   1.00
H794   H     0.75395   0.24036   0.53797   0.00000  Uiso   1.00
H795   H     0.75667   0.24032   0.90606   0.00000  Uiso   1.00
H796   H     0.84703   0.15599   0.90074   0.00000  Uiso   1.00
H797   H     0.78792   0.20674   0.57302   0.00000  Uiso   1.00
H798   H     0.86819   0.11849   0.93008   0.00000  Uiso   1.00
H799   H     0.77513   0.02287   0.83976   0.00000  Uiso   1.00
H800   H     0.70069   0.32809   0.87348   0.00000  Uiso   1.00
H801   H     0.98728   0.28503   0.83529   0.00000  Uiso   1.00
H802   H     0.68154   0.27052   0.76299   0.00000  Uiso   1.00
H803   H     0.75585   0.29845   0.72877   0.00000  Uiso   1.00
H804   H     0.91672   0.07399   0.52466   0.00000  Uiso   1.00
H805   H     0.68349   0.19365   0.71532   0.00000  Uiso   1.00
H806   H     0.98463   0.14037   0.78463   0.00000  Uiso   1.00
H807   H     0.87753   0.00382   0.72282   0.00000  Uiso   1.00
H808   H     0.82266   0.18111   0.60124   0.00000  Uiso   1.00
H809   H     0.90523   0.08966   0.59574   0.00000  Uiso   1.00
H810   H     0.90225   0.08504   0.96484   0.00000  Uiso   1.00
H811   H     0.74190   0.25317   0.97738   0.00000  Uiso   1.00
O812   O     0.83333   0.16667   0.75000   0.00000  Uiso   1.00
O813   O     0.82360   0.12393   0.66625   0.00000  Uiso   1.00
O814   O     0.79354   0.20646   0.83749   0.00000  Uiso   1.00
O815   O     0.87755   0.17493   0.65877   0.00000  Uiso   1.00
O816   O     0.83865   0.16135   0.83749   0.00000  Uiso   1.00
O817   O     0.84515   0.08101   0.77820   0.00000  Uiso   1.00
O818   O     0.81247   0.26136   0.76767   0.00000  Uiso   1.00
O819   O     0.74119   0.13251   0.73607   0.00000  Uiso   1.00
O820   O     0.93452   0.19179   0.71805   0.00000  Uiso   1.00
O821   O     0.73656   0.18960   0.77820   0.00000  Uiso   1.00
O822   O     0.92106   0.15277   0.76767   0.00000  Uiso   1.00
O823   O     0.80467   0.06903   0.73607   0.00000  Uiso   1.00
O824   O     0.87104   0.25527   0.71805   0.00000  Uiso   1.00
Zn825  Zn    0.85910   0.14090   0.78277   0.00000  Uiso   1.00
Zn826  Zn    0.80125   0.12378   0.72257   0.00000  Uiso   1.00
Zn827  Zn    0.87833   0.19664   0.71188   0.00000  Uiso   1.00
Zn828  Zn    0.79465   0.20535   0.78277   0.00000  Uiso   1.00
C829   C     0.05247   0.49334   0.75863   0.00000  Uiso   1.00
C830   C     0.19520   0.46227   0.96094   0.00000  Uiso   1.00
C831   C     0.21498   0.44205   0.98103   0.00000  Uiso   1.00
C832   C     0.28099   0.50696   0.74122   0.00000  Uiso   1.00
C833   C     0.20846   0.45183   0.52124   0.00000  Uiso   1.00
C834   C     0.18088   0.48244   0.54232   0.00000  Uiso   1.00
C835   C     0.22916   0.43082   0.54065   0.00000  Uiso   1.00
C836   C     0.22283   0.43970   0.58094   0.00000  Uiso   1.00
C837   C     0.17568   0.49127   0.58307   0.00000  Uiso   1.00
C838   C     0.32704   0.50972   0.73771   0.00000  Uiso   1.00
C839   C     0.00707   0.49103   0.76197   0.00000  Uiso   1.00
C840   C     0.10645   0.55742   0.92060   0.00000  Uiso   1.00
C841   C     0.18065   0.65574   0.74051   0.00000  Uiso   1.00
C842   C     0.14911   0.34573   0.76168   0.00000  Uiso   1.00
C843   C     0.15601   0.38956   0.75843   0.00000  Uiso   1.00
C844   C     0.17657   0.61095   0.74159   0.00000  Uiso   1.00
C845   C     0.18815   0.47845   0.64416   0.00000  Uiso   1.00
C846   C     0.14546   0.52123   0.85609   0.00000  Uiso   1.00
C847   C     0.13604   0.52967   0.89905   0.00000  Uiso   1.00
C848   C     0.19618   0.46990   0.60195   0.00000  Uiso   1.00
C849   C     0.09798   0.56463   0.96126   0.00000  Uiso   1.00
C850   C     0.10436   0.66216   0.78193   0.00000  Uiso   1.00
C851   C     0.15686   0.50920   0.91861   0.00000  Uiso   1.00
C852   C     0.08828   0.33750   0.82278   0.00000  Uiso   1.00
C853   C     0.04619   0.65494   0.84194   0.00000  Uiso   1.00
C854   C     0.01982   0.63068   0.82041   0.00000  Uiso   1.00
C855   C     0.03539   0.62247   0.77964   0.00000  Uiso   1.00
C856   C     0.07744   0.63830   0.76037   0.00000  Uiso   1.00
C857   C     0.14804   0.51502   0.95979   0.00000  Uiso   1.00
C858   C     0.11855   0.54383   0.98096   0.00000  Uiso   1.00
C859   C     0.16792   0.49345   0.98040   0.00000  Uiso   1.00
C860   C     0.15969   0.50291   0.52194   0.00000  Uiso   1.00
C861   C     0.13015   0.53205   0.54171   0.00000  Uiso   1.00
C862   C     0.10987   0.55178   0.52156   0.00000  Uiso   1.00
H863   H     0.08728   0.57369   0.53797   0.00000  Uiso   1.00
H864   H     0.09000   0.57365   0.90606   0.00000  Uiso   1.00
H865   H     0.18037   0.48933   0.90074   0.00000  Uiso   1.00
H866   H     0.12126   0.54007   0.57302   0.00000  Uiso   1.00
H867   H     0.20153   0.45182   0.93008   0.00000  Uiso   1.00
H868   H     0.10846   0.35621   0.83976   0.00000  Uiso   1.00
H869   H     0.03402   0.66142   0.87348   0.00000  Uiso   1.00
H870   H     0.32062   0.61836   0.83529   0.00000  Uiso   1.00
H871   H     0.01488   0.60386   0.76299   0.00000  Uiso   1.00
H872   H     0.08918   0.63178   0.72877   0.00000  Uiso   1.00
H873   H     0.25005   0.40732   0.52466   0.00000  Uiso   1.00
H874   H     0.01683   0.52698   0.71532   0.00000  Uiso   1.00
H875   H     0.31796   0.47371   0.78463   0.00000  Uiso   1.00
H876   H     0.21086   0.33716   0.72282   0.00000  Uiso   1.00
H877   H     0.15599   0.51444   0.60124   0.00000  Uiso   1.00
H878   H     0.23856   0.42300   0.59574   0.00000  Uiso   1.00
H879   H     0.23558   0.41837   0.96484   0.00000  Uiso   1.00
H880   H     0.07523   0.58650   0.97738   0.00000  Uiso   1.00
O881   O     0.16667   0.50000   0.75000   0.00000  Uiso   1.00
O882   O     0.15693   0.45726   0.66625   0.00000  Uiso   1.00
O883   O     0.12687   0.53979   0.83749   0.00000  Uiso   1.00
O884   O     0.21088   0.50826   0.65877   0.00000  Uiso   1.00
O885   O     0.17198   0.49468   0.83749   0.00000  Uiso   1.00
O886   O     0.17849   0.41434   0.77820   0.00000  Uiso   1.00
O887   O     0.14581   0.59469   0.76767   0.00000  Uiso   1.00
O888   O     0.07452   0.46584   0.73607   0.00000  Uiso   1.00
O889   O     0.26785   0.52512   0.71805   0.00000  Uiso   1.00
O890   O     0.06990   0.52293   0.77820   0.00000  Uiso   1.00
O891   O     0.25440   0.48610   0.76767   0.00000  Uiso   1.00
O892   O     0.13800   0.40236   0.73607   0.00000  Uiso   1.00
O893   O     0.20437   0.58860   0.71805   0.00000  Uiso   1.00
Zn894  Zn    0.19244   0.47423   0.78277   0.00000  Uiso   1.00
Zn895  Zn    0.13459   0.45711   0.72257   0.00000  Uiso   1.00
Zn896  Zn    0.21166   0.52997   0.71188   0.00000  Uiso   1.00
Zn897  Zn    0.12798   0.53868   0.78277   0.00000  Uiso   1.00
C898   C     0.38581   0.49334   0.75863   0.00000  Uiso   1.00
C899   C     0.52853   0.46227   0.96094   0.00000  Uiso   1.00
C900   C     0.54832   0.44205   0.98103   0.00000  Uiso   1.00
C901   C     0.61432   0.50696   0.74122   0.00000  Uiso   1.00
C902   C     0.54180   0.45183   0.52124   0.00000  Uiso   1.00
C903   C     0.51421   0.48244   0.54232   0.00000  Uiso   1.00
C904   C     0.56249   0.43082   0.54065   0.00000  Uiso   1.00
C905   C     0.55616   0.43970   0.58094   0.00000  Uiso   1.00
C906   C     0.50901   0.49127   0.58307   0.00000  Uiso   1.00
C907   C     0.66038   0.50972   0.73771   0.00000  Uiso   1.00
C908   C     0.34040   0.49103   0.76197   0.00000  Uiso   1.00
C909   C     0.43979   0.55742   0.92060   0.00000  Uiso   1.00
C910   C     0.51398   0.65574   0.74051   0.00000  Uiso   1.00
C911   C     0.48244   0.34573   0.76168   0.00000  Uiso   1.00
C912   C     0.48935   0.38956   0.75843   0.00000  Uiso   1.00
C913   C     0.50990   0.61095   0.74159   0.00000  Uiso   1.00
C914   C     0.52148   0.47845   0.64416   0.00000  Uiso   1.00
C915   C     0.47879   0.52123   0.85609   0.00000  Uiso   1.00
C916   C     0.46937   0.52967   0.89905   0.00000  Uiso   1.00
C917   C     0.52952   0.46990   0.60195   0.00000  Uiso   1.00
C918   C     0.43131   0.56463   0.96126   0.00000  Uiso   1.00
C919   C     0.43770   0.66216   0.78193   0.00000  Uiso   1.00
C920   C     0.49019   0.50920   0.91861   0.00000  Uiso   1.00
C921   C     0.42162   0.33750   0.82278   0.00000  Uiso   1.00
C922   C     0.37953   0.65494   0.84194   0.00000  Uiso   1.00
C923   C     0.35316   0.63068   0.82041   0.00000  Uiso   1.00
C924   C     0.36873   0.62247   0.77964   0.00000  Uiso   1.00
C925   C     0.41078   0.63830   0.76037   0.00000  Uiso   1.00
C926   C     0.48137   0.51502   0.95979   0.00000  Uiso   1.00
C927   C     0.45189   0.54383   0.98096   0.00000  Uiso   1.00
C928   C     0.50125   0.49345   0.98040   0.00000  Uiso   1.00
C929   C     0.49303   0.50291   0.52194   0.00000  Uiso   1.00
C930   C     0.46349   0.53205   0.54171   0.00000  Uiso   1.00
C931   C     0.44320   0.55178   0.52156   0.00000  Uiso   1.00
H932   H     0.42062   0.57369   0.53797   0.00000  Uiso   1.00
H933   H     0.42334   0.57365   0.90606   0.00000  Uiso   1.00
H934   H     0.51370   0.48933   0.90074   0.00000  Uiso   1.00
H935   H     0.45459   0.54007   0.57302   0.00000  Uiso   1.00
H936   H     0.53486   0.45182   0.93008   0.00000  Uiso   1.00
H937   H     0.44179   0.35621   0.83976   0.00000  Uiso   1.00
H938   H     0.36736   0.66142   0.87348   0.00000  Uiso   1.00
H939   H     0.65395   0.61836   0.83529   0.00000  Uiso   1.00
H940   H     0.34821   0.60386   0.76299   0.00000  Uiso   1.00
H941   H     0.42252   0.63178   0.72877   0.00000  Uiso   1.00
H942   H     0.58338   0.40732   0.52466   0.00000  Uiso   1.00
H943   H     0.35016   0.52698   0.71532   0.00000  Uiso   1.00
H944   H     0.65129   0.47371   0.78463   0.00000  Uiso   1.00
H945   H     0.54420   0.33716   0.72282   0.00000  Uiso   1.00
H946   H     0.48933   0.51444   0.60124   0.00000  Uiso   1.00
H947   H     0.57190   0.42300   0.59574   0.00000  Uiso   1.00
H948   H     0.56892   0.41837   0.96484   0.00000  Uiso   1.00
H949   H     0.40857   0.58650   0.97738   0.00000  Uiso   1.00
O950   O     0.50000   0.50000   0.75000   0.00000  Uiso   1.00
O951   O     0.49027   0.45726   0.66625   0.00000  Uiso   1.00
O952   O     0.46020   0.53979   0.83749   0.00000  Uiso   1.00
O953   O     0.54421   0.50826   0.65877   0.00000  Uiso   1.00
O954   O     0.50532   0.49468   0.83749   0.00000  Uiso   1.00
O955   O     0.51182   0.41434   0.77820   0.00000  Uiso   1.00
O956   O     0.47914   0.59469   0.76767   0.00000  Uiso   1.00
O957   O     0.40785   0.46584   0.73607   0.00000  Uiso   1.00
O958   O     0.60119   0.52512   0.71805   0.00000  Uiso   1.00
O959   O     0.40323   0.52293   0.77820   0.00000  Uiso   1.00
O960   O     0.58773   0.48610   0.76767   0.00000  Uiso   1.00
O961   O     0.47133   0.40236   0.73607   0.00000  Uiso   1.00
O962   O     0.53771   0.58860   0.71805   0.00000  Uiso   1.00
Zn963  Zn    0.52577   0.47423   0.78277   0.00000  Uiso   1.00
Zn964  Zn    0.46792   0.45711   0.72257   0.00000  Uiso   1.00
Zn965  Zn    0.54500   0.52997   0.71188   0.00000  Uiso   1.00
Zn966  Zn    0.46131   0.53868   0.78277   0.00000  Uiso   1.00
C967   C     0.71914   0.49334   0.75863   0.00000  Uiso   1.00
C968   C     0.86186   0.46227   0.96094   0.00000  Uiso   1.00
C969   C     0.88165   0.44205   0.98103   0.00000  Uiso   1.00
C970   C     0.94765   0.50696   0.74122   0.00000  Uiso   1.00
C971   C     0.87513   0.45183   0.52124   0.00000  Uiso   1.00
C972   C     0.84754   0.48244   0.54232   0.00000  Uiso   1.00
C973   C     0.89583   0.43082   0.54065   0.00000  Uiso   1.00
C974   C     0.88949   0.43970   0.58094   0.00000  Uiso   1.00
C975   C     0.84235   0.49127   0.58307   0.00000  Uiso   1.00
C976   C     0.99371   0.50972   0.73771   0.00000  Uiso   1.00
C977   C     0.67374   0.49103   0.76197   0.00000  Uiso   1.00
C978   C     0.77312   0.55742   0.92060   0.00000  Uiso   1.00
C979   C     0.84731   0.65574   0.74051   0.00000  Uiso   1.00
C980   C     0.81578   0.34573   0.76168   0.00000  Uiso   1.00
C981   C     0.82268   0.38956   0.75843   0.00000  Uiso   1.00
C982   C     0.84323   0.61095   0.74159   0.00000  Uiso   1.00
C983   C     0.85481   0.47845   0.64416   0.00000  Uiso   1.00
C984   C     0.81213   0.52123   0.85609   0.00000  Uiso   1.00
C985   C     0.80270   0.52967   0.89905   0.00000  Uiso   1.00
C986   C     0.86285   0.46990   0.60195   0.00000  Uiso   1.00
C987   C     0.76464   0.56463   0.96126   0.00000  Uiso   1.00
C988   C     0.77103   0.66216   0.78193   0.00000  Uiso   1.00
C989   C     0.82353   0.50920   0.91861   0.00000  Uiso   1.00
C990   C     0.75495   0.33750   0.82278   0.00000  Uiso   1.00
C991   C     0.71286   0.65494   0.84194   0.00000  Uiso   1.00
C992   C     0.68649   0.63068   0.82041   0.00000  Uiso   1.00
C993   C     0.70206   0.62247   0.77964   0.00000  Uiso   1.00
C994   C     0.74411   0.63830   0.76037   0.00000  Uiso   1.00
C995   C     0.81471   0.51502   0.95979   0.00000  Uiso   1.00
C996   C     0.78522   0.54383   0.98096   0.00000  Uiso   1.00
C997   C     0.83459   0.49345   0.98040   0.00000  Uiso   1.00
C998   C     0.82636   0.50291   0.52194   0.00000  Uiso   1.00
C999   C     0.79682   0.53205   0.54171   0.00000  Uiso   1.00
C1000  C     0.77653   0.55178   0.52156   0.00000  Uiso   1.00
H1001  H     0.75395   0.57369   0.53797   0.00000  Uiso   1.00
H1002  H     0.75667   0.57365   0.90606   0.00000  Uiso   1.00
H1003  H     0.84703   0.48933   0.90074   0.00000  Uiso   1.00
H1004  H     0.78792   0.54007   0.57302   0.00000  Uiso   1.00
H1005  H     0.86819   0.45182   0.93008   0.00000  Uiso   1.00
H1006  H     0.77513   0.35621   0.83976   0.00000  Uiso   1.00
H1007  H     0.70069   0.66142   0.87348   0.00000  Uiso   1.00
H1008  H     0.98728   0.61836   0.83529   0.00000  Uiso   1.00
H1009  H     0.68154   0.60386   0.76299   0.00000  Uiso   1.00
H1010  H     0.75585   0.63178   0.72877   0.00000  Uiso   1.00
H1011  H     0.91672   0.40732   0.52466   0.00000  Uiso   1.00
H1012  H     0.68349   0.52698   0.71532   0.00000  Uiso   1.00
H1013  H     0.98463   0.47371   0.78463   0.00000  Uiso   1.00
H1014  H     0.87753   0.33716   0.72282   0.00000  Uiso   1.00
H1015  H     0.82266   0.51444   0.60124   0.00000  Uiso   1.00
H1016  H     0.90523   0.42300   0.59574   0.00000  Uiso   1.00
H1017  H     0.90225   0.41837   0.96484   0.00000  Uiso   1.00
H1018  H     0.74190   0.58650   0.97738   0.00000  Uiso   1.00
O1019  O     0.83333   0.50000   0.75000   0.00000  Uiso   1.00
O1020  O     0.82360   0.45726   0.66625   0.00000  Uiso   1.00
O1021  O     0.79354   0.53979   0.83749   0.00000  Uiso   1.00
O1022  O     0.87755   0.50826   0.65877   0.00000  Uiso   1.00
O1023  O     0.83865   0.49468   0.83749   0.00000  Uiso   1.00
O1024  O     0.84515   0.41434   0.77820   0.00000  Uiso   1.00
O1025  O     0.81247   0.59469   0.76767   0.00000  Uiso   1.00
O1026  O     0.74119   0.46584   0.73607   0.00000  Uiso   1.00
O1027  O     0.93452   0.52512   0.71805   0.00000  Uiso   1.00
O1028  O     0.73656   0.52293   0.77820   0.00000  Uiso   1.00
O1029  O     0.92106   0.48610   0.76767   0.00000  Uiso   1.00
O1030  O     0.80467   0.40236   0.73607   0.00000  Uiso   1.00
O1031  O     0.87104   0.58860   0.71805   0.00000  Uiso   1.00
Zn1032 Zn    0.85910   0.47423   0.78277   0.00000  Uiso   1.00
Zn1033 Zn    0.80125   0.45711   0.72257   0.00000  Uiso   1.00
Zn1034 Zn    0.87833   0.52997   0.71188   0.00000  Uiso   1.00
Zn1035 Zn    0.79465   0.53868   0.78277   0.00000  Uiso   1.00
C1036  C     0.05247   0.82667   0.75863   0.00000  Uiso   1.00
C1037  C     0.19520   0.79560   0.96094   0.00000  Uiso   1.00
C1038  C     0.21498   0.77538   0.98103   0.00000  Uiso   1.00
C1039  C     0.28099   0.84029   0.74122   0.00000  Uiso   1.00
C1040  C     0.20846   0.78517   0.52124   0.00000  Uiso   1.00
C1041  C     0.18088   0.81578   0.54232   0.00000  Uiso   1.00
C1042  C     0.22916   0.76416   0.54065   0.00000  Uiso   1.00
C1043  C     0.22283   0.77303   0.58094   0.00000  Uiso   1.00
C1044  C     0.17568   0.82460   0.58307   0.00000  Uiso   1.00
C1045  C     0.32704   0.84305   0.73771   0.00000  Uiso   1.00
C1046  C     0.00707   0.82436   0.76197   0.00000  Uiso   1.00
C1047  C     0.10645   0.89075   0.92060   0.00000  Uiso   1.00
C1048  C     0.18065   0.98907   0.74051   0.00000  Uiso   1.00
C1049  C     0.14911   0.67906   0.76168   0.00000  Uiso   1.00
C1050  C     0.15601   0.72289   0.75843   0.00000  Uiso   1.00
C1051  C     0.17657   0.94428   0.74159   0.00000  Uiso   1.00
C1052  C     0.18815   0.81178   0.64416   0.00000  Uiso   1.00
C1053  C     0.14546   0.85456   0.85609   0.00000  Uiso   1.00
C1054  C     0.13604   0.86301   0.89905   0.00000  Uiso   1.00
C1055  C     0.19618   0.80324   0.60195   0.00000  Uiso   1.00
C1056  C     0.09798   0.89797   0.96126   0.00000  Uiso   1.00
C1057  C     0.10436   0.99549   0.78193   0.00000  Uiso   1.00
C1058  C     0.15686   0.84254   0.91861   0.00000  Uiso   1.00
C1059  C     0.08828   0.67084   0.82278   0.00000  Uiso   1.00
C1060  C     0.04619   0.98828   0.84194   0.00000  Uiso   1.00
C1061  C     0.01982   0.96402   0.82041   0.00000  Uiso   1.00
C1062  C     0.03539   0.95580   0.77964   0.00000  Uiso   1.00
C1063  C     0.07744   0.97163   0.76037   0.00000  Uiso   1.00
C1064  C     0.14804   0.84835   0.95979   0.00000  Uiso   1.00
C1065  C     0.11855   0.87717   0.98096   0.00000  Uiso   1.00
C1066  C     0.16792   0.82678   0.98040   0.00000  Uiso   1.00
C1067  C     0.15969   0.83624   0.52194   0.00000  Uiso   1.00
C1068  C     0.13015   0.86538   0.54171   0.00000  Uiso   1.00
C1069  C     0.10987   0.88511   0.52156   0.00000  Uiso   1.00
H1070  H     0.08728   0.90702   0.53797   0.00000  Uiso   1.00
H1071  H     0.09000   0.90699   0.90606   0.00000  Uiso   1.00
H1072  H     0.18037   0.82266   0.90074   0.00000  Uiso   1.00
H1073  H     0.12126   0.87340   0.57302   0.00000  Uiso   1.00
H1074  H     0.20153   0.78516   0.93008   0.00000  Uiso   1.00
H1075  H     0.10846   0.68954   0.83976   0.00000  Uiso   1.00
H1076  H     0.03402   0.99475   0.87348   0.00000  Uiso   1.00
H1077  H     0.32062   0.95170   0.83529   0.00000  Uiso   1.00
H1078  H     0.01488   0.93719   0.76299   0.00000  Uiso   1.00
H1079  H     0.08918   0.96512   0.72877   0.00000  Uiso   1.00
H1080  H     0.25005   0.74066   0.52466   0.00000  Uiso   1.00
H1081  H     0.01683   0.86031   0.71532   0.00000  Uiso   1.00
H1082  H     0.31796   0.80704   0.78463   0.00000  Uiso   1.00
H1083  H     0.21086   0.67049   0.72282   0.00000  Uiso   1.00
H1084  H     0.15599   0.84777   0.60124   0.00000  Uiso   1.00
H1085  H     0.23856   0.75633   0.59574   0.00000  Uiso   1.00
H1086  H     0.23558   0.75170   0.96484   0.00000  Uiso   1.00
H1087  H     0.07523   0.91984   0.97738   0.00000  Uiso   1.00
O1088  O     0.16667   0.83333   0.75000   0.00000  Uiso   1.00
O1089  O     0.15693   0.79060   0.66625   0.00000  Uiso   1.00
O1090  O     0.12687   0.87313   0.83749   0.00000  Uiso   1.00
O1091  O     0.21088   0.84159   0.65877   0.00000  Uiso   1.00
O1092  O     0.17198   0.82802   0.83749   0.00000  Uiso   1.00
O1093  O     0.17849   0.74768   0.77820   0.00000  Uiso   1.00
O1094  O     0.14581   0.92803   0.76767   0.00000  Uiso   1.00
O1095  O     0.07452   0.79917   0.73607   0.00000  Uiso   1.00
O1096  O     0.26785   0.85845   0.71805   0.00000  Uiso   1.00
O1097  O     0.06990   0.85627   0.77820   0.00000  Uiso   1.00
O1098  O     0.25440   0.81944   0.76767   0.00000  Uiso   1.00
O1099  O     0.13800   0.73570   0.73607   0.00000  Uiso   1.00
O1100  O     0.20437   0.92193   0.71805   0.00000  Uiso   1.00
Zn1101 Zn    0.19244   0.80756   0.78277   0.00000  Uiso   1.00
Zn1102 Zn    0.13459   0.79044   0.72257   0.00000  Uiso   1.00
Zn1103 Zn    0.21166   0.86331   0.71188   0.00000  Uiso   1.00
Zn1104 Zn    0.12798   0.87202   0.78277   0.00000  Uiso   1.00
C1105  C     0.38581   0.82667   0.75863   0.00000  Uiso   1.00
C1106  C     0.52853   0.79560   0.96094   0.00000  Uiso   1.00
C1107  C     0.54832   0.77538   0.98103   0.00000  Uiso   1.00
C1108  C     0.61432   0.84029   0.74122   0.00000  Uiso   1.00
C1109  C     0.54180   0.78517   0.52124   0.00000  Uiso   1.00
C1110  C     0.51421   0.81578   0.54232   0.00000  Uiso   1.00
C1111  C     0.56249   0.76416   0.54065   0.00000  Uiso   1.00
C1112  C     0.55616   0.77303   0.58094   0.00000  Uiso   1.00
C1113  C     0.50901   0.82460   0.58307   0.00000  Uiso   1.00
C1114  C     0.66038   0.84305   0.73771   0.00000  Uiso   1.00
C1115  C     0.34040   0.82436   0.76197   0.00000  Uiso   1.00
C1116  C     0.43979   0.89075   0.92060   0.00000  Uiso   1.00
C1117  C     0.51398   0.98907   0.74051   0.00000  Uiso   1.00
C1118  C     0.48244   0.67906   0.76168   0.00000  Uiso   1.00
C1119  C     0.48935   0.72289   0.75843   0.00000  Uiso   1.00
C1120  C     0.50990   0.94428   0.74159   0.00000  Uiso   1.00
C1121  C     0.52148   0.81178   0.64416   0.00000  Uiso   1.00
C1122  C     0.47879   0.85456   0.85609   0.00000  Uiso   1.00
C1123  C     0.46937   0.86301   0.89905   0.00000  Uiso   1.00
C1124  C     0.52952   0.80324   0.60195   0.00000  Uiso   1.00
C1125  C     0.43131   0.89797   0.96126   0.00000  Uiso   1.00
C1126  C     0.43770   0.99549   0.78193   0.00000  Uiso   1.00
C1127  C     0.49019   0.84254   0.91861   0.00000  Uiso   1.00
C1128  C     0.42162   0.67084   0.82278   0.00000  Uiso   1.00
C1129  C     0.37953   0.98828   0.84194   0.00000  Uiso   1.00
C1130  C     0.35316   0.96402   0.82041   0.00000  Uiso   1.00
C1131  C     0.36873   0.95580   0.77964   0.00000  Uiso   1.00
C1132  C     0.41078   0.97163   0.76037   0.00000  Uiso   1.00
C1133  C     0.48137   0.84835   0.95979   0.00000  Uiso   1.00
C1134  C     0.45189   0.87717   0.98096   0.00000  Uiso   1.00
C1135  C     0.50125   0.82678   0.98040   0.00000  Uiso   1.00
C1136  C     0.49303   0.83624   0.52194   0.00000  Uiso   1.00
C1137  C     0.46349   0.86538   0.54171   0.00000  Uiso   1.00
C1138  C     0.44320   0.88511   0.52156   0.00000  Uiso   1.00
H1139  H     0.42062   0.90702   0.53797   0.00000  Uiso   1.00
H1140  H     0.42334   0.90699   0.90606   0.00000  Uiso   1.00
H1141  H     0.51370   0.82266   0.90074   0.00000  Uiso   1.00
H1142  H     0.45459   0.87340   0.57302   0.00000  Uiso   1.00
H1143  H     0.53486   0.78516   0.93008   0.00000  Uiso   1.00
H1144  H     0.44179   0.68954   0.83976   0.00000  Uiso   1.00
H1145  H     0.36736   0.99475   0.87348   0.00000  Uiso   1.00
H1146  H     0.65395   0.95170   0.83529   0.00000  Uiso   1.00
H1147  H     0.34821   0.93719   0.76299   0.00000  Uiso   1.00
H1148  H     0.42252   0.96512   0.72877   0.00000  Uiso   1.00
H1149  H     0.58338   0.74066   0.52466   0.00000  Uiso   1.00
H1150  H     0.35016   0.86031   0.71532   0.00000  Uiso   1.00
H1151  H     0.65129   0.80704   0.78463   0.00000  Uiso   1.00
H1152  H     0.54420   0.67049   0.72282   0.00000  Uiso   1.00
H1153  H     0.48933   0.84777   0.60124   0.00000  Uiso   1.00
H1154  H     0.57190   0.75633   0.59574   0.00000  Uiso   1.00
H1155  H     0.56892   0.75170   0.96484   0.00000  Uiso   1.00
H1156  H     0.40857   0.91984   0.97738   0.00000  Uiso   1.00
O1157  O     0.50000   0.83333   0.75000   0.00000  Uiso   1.00
O1158  O     0.49027   0.79060   0.66625   0.00000  Uiso   1.00
O1159  O     0.46020   0.87313   0.83749   0.00000  Uiso   1.00
O1160  O     0.54421   0.84159   0.65877   0.00000  Uiso   1.00
O1161  O     0.50532   0.82802   0.83749   0.00000  Uiso   1.00
O1162  O     0.51182   0.74768   0.77820   0.00000  Uiso   1.00
O1163  O     0.47914   0.92803   0.76767   0.00000  Uiso   1.00
O1164  O     0.40785   0.79917   0.73607   0.00000  Uiso   1.00
O1165  O     0.60119   0.85845   0.71805   0.00000  Uiso   1.00
O1166  O     0.40323   0.85627   0.77820   0.00000  Uiso   1.00
O1167  O     0.58773   0.81944   0.76767   0.00000  Uiso   1.00
O1168  O     0.47133   0.73570   0.73607   0.00000  Uiso   1.00
O1169  O     0.53771   0.92193   0.71805   0.00000  Uiso   1.00
Zn1170 Zn    0.52577   0.80756   0.78277   0.00000  Uiso   1.00
Zn1171 Zn    0.46792   0.79044   0.72257   0.00000  Uiso   1.00
Zn1172 Zn    0.54500   0.86331   0.71188   0.00000  Uiso   1.00
Zn1173 Zn    0.46131   0.87202   0.78277   0.00000  Uiso   1.00
C1174  C     0.71914   0.82667   0.75863   0.00000  Uiso   1.00
C1175  C     0.86186   0.79560   0.96094   0.00000  Uiso   1.00
C1176  C     0.88165   0.77538   0.98103   0.00000  Uiso   1.00
C1177  C     0.94765   0.84029   0.74122   0.00000  Uiso   1.00
C1178  C     0.87513   0.78517   0.52124   0.00000  Uiso   1.00
C1179  C     0.84754   0.81578   0.54232   0.00000  Uiso   1.00
C1180  C     0.89583   0.76416   0.54065   0.00000  Uiso   1.00
C1181  C     0.88949   0.77303   0.58094   0.00000  Uiso   1.00
C1182  C     0.84235   0.82460   0.58307   0.00000  Uiso   1.00
C1183  C     0.99371   0.84305   0.73771   0.00000  Uiso   1.00
C1184  C     0.67374   0.82436   0.76197   0.00000  Uiso   1.00
C1185  C     0.77312   0.89075   0.92060   0.00000  Uiso   1.00
C1186  C     0.84731   0.98907   0.74051   0.00000  Uiso   1.00
C1187  C     0.81578   0.67906   0.76168   0.00000  Uiso   1.00
C1188  C     0.82268   0.72289   0.75843   0.00000  Uiso   1.00
C1189  C     0.84323   0.94428   0.74159   0.00000  Uiso   1.00
C1190  C     0.85481   0.81178   0.64416   0.00000  Uiso   1.00
C1191  C     0.81213   0.85456   0.85609   0.00000  Uiso   1.00
C1192  C     0.80270   0.86301   0.89905   0.00000  Uiso   1.00
C1193  C     0.86285   0.80324   0.60195   0.00000  Uiso   1.00
C1194  C     0.76464   0.89797   0.96126   0.00000  Uiso   1.00
C1195  C     0.77103   0.99549   0.78193   0.00000  Uiso   1.00
C1196  C     0.82353   0.84254   0.91861   0.00000  Uiso   1.00
C1197  C     0.75495   0.67084   0.82278   0.00000  Uiso   1.00
C1198  C     0.71286   0.98828   0.84194   0.00000  Uiso   1.00
C1199  C     0.68649   0.96402   0.82041   0.00000  Uiso   1.00
C1200  C     0.70206   0.95580   0.77964   0.00000  Uiso   1.00
C1201  C     0.74411   0.97163   0.76037   0.00000  Uiso   1.00
C1202  C     0.81471   0.84835   0.95979   0.00000  Uiso   1.00
C1203  C     0.78522   0.87717   0.98096   0.00000  Uiso   1.00
C1204  C     0.83459   0.82678   0.98040   0.00000  Uiso   1.00
C1205  C     0.82636   0.83624   0.52194   0.00000  Uiso   1.00
C1206  C     0.79682   0.86538   0.54171   0.00000  Uiso   1.00
C1207  C     0.77653   0.88511   0.52156   0.00000  Uiso   1.00
H1208  H     0.75395   0.90702   0.53797   0.00000  Uiso   1.00
H1209  H     0.75667   0.90699   0.90606   0.00000  Uiso   1.00
H1210  H     0.84703   0.82266   0.90074   0.00000  Uiso   1.00
H1211  H     0.78792   0.87340   0.57302   0.00000  Uiso   1.00
H1212  H     0.86819   0.78516   0.93008   0.00000  Uiso   1.00
H1213  H     0.77513   0.68954   0.83976   0.00000  Uiso   1.00
H1214  H     0.70069   0.99475   0.87348   0.00000  Uiso   1.00
H1215  H     0.98728   0.95170   0.83529   0.00000  Uiso   1.00
H1216  H     0.68154   0.93719   0.76299   0.00000  Uiso   1.00
H1217  H     0.75585   0.96512   0.72877   0.00000  Uiso   1.00
H1218  H     0.91672   0.74066   0.52466   0.00000  Uiso   1.00
H1219  H     0.68349   0.86031   0.71532   0.00000  Uiso   1.00
H1220  H     0.98463   0.80704   0.78463   0.00000  Uiso   1.00
H1221  H     0.87753   0.67049   0.72282   0.00000  Uiso   1.00
H1222  H     0.82266   0.84777   0.60124   0.00000  Uiso   1.00
H1223  H     0.90523   0.75633   0.59574   0.00000  Uiso   1.00
H1224  H     0.90225   0.75170   0.96484   0.00000  Uiso   1.00
H1225  H     0.74190   0.91984   0.97738   0.00000  Uiso   1.00
O1226  O     0.83333   0.83333   0.75000   0.00000  Uiso   1.00
O1227  O     0.82360   0.79060   0.66625   0.00000  Uiso   1.00
O1228  O     0.79354   0.87313   0.83749   0.00000  Uiso   1.00
O1229  O     0.87755   0.84159   0.65877   0.00000  Uiso   1.00
O1230  O     0.83865   0.82802   0.83749   0.00000  Uiso   1.00
O1231  O     0.84515   0.74768   0.77820   0.00000  Uiso   1.00
O1232  O     0.81247   0.92803   0.76767   0.00000  Uiso   1.00
O1233  O     0.74119   0.79917   0.73607   0.00000  Uiso   1.00
O1234  O     0.93452   0.85845   0.71805   0.00000  Uiso   1.00
O1235  O     0.73656   0.85627   0.77820   0.00000  Uiso   1.00
O1236  O     0.92106   0.81944   0.76767   0.00000  Uiso   1.00
O1237  O     0.80467   0.73570   0.73607   0.00000  Uiso   1.00
O1238  O     0.87104   0.92193   0.71805   0.00000  Uiso   1.00
Zn1239 Zn    0.85910   0.80756   0.78277   0.00000  Uiso   1.00
Zn1240 Zn    0.80125   0.79044   0.72257   0.00000  Uiso   1.00
Zn1241 Zn    0.87833   0.86331   0.71188   0.00000  Uiso   1.00
Zn1242 Zn    0.79465   0.87202   0.78277   0.00000  Uiso   1.00
loop_
_geom_bond_atom_site_label_1
_geom_bond_atom_site_label_2
_geom_bond_distance
_geom_bond_site_symmetry_2
_ccdc_geom_bond_type
C1     O62     1.268   .     A
C1     O60     1.268   .     A
C1     C11     1.437   .     S
C2     H39     1.075   .     S
C2     C3      1.384   .     A
C2     C31     1.416   .     A
C3     H51     1.085   .     S
C3     C626    1.388   .     S
C4     O63     1.284   .     A
C4     C10     1.456   .     S
C4     O61     1.288   .     A
C5     C6      1.421   .     A
C5     C7      1.403   .     A
C5     C624    1.388   1_554 S
C6     C32     1.428   .     A
C6     C9      1.411   .     A
C7     C8      1.389   .     A
C7     H45     1.084   .     S
C8     H50     1.083   .     S
C8     C20     1.393   .     A
C9     C20     1.393   .     A
C9     H49     1.077   .     S
C10    C80     1.335   .     S
C10    H115    1.088   .     S
C11    C148    1.335   1_455 S
C11    H185    1.086   1_455 S
C12    H36     1.083   .     S
C12    C19     1.400   .     A
C12    C21     1.392   .     A
C13    C16     1.454   .     S
C13    C221    1.346   .     S
C13    H255    1.088   .     S
C14    C15     1.432   .     S
C14    C427    1.346   1_545 S
C14    C436    1.486   1_545 S
C15    O64     1.270   .     A
C15    O58     1.281   .     A
C16    O65     1.276   .     A
C16    O59     1.264   .     A
C17    O54     1.272   .     A
C17    O56     1.273   .     A
C17    C20     1.449   .     S
C18    O55     1.284   .     A
C18    C19     1.471   .     S
C18    O57     1.286   .     A
C19    C23     1.399   .     A
C21    C30     1.403   .     A
C21    H52     1.084   .     S
C22    C28     1.406   .     A
C22    C221    1.486   .     S
C22    C231    1.404   .     S
C23    C29     1.408   .     A
C23    H37     1.074   .     S
C24    H40     1.083   .     S
C24    C436    1.404   1_545 S
C24    C439    1.399   1_545 S
C25    H41     1.082   .     S
C25    C26     1.398   .     A
C25    C231    1.399   .     S
C26    C27     1.398   .     A
C26    H180    1.082   1_455 S
C27    H43     1.082   .     S
C27    C28     1.398   .     A
C28    H44     1.083   .     S
C29    C30     1.418   .     A
C29    C31     1.428   .     A
C30    C655    1.390   .     S
C31    C653    1.427   .     S
C32    C33     1.416   .     A
C32    C652    1.427   1_554 S
C33    H38     1.076   .     S
C33    C34     1.387   .     A
C34    H35     1.084   .     S
C34    C651    1.390   1_554 S
H42    C95     1.082   .     S
H46    C148    1.088   1_455 S
H47    C80     1.086   .     S
H48    C427    1.088   1_545 S
O53    Zn69    1.929   .     S
O53    Zn66    1.971   .     S
O53    Zn67    1.938   .     S
O53    Zn68    1.941   .     S
O54    Zn67    1.937   .     S
O55    Zn69    1.947   .     S
O56    Zn68    1.935   .     S
O57    Zn66    1.926   .     S
O58    Zn66    1.932   .     S
O59    Zn69    1.941   .     S
O60    Zn67    1.925   .     S
O61    Zn68    1.936   .     S
O62    Zn69    1.929   .     S
O63    Zn66    1.921   .     S
O64    Zn67    1.949   .     S
O65    Zn68    1.936   .     S
C70    O131    1.268   .     A
C70    O129    1.268   .     A
C70    C80     1.437   .     S
C71    H108    1.075   .     S
C71    C72     1.384   .     A
C71    C100    1.416   .     A
C72    H120    1.085   .     S
C72    C695    1.388   .     S
C73    O132    1.284   .     A
C73    C79     1.456   .     S
C73    O130    1.288   .     A
C74    C75     1.421   .     A
C74    C76     1.403   .     A
C74    C693    1.388   1_554 S
C75    C101    1.428   .     A
C75    C78     1.411   .     A
C76    C77     1.389   .     A
C76    H114    1.084   .     S
C77    H119    1.083   .     S
C77    C89     1.393   .     A
C78    C89     1.393   .     A
C78    H118    1.077   .     S
C79    C149    1.335   .     S
C79    H184    1.088   .     S
C81    H105    1.083   .     S
C81    C88     1.400   .     A
C81    C90     1.392   .     A
C82    C85     1.454   .     S
C82    C290    1.346   .     S
C82    H324    1.088   .     S
C83    C84     1.432   .     S
C83    C496    1.346   1_545 S
C83    C505    1.486   1_545 S
C84    O133    1.270   .     A
C84    O127    1.281   .     A
C85    O134    1.276   .     A
C85    O128    1.264   .     A
C86    O123    1.272   .     A
C86    O125    1.273   .     A
C86    C89     1.449   .     S
C87    O124    1.284   .     A
C87    C88     1.471   .     S
C87    O126    1.286   .     A
C88    C92     1.399   .     A
C90    C99     1.403   .     A
C90    H121    1.084   .     S
C91    C97     1.406   .     A
C91    C290    1.486   .     S
C91    C300    1.404   .     S
C92    C98     1.408   .     A
C92    H106    1.074   .     S
C93    H109    1.083   .     S
C93    C505    1.404   1_545 S
C93    C508    1.399   1_545 S
C94    H110    1.082   .     S
C94    C95     1.398   .     A
C94    C300    1.399   .     S
C95    C96     1.398   .     A
C96    H112    1.082   .     S
C96    C97     1.398   .     A
C97    H113    1.083   .     S
C98    C99     1.418   .     A
C98    C100    1.428   .     A
C99    C724    1.390   .     S
C100   C722    1.427   .     S
C101   C102    1.416   .     A
C101   C721    1.427   1_554 S
C102   H107    1.076   .     S
C102   C103    1.387   .     A
C103   H104    1.084   .     S
C103   C720    1.390   1_554 S
H111   C164    1.082   .     S
H116   C149    1.086   .     S
H117   C496    1.088   1_545 S
O122   Zn138   1.929   .     S
O122   Zn135   1.971   .     S
O122   Zn136   1.938   .     S
O122   Zn137   1.941   .     S
O123   Zn136   1.937   .     S
O124   Zn138   1.947   .     S
O125   Zn137   1.935   .     S
O126   Zn135   1.926   .     S
O127   Zn135   1.932   .     S
O128   Zn138   1.941   .     S
O129   Zn136   1.925   .     S
O130   Zn137   1.936   .     S
O131   Zn138   1.929   .     S
O132   Zn135   1.921   .     S
O133   Zn136   1.949   .     S
O134   Zn137   1.936   .     S
C139   O200    1.268   .     A
C139   O198    1.268   .     A
C139   C149    1.437   .     S
C140   H177    1.075   .     S
C140   C141    1.384   .     A
C140   C169    1.416   .     A
C141   H189    1.085   .     S
C141   C764    1.388   .     S
C142   O201    1.284   .     A
C142   C148    1.456   .     S
C142   O199    1.288   .     A
C143   C144    1.421   .     A
C143   C145    1.403   .     A
C143   C762    1.388   1_554 S
C144   C170    1.428   .     A
C144   C147    1.411   .     A
C145   C146    1.389   .     A
C145   H183    1.084   .     S
C146   H188    1.083   .     S
C146   C158    1.393   .     A
C147   C158    1.393   .     A
C147   H187    1.077   .     S
C148   C11     1.335   1_655 S
C148   H46     1.088   1_655 S
C150   H174    1.083   .     S
C150   C157    1.400   .     A
C150   C159    1.392   .     A
C151   C154    1.454   .     S
C151   C359    1.346   .     S
C151   H393    1.088   .     S
C152   C153    1.432   .     S
C152   C565    1.346   1_545 S
C152   C574    1.486   1_545 S
C153   O202    1.270   .     A
C153   O196    1.281   .     A
C154   O203    1.276   .     A
C154   O197    1.264   .     A
C155   O192    1.272   .     A
C155   O194    1.273   .     A
C155   C158    1.449   .     S
C156   O193    1.284   .     A
C156   C157    1.471   .     S
C156   O195    1.286   .     A
C157   C161    1.399   .     A
C159   C168    1.403   .     A
C159   H190    1.084   .     S
C160   C166    1.406   .     A
C160   C359    1.486   .     S
C160   C369    1.404   .     S
C161   C167    1.408   .     A
C161   H175    1.074   .     S
C162   H178    1.083   .     S
C162   C574    1.404   1_545 S
C162   C577    1.399   1_545 S
C163   H179    1.082   .     S
C163   C164    1.398   .     A
C163   C369    1.399   .     S
C164   C165    1.398   .     A
C165   H181    1.082   .     S
C165   C166    1.398   .     A
C166   H182    1.083   .     S
C167   C168    1.418   .     A
C167   C169    1.428   .     A
C168   C793    1.390   .     S
C169   C791    1.427   .     S
C170   C171    1.416   .     A
C170   C790    1.427   1_554 S
C171   H176    1.076   .     S
C171   C172    1.387   .     A
C172   H173    1.084   .     S
C172   C789    1.390   1_554 S
H180   C26     1.082   1_655 S
H185   C11     1.086   1_655 S
H186   C565    1.088   1_545 S
O191   Zn207   1.929   .     S
O191   Zn204   1.971   .     S
O191   Zn205   1.938   .     S
O191   Zn206   1.941   .     S
O192   Zn205   1.937   .     S
O193   Zn207   1.947   .     S
O194   Zn206   1.935   .     S
O195   Zn204   1.926   .     S
O196   Zn204   1.932   .     S
O197   Zn207   1.941   .     S
O198   Zn205   1.925   .     S
O199   Zn206   1.936   .     S
O200   Zn207   1.929   .     S
O201   Zn204   1.921   .     S
O202   Zn205   1.949   .     S
O203   Zn206   1.936   .     S
C208   O269    1.268   .     A
C208   O267    1.268   .     A
C208   C218    1.437   .     S
C209   H246    1.075   .     S
C209   C210    1.384   .     A
C209   C238    1.416   .     A
C210   H258    1.085   .     S
C210   C833    1.388   .     S
C211   O270    1.284   .     A
C211   C217    1.456   .     S
C211   O268    1.288   .     A
C212   C213    1.421   .     A
C212   C214    1.403   .     A
C212   C831    1.388   1_554 S
C213   C239    1.428   .     A
C213   C216    1.411   .     A
C214   C215    1.389   .     A
C214   H252    1.084   .     S
C215   H257    1.083   .     S
C215   C227    1.393   .     A
C216   C227    1.393   .     A
C216   H256    1.077   .     S
C217   C287    1.335   .     S
C217   H322    1.088   .     S
C218   C355    1.335   1_455 S
C218   H392    1.086   1_455 S
C219   H243    1.083   .     S
C219   C226    1.400   .     A
C219   C228    1.392   .     A
C220   C223    1.454   .     S
C220   C428    1.346   .     S
C220   H462    1.088   .     S
C221   C222    1.432   .     S
C222   O271    1.270   .     A
C222   O265    1.281   .     A
C223   O272    1.276   .     A
C223   O266    1.264   .     A
C224   O261    1.272   .     A
C224   O263    1.273   .     A
C224   C227    1.449   .     S
C225   O262    1.284   .     A
C225   C226    1.471   .     S
C225   O264    1.286   .     A
C226   C230    1.399   .     A
C228   C237    1.403   .     A
C228   H259    1.084   .     S
C229   C235    1.406   .     A
C229   C428    1.486   .     S
C229   C438    1.404   .     S
C230   C236    1.408   .     A
C230   H244    1.074   .     S
C231   H247    1.083   .     S
C232   H248    1.082   .     S
C232   C233    1.398   .     A
C232   C438    1.399   .     S
C233   C234    1.398   .     A
C233   H387    1.082   1_455 S
C234   H250    1.082   .     S
C234   C235    1.398   .     A
C235   H251    1.083   .     S
C236   C237    1.418   .     A
C236   C238    1.428   .     A
C237   C862    1.390   .     S
C238   C860    1.427   .     S
C239   C240    1.416   .     A
C239   C859    1.427   1_554 S
C240   H245    1.076   .     S
C240   C241    1.387   .     A
C241   H242    1.084   .     S
C241   C858    1.390   1_554 S
H249   C302    1.082   .     S
H253   C355    1.088   1_455 S
H254   C287    1.086   .     S
O260   Zn276   1.929   .     S
O260   Zn273   1.971   .     S
O260   Zn274   1.938   .     S
O260   Zn275   1.941   .     S
O261   Zn274   1.937   .     S
O262   Zn276   1.947   .     S
O263   Zn275   1.935   .     S
O264   Zn273   1.926   .     S
O265   Zn273   1.932   .     S
O266   Zn276   1.941   .     S
O267   Zn274   1.925   .     S
O268   Zn275   1.936   .     S
O269   Zn276   1.929   .     S
O270   Zn273   1.921   .     S
O271   Zn274   1.949   .     S
O272   Zn275   1.936   .     S
C277   O338    1.268   .     A
C277   O336    1.268   .     A
C277   C287    1.437   .     S
C278   H315    1.075   .     S
C278   C279    1.384   .     A
C278   C307    1.416   .     A
C279   H327    1.085   .     S
C279   C902    1.388   .     S
C280   O339    1.284   .     A
C280   C286    1.456   .     S
C280   O337    1.288   .     A
C281   C282    1.421   .     A
C281   C283    1.403   .     A
C281   C900    1.388   1_554 S
C282   C308    1.428   .     A
C282   C285    1.411   .     A
C283   C284    1.389   .     A
C283   H321    1.084   .     S
C284   H326    1.083   .     S
C284   C296    1.393   .     A
C285   C296    1.393   .     A
C285   H325    1.077   .     S
C286   C356    1.335   .     S
C286   H391    1.088   .     S
C288   H312    1.083   .     S
C288   C295    1.400   .     A
C288   C297    1.392   .     A
C289   C292    1.454   .     S
C289   C497    1.346   .     S
C289   H531    1.088   .     S
C290   C291    1.432   .     S
C291   O340    1.270   .     A
C291   O334    1.281   .     A
C292   O341    1.276   .     A
C292   O335    1.264   .     A
C293   O330    1.272   .     A
C293   O332    1.273   .     A
C293   C296    1.449   .     S
C294   O331    1.284   .     A
C294   C295    1.471   .     S
C294   O333    1.286   .     A
C295   C299    1.399   .     A
C297   C306    1.403   .     A
C297   H328    1.084   .     S
C298   C304    1.406   .     A
C298   C497    1.486   .     S
C298   C507    1.404   .     S
C299   C305    1.408   .     A
C299   H313    1.074   .     S
C300   H316    1.083   .     S
C301   H317    1.082   .     S
C301   C302    1.398   .     A
C301   C507    1.399   .     S
C302   C303    1.398   .     A
C303   H319    1.082   .     S
C303   C304    1.398   .     A
C304   H320    1.083   .     S
C305   C306    1.418   .     A
C305   C307    1.428   .     A
C306   C931    1.390   .     S
C307   C929    1.427   .     S
C308   C309    1.416   .     A
C308   C928    1.427   1_554 S
C309   H314    1.076   .     S
C309   C310    1.387   .     A
C310   H311    1.084   .     S
C310   C927    1.390   1_554 S
H318   C371    1.082   .     S
H323   C356    1.086   .     S
O329   Zn345   1.929   .     S
O329   Zn342   1.971   .     S
O329   Zn343   1.938   .     S
O329   Zn344   1.941   .     S
O330   Zn343   1.937   .     S
O331   Zn345   1.947   .     S
O332   Zn344   1.935   .     S
O333   Zn342   1.926   .     S
O334   Zn342   1.932   .     S
O335   Zn345   1.941   .     S
O336   Zn343   1.925   .     S
O337   Zn344   1.936   .     S
O338   Zn345   1.929   .     S
O339   Zn342   1.921   .     S
O340   Zn343   1.949   .     S
O341   Zn344   1.936   .     S
C346   O407    1.268   .     A
C346   O405    1.268   .     A
C346   C356    1.437   .     S
C347   H384    1.075   .     S
C347   C348    1.384   .     A
C347   C376    1.416   .     A
C348   H396    1.085   .     S
C348   C971    1.388   .     S
C349   O408    1.284   .     A
C349   C355    1.456   .     S
C349   O406    1.288   .     A
C350   C351    1.421   .     A
C350   C352    1.403   .     A
C350   C969    1.388   1_554 S
C351   C377    1.428   .     A
C351   C354    1.411   .     A
C352   C353    1.389   .     A
C352   H390    1.084   .     S
C353   H395    1.083   .     S
C353   C365    1.393   .     A
C354   C365    1.393   .     A
C354   H394    1.077   .     S
C355   C218    1.335   1_655 S
C355   H253    1.088   1_655 S
C357   H381    1.083   .     S
C357   C364    1.400   .     A
C357   C366    1.392   .     A
C358   C361    1.454   .     S
C358   C566    1.346   .     S
C358   H600    1.088   .     S
C359   C360    1.432   .     S
C360   O409    1.270   .     A
C360   O403    1.281   .     A
C361   O410    1.276   .     A
C361   O404    1.264   .     A
C362   O399    1.272   .     A
C362   O401    1.273   .     A
C362   C365    1.449   .     S
C363   O400    1.284   .     A
C363   C364    1.471   .     S
C363   O402    1.286   .     A
C364   C368    1.399   .     A
C366   C375    1.403   .     A
C366   H397    1.084   .     S
C367   C373    1.406   .     A
C367   C566    1.486   .     S
C367   C576    1.404   .     S
C368   C374    1.408   .     A
C368   H382    1.074   .     S
C369   H385    1.083   .     S
C370   H386    1.082   .     S
C370   C371    1.398   .     A
C370   C576    1.399   .     S
C371   C372    1.398   .     A
C372   H388    1.082   .     S
C372   C373    1.398   .     A
C373   H389    1.083   .     S
C374   C375    1.418   .     A
C374   C376    1.428   .     A
C375   C1000   1.390   .     S
C376   C998    1.427   .     S
C377   C378    1.416   .     A
C377   C997    1.427   1_554 S
C378   H383    1.076   .     S
C378   C379    1.387   .     A
C379   H380    1.084   .     S
C379   C996    1.390   1_554 S
H387   C233    1.082   1_655 S
H392   C218    1.086   1_655 S
O398   Zn414   1.929   .     S
O398   Zn411   1.971   .     S
O398   Zn412   1.938   .     S
O398   Zn413   1.941   .     S
O399   Zn412   1.937   .     S
O400   Zn414   1.947   .     S
O401   Zn413   1.935   .     S
O402   Zn411   1.926   .     S
O403   Zn411   1.932   .     S
O404   Zn414   1.941   .     S
O405   Zn412   1.925   .     S
O406   Zn413   1.936   .     S
O407   Zn414   1.929   .     S
O408   Zn411   1.921   .     S
O409   Zn412   1.949   .     S
O410   Zn413   1.936   .     S
C415   O476    1.268   .     A
C415   O474    1.268   .     A
C415   C425    1.437   .     S
C416   H453    1.075   .     S
C416   C417    1.384   .     A
C416   C445    1.416   .     A
C417   H465    1.085   .     S
C417   C1040   1.388   .     S
C418   O477    1.284   .     A
C418   C424    1.456   .     S
C418   O475    1.288   .     A
C419   C420    1.421   .     A
C419   C421    1.403   .     A
C419   C1038   1.388   1_554 S
C420   C446    1.428   .     A
C420   C423    1.411   .     A
C421   C422    1.389   .     A
C421   H459    1.084   .     S
C422   H464    1.083   .     S
C422   C434    1.393   .     A
C423   C434    1.393   .     A
C423   H463    1.077   .     S
C424   C494    1.335   .     S
C424   H529    1.088   .     S
C425   C562    1.335   1_455 S
C425   H599    1.086   1_455 S
C426   H450    1.083   .     S
C426   C433    1.400   .     A
C426   C435    1.392   .     A
C427   C430    1.454   .     S
C427   C14     1.346   1_565 S
C427   H48     1.088   1_565 S
C428   C429    1.432   .     S
C429   O478    1.270   .     A
C429   O472    1.281   .     A
C430   O479    1.276   .     A
C430   O473    1.264   .     A
C431   O468    1.272   .     A
C431   O470    1.273   .     A
C431   C434    1.449   .     S
C432   O469    1.284   .     A
C432   C433    1.471   .     S
C432   O471    1.286   .     A
C433   C437    1.399   .     A
C435   C444    1.403   .     A
C435   H466    1.084   .     S
C436   C442    1.406   .     A
C436   C14     1.486   1_565 S
C436   C24     1.404   1_565 S
C437   C443    1.408   .     A
C437   H451    1.074   .     S
C438   H454    1.083   .     S
C439   H455    1.082   .     S
C439   C440    1.398   .     A
C439   C24     1.399   1_565 S
C440   C441    1.398   .     A
C440   H594    1.082   1_455 S
C441   H457    1.082   .     S
C441   C442    1.398   .     A
C442   H458    1.083   .     S
C443   C444    1.418   .     A
C443   C445    1.428   .     A
C444   C1069   1.390   .     S
C445   C1067   1.427   .     S
C446   C447    1.416   .     A
C446   C1066   1.427   1_554 S
C447   H452    1.076   .     S
C447   C448    1.387   .     A
C448   H449    1.084   .     S
C448   C1065   1.390   1_554 S
H456   C509    1.082   .     S
H460   C562    1.088   1_455 S
H461   C494    1.086   .     S
O467   Zn483   1.929   .     S
O467   Zn480   1.971   .     S
O467   Zn481   1.938   .     S
O467   Zn482   1.941   .     S
O468   Zn481   1.937   .     S
O469   Zn483   1.947   .     S
O470   Zn482   1.935   .     S
O471   Zn480   1.926   .     S
O472   Zn480   1.932   .     S
O473   Zn483   1.941   .     S
O474   Zn481   1.925   .     S
O475   Zn482   1.936   .     S
O476   Zn483   1.929   .     S
O477   Zn480   1.921   .     S
O478   Zn481   1.949   .     S
O479   Zn482   1.936   .     S
C484   O545    1.268   .     A
C484   O543    1.268   .     A
C484   C494    1.437   .     S
C485   H522    1.075   .     S
C485   C486    1.384   .     A
C485   C514    1.416   .     A
C486   H534    1.085   .     S
C486   C1109   1.388   .     S
C487   O546    1.284   .     A
C487   C493    1.456   .     S
C487   O544    1.288   .     A
C488   C489    1.421   .     A
C488   C490    1.403   .     A
C488   C1107   1.388   1_554 S
C489   C515    1.428   .     A
C489   C492    1.411   .     A
C490   C491    1.389   .     A
C490   H528    1.084   .     S
C491   H533    1.083   .     S
C491   C503    1.393   .     A
C492   C503    1.393   .     A
C492   H532    1.077   .     S
C493   C563    1.335   .     S
C493   H598    1.088   .     S
C495   H519    1.083   .     S
C495   C502    1.400   .     A
C495   C504    1.392   .     A
C496   C499    1.454   .     S
C496   C83     1.346   1_565 S
C496   H117    1.088   1_565 S
C497   C498    1.432   .     S
C498   O547    1.270   .     A
C498   O541    1.281   .     A
C499   O548    1.276   .     A
C499   O542    1.264   .     A
C500   O537    1.272   .     A
C500   O539    1.273   .     A
C500   C503    1.449   .     S
C501   O538    1.284   .     A
C501   C502    1.471   .     S
C501   O540    1.286   .     A
C502   C506    1.399   .     A
C504   C513    1.403   .     A
C504   H535    1.084   .     S
C505   C511    1.406   .     A
C505   C83     1.486   1_565 S
C505   C93     1.404   1_565 S
C506   C512    1.408   .     A
C506   H520    1.074   .     S
C507   H523    1.083   .     S
C508   H524    1.082   .     S
C508   C509    1.398   .     A
C508   C93     1.399   1_565 S
C509   C510    1.398   .     A
C510   H526    1.082   .     S
C510   C511    1.398   .     A
C511   H527    1.083   .     S
C512   C513    1.418   .     A
C512   C514    1.428   .     A
C513   C1138   1.390   .     S
C514   C1136   1.427   .     S
C515   C516    1.416   .     A
C515   C1135   1.427   1_554 S
C516   H521    1.076   .     S
C516   C517    1.387   .     A
C517   H518    1.084   .     S
C517   C1134   1.390   1_554 S
H525   C578    1.082   .     S
H530   C563    1.086   .     S
O536   Zn552   1.929   .     S
O536   Zn549   1.971   .     S
O536   Zn550   1.938   .     S
O536   Zn551   1.941   .     S
O537   Zn550   1.937   .     S
O538   Zn552   1.947   .     S
O539   Zn551   1.935   .     S
O540   Zn549   1.926   .     S
O541   Zn549   1.932   .     S
O542   Zn552   1.941   .     S
O543   Zn550   1.925   .     S
O544   Zn551   1.936   .     S
O545   Zn552   1.929   .     S
O546   Zn549   1.921   .     S
O547   Zn550   1.949   .     S
O548   Zn551   1.936   .     S
C553   O614    1.268   .     A
C553   O612    1.268   .     A
C553   C563    1.437   .     S
C554   H591    1.075   .     S
C554   C555    1.384   .     A
C554   C583    1.416   .     A
C555   H603    1.085   .     S
C555   C1178   1.388   .     S
C556   O615    1.284   .     A
C556   C562    1.456   .     S
C556   O613    1.288   .     A
C557   C558    1.421   .     A
C557   C559    1.403   .     A
C557   C1176   1.388   1_554 S
C558   C584    1.428   .     A
C558   C561    1.411   .     A
C559   C560    1.389   .     A
C559   H597    1.084   .     S
C560   H602    1.083   .     S
C560   C572    1.393   .     A
C561   C572    1.393   .     A
C561   H601    1.077   .     S
C562   C425    1.335   1_655 S
C562   H460    1.088   1_655 S
C564   H588    1.083   .     S
C564   C571    1.400   .     A
C564   C573    1.392   .     A
C565   C568    1.454   .     S
C565   C152    1.346   1_565 S
C565   H186    1.088   1_565 S
C566   C567    1.432   .     S
C567   O616    1.270   .     A
C567   O610    1.281   .     A
C568   O617    1.276   .     A
C568   O611    1.264   .     A
C569   O606    1.272   .     A
C569   O608    1.273   .     A
C569   C572    1.449   .     S
C570   O607    1.284   .     A
C570   C571    1.471   .     S
C570   O609    1.286   .     A
C571   C575    1.399   .     A
C573   C582    1.403   .     A
C573   H604    1.084   .     S
C574   C580    1.406   .     A
C574   C152    1.486   1_565 S
C574   C162    1.404   1_565 S
C575   C581    1.408   .     A
C575   H589    1.074   .     S
C576   H592    1.083   .     S
C577   H593    1.082   .     S
C577   C578    1.398   .     A
C577   C162    1.399   1_565 S
C578   C579    1.398   .     A
C579   H595    1.082   .     S
C579   C580    1.398   .     A
C580   H596    1.083   .     S
C581   C582    1.418   .     A
C581   C583    1.428   .     A
C582   C1207   1.390   .     S
C583   C1205   1.427   .     S
C584   C585    1.416   .     A
C584   C1204   1.427   1_554 S
C585   H590    1.076   .     S
C585   C586    1.387   .     A
C586   H587    1.084   .     S
C586   C1203   1.390   1_554 S
H594   C440    1.082   1_655 S
H599   C425    1.086   1_655 S
O605   Zn621   1.929   .     S
O605   Zn618   1.971   .     S
O605   Zn619   1.938   .     S
O605   Zn620   1.941   .     S
O606   Zn619   1.937   .     S
O607   Zn621   1.947   .     S
O608   Zn620   1.935   .     S
O609   Zn618   1.926   .     S
O610   Zn618   1.932   .     S
O611   Zn621   1.941   .     S
O612   Zn619   1.925   .     S
O613   Zn620   1.936   .     S
O614   Zn621   1.929   .     S
O615   Zn618   1.921   .     S
O616   Zn619   1.949   .     S
O617   Zn620   1.936   .     S
C622   O683    1.268   .     A
C622   O681    1.268   .     A
C622   C632    1.437   .     S
C623   H660    1.075   .     S
C623   C624    1.384   .     A
C623   C652    1.416   .     A
C624   H672    1.085   .     S
C624   C5      1.388   1_556 S
C625   O684    1.284   .     A
C625   C631    1.456   .     S
C625   O682    1.288   .     A
C626   C627    1.421   .     A
C626   C628    1.403   .     A
C627   C653    1.428   .     A
C627   C630    1.411   .     A
C628   C629    1.389   .     A
C628   H666    1.084   .     S
C629   H671    1.083   .     S
C629   C641    1.393   .     A
C630   C641    1.393   .     A
C630   H670    1.077   .     S
C631   C701    1.335   .     S
C631   H736    1.088   .     S
C632   C769    1.335   1_455 S
C632   H806    1.086   1_455 S
C633   H657    1.083   .     S
C633   C640    1.400   .     A
C633   C642    1.392   .     A
C634   C637    1.454   .     S
C634   C842    1.346   .     S
C634   H876    1.088   .     S
C635   C636    1.432   .     S
C635   C1048   1.346   1_545 S
C635   C1057   1.486   1_545 S
C636   O685    1.270   .     A
C636   O679    1.281   .     A
C637   O686    1.276   .     A
C637   O680    1.264   .     A
C638   O675    1.272   .     A
C638   O677    1.273   .     A
C638   C641    1.449   .     S
C639   O676    1.284   .     A
C639   C640    1.471   .     S
C639   O678    1.286   .     A
C640   C644    1.399   .     A
C642   C651    1.403   .     A
C642   H673    1.084   .     S
C643   C649    1.406   .     A
C643   C842    1.486   .     S
C643   C852    1.404   .     S
C644   C650    1.408   .     A
C644   H658    1.074   .     S
C645   H661    1.083   .     S
C645   C1057   1.404   1_545 S
C645   C1060   1.399   1_545 S
C646   H662    1.082   .     S
C646   C647    1.398   .     A
C646   C852    1.399   .     S
C647   C648    1.398   .     A
C647   H801    1.082   1_455 S
C648   H664    1.082   .     S
C648   C649    1.398   .     A
C649   H665    1.083   .     S
C650   C651    1.418   .     A
C650   C652    1.428   .     A
C651   C34     1.390   1_556 S
C652   C32     1.427   1_556 S
C653   C654    1.416   .     A
C654   H659    1.076   .     S
C654   C655    1.387   .     A
C655   H656    1.084   .     S
H663   C716    1.082   .     S
H667   C769    1.088   1_455 S
H668   C701    1.086   .     S
H669   C1048   1.088   1_545 S
O674   Zn690   1.929   .     S
O674   Zn687   1.971   .     S
O674   Zn688   1.938   .     S
O674   Zn689   1.941   .     S
O675   Zn688   1.937   .     S
O676   Zn690   1.947   .     S
O677   Zn689   1.935   .     S
O678   Zn687   1.926   .     S
O679   Zn687   1.932   .     S
O680   Zn690   1.941   .     S
O681   Zn688   1.925   .     S
O682   Zn689   1.936   .     S
O683   Zn690   1.929   .     S
O684   Zn687   1.921   .     S
O685   Zn688   1.949   .     S
O686   Zn689   1.936   .     S
C691   O752    1.268   .     A
C691   O750    1.268   .     A
C691   C701    1.437   .     S
C692   H729    1.075   .     S
C692   C693    1.384   .     A
C692   C721    1.416   .     A
C693   H741    1.085   .     S
C693   C74     1.388   1_556 S
C694   O753    1.284   .     A
C694   C700    1.456   .     S
C694   O751    1.288   .     A
C695   C696    1.421   .     A
C695   C697    1.403   .     A
C696   C722    1.428   .     A
C696   C699    1.411   .     A
C697   C698    1.389   .     A
C697   H735    1.084   .     S
C698   H740    1.083   .     S
C698   C710    1.393   .     A
C699   C710    1.393   .     A
C699   H739    1.077   .     S
C700   C770    1.335   .     S
C700   H805    1.088   .     S
C702   H726    1.083   .     S
C702   C709    1.400   .     A
C702   C711    1.392   .     A
C703   C706    1.454   .     S
C703   C911    1.346   .     S
C703   H945    1.088   .     S
C704   C705    1.432   .     S
C704   C1117   1.346   1_545 S
C704   C1126   1.486   1_545 S
C705   O754    1.270   .     A
C705   O748    1.281   .     A
C706   O755    1.276   .     A
C706   O749    1.264   .     A
C707   O744    1.272   .     A
C707   O746    1.273   .     A
C707   C710    1.449   .     S
C708   O745    1.284   .     A
C708   C709    1.471   .     S
C708   O747    1.286   .     A
C709   C713    1.399   .     A
C711   C720    1.403   .     A
C711   H742    1.084   .     S
C712   C718    1.406   .     A
C712   C911    1.486   .     S
C712   C921    1.404   .     S
C713   C719    1.408   .     A
C713   H727    1.074   .     S
C714   H730    1.083   .     S
C714   C1126   1.404   1_545 S
C714   C1129   1.399   1_545 S
C715   H731    1.082   .     S
C715   C716    1.398   .     A
C715   C921    1.399   .     S
C716   C717    1.398   .     A
C717   H733    1.082   .     S
C717   C718    1.398   .     A
C718   H734    1.083   .     S
C719   C720    1.418   .     A
C719   C721    1.428   .     A
C720   C103    1.390   1_556 S
C721   C101    1.427   1_556 S
C722   C723    1.416   .     A
C723   H728    1.076   .     S
C723   C724    1.387   .     A
C724   H725    1.084   .     S
H732   C785    1.082   .     S
H737   C770    1.086   .     S
H738   C1117   1.088   1_545 S
O743   Zn759   1.929   .     S
O743   Zn756   1.971   .     S
O743   Zn757   1.938   .     S
O743   Zn758   1.941   .     S
O744   Zn757   1.937   .     S
O745   Zn759   1.947   .     S
O746   Zn758   1.935   .     S
O747   Zn756   1.926   .     S
O748   Zn756   1.932   .     S
O749   Zn759   1.941   .     S
O750   Zn757   1.925   .     S
O751   Zn758   1.936   .     S
O752   Zn759   1.929   .     S
O753   Zn756   1.921   .     S
O754   Zn757   1.949   .     S
O755   Zn758   1.936   .     S
C760   O821    1.268   .     A
C760   O819    1.268   .     A
C760   C770    1.437   .     S
C761   H798    1.075   .     S
C761   C762    1.384   .     A
C761   C790    1.416   .     A
C762   H810    1.085   .     S
C762   C143    1.388   1_556 S
C763   O822    1.284   .     A
C763   C769    1.456   .     S
C763   O820    1.288   .     A
C764   C765    1.421   .     A
C764   C766    1.403   .     A
C765   C791    1.428   .     A
C765   C768    1.411   .     A
C766   C767    1.389   .     A
C766   H804    1.084   .     S
C767   H809    1.083   .     S
C767   C779    1.393   .     A
C768   C779    1.393   .     A
C768   H808    1.077   .     S
C769   C632    1.335   1_655 S
C769   H667    1.088   1_655 S
C771   H795    1.083   .     S
C771   C778    1.400   .     A
C771   C780    1.392   .     A
C772   C775    1.454   .     S
C772   C980    1.346   .     S
C772   H1014   1.088   .     S
C773   C774    1.432   .     S
C773   C1186   1.346   1_545 S
C773   C1195   1.486   1_545 S
C774   O823    1.270   .     A
C774   O817    1.281   .     A
C775   O824    1.276   .     A
C775   O818    1.264   .     A
C776   O813    1.272   .     A
C776   O815    1.273   .     A
C776   C779    1.449   .     S
C777   O814    1.284   .     A
C777   C778    1.471   .     S
C777   O816    1.286   .     A
C778   C782    1.399   .     A
C780   C789    1.403   .     A
C780   H811    1.084   .     S
C781   C787    1.406   .     A
C781   C980    1.486   .     S
C781   C990    1.404   .     S
C782   C788    1.408   .     A
C782   H796    1.074   .     S
C783   H799    1.083   .     S
C783   C1195   1.404   1_545 S
C783   C1198   1.399   1_545 S
C784   H800    1.082   .     S
C784   C785    1.398   .     A
C784   C990    1.399   .     S
C785   C786    1.398   .     A
C786   H802    1.082   .     S
C786   C787    1.398   .     A
C787   H803    1.083   .     S
C788   C789    1.418   .     A
C788   C790    1.428   .     A
C789   C172    1.390   1_556 S
C790   C170    1.427   1_556 S
C791   C792    1.416   .     A
C792   H797    1.076   .     S
C792   C793    1.387   .     A
C793   H794    1.084   .     S
H801   C647    1.082   1_655 S
H806   C632    1.086   1_655 S
H807   C1186   1.088   1_545 S
O812   Zn828   1.929   .     S
O812   Zn825   1.971   .     S
O812   Zn826   1.938   .     S
O812   Zn827   1.941   .     S
O813   Zn826   1.937   .     S
O814   Zn828   1.947   .     S
O815   Zn827   1.935   .     S
O816   Zn825   1.926   .     S
O817   Zn825   1.932   .     S
O818   Zn828   1.941   .     S
O819   Zn826   1.925   .     S
O820   Zn827   1.936   .     S
O821   Zn828   1.929   .     S
O822   Zn825   1.921   .     S
O823   Zn826   1.949   .     S
O824   Zn827   1.936   .     S
C829   O890    1.268   .     A
C829   O888    1.268   .     A
C829   C839    1.437   .     S
C830   H867    1.075   .     S
C830   C831    1.384   .     A
C830   C859    1.416   .     A
C831   H879    1.085   .     S
C831   C212    1.388   1_556 S
C832   O891    1.284   .     A
C832   C838    1.456   .     S
C832   O889    1.288   .     A
C833   C834    1.421   .     A
C833   C835    1.403   .     A
C834   C860    1.428   .     A
C834   C837    1.411   .     A
C835   C836    1.389   .     A
C835   H873    1.084   .     S
C836   H878    1.083   .     S
C836   C848    1.393   .     A
C837   C848    1.393   .     A
C837   H877    1.077   .     S
C838   C908    1.335   .     S
C838   H943    1.088   .     S
C839   C976    1.335   1_455 S
C839   H1013   1.086   1_455 S
C840   H864    1.083   .     S
C840   C847    1.400   .     A
C840   C849    1.392   .     A
C841   C844    1.454   .     S
C841   C1049   1.346   .     S
C841   H1083   1.088   .     S
C842   C843    1.432   .     S
C843   O892    1.270   .     A
C843   O886    1.281   .     A
C844   O893    1.276   .     A
C844   O887    1.264   .     A
C845   O882    1.272   .     A
C845   O884    1.273   .     A
C845   C848    1.449   .     S
C846   O883    1.284   .     A
C846   C847    1.471   .     S
C846   O885    1.286   .     A
C847   C851    1.399   .     A
C849   C858    1.403   .     A
C849   H880    1.084   .     S
C850   C856    1.406   .     A
C850   C1049   1.486   .     S
C850   C1059   1.404   .     S
C851   C857    1.408   .     A
C851   H865    1.074   .     S
C852   H868    1.083   .     S
C853   H869    1.082   .     S
C853   C854    1.398   .     A
C853   C1059   1.399   .     S
C854   C855    1.398   .     A
C854   H1008   1.082   1_455 S
C855   H871    1.082   .     S
C855   C856    1.398   .     A
C856   H872    1.083   .     S
C857   C858    1.418   .     A
C857   C859    1.428   .     A
C858   C241    1.390   1_556 S
C859   C239    1.427   1_556 S
C860   C861    1.416   .     A
C861   H866    1.076   .     S
C861   C862    1.387   .     A
C862   H863    1.084   .     S
H870   C923    1.082   .     S
H874   C976    1.088   1_455 S
H875   C908    1.086   .     S
O881   Zn897   1.929   .     S
O881   Zn894   1.971   .     S
O881   Zn895   1.938   .     S
O881   Zn896   1.941   .     S
O882   Zn895   1.937   .     S
O883   Zn897   1.947   .     S
O884   Zn896   1.935   .     S
O885   Zn894   1.926   .     S
O886   Zn894   1.932   .     S
O887   Zn897   1.941   .     S
O888   Zn895   1.925   .     S
O889   Zn896   1.936   .     S
O890   Zn897   1.929   .     S
O891   Zn894   1.921   .     S
O892   Zn895   1.949   .     S
O893   Zn896   1.936   .     S
C898   O959    1.268   .     A
C898   O957    1.268   .     A
C898   C908    1.437   .     S
C899   H936    1.075   .     S
C899   C900    1.384   .     A
C899   C928    1.416   .     A
C900   H948    1.085   .     S
C900   C281    1.388   1_556 S
C901   O960    1.284   .     A
C901   C907    1.456   .     S
C901   O958    1.288   .     A
C902   C903    1.421   .     A
C902   C904    1.403   .     A
C903   C929    1.428   .     A
C903   C906    1.411   .     A
C904   C905    1.389   .     A
C904   H942    1.084   .     S
C905   H947    1.083   .     S
C905   C917    1.393   .     A
C906   C917    1.393   .     A
C906   H946    1.077   .     S
C907   C977    1.335   .     S
C907   H1012   1.088   .     S
C909   H933    1.083   .     S
C909   C916    1.400   .     A
C909   C918    1.392   .     A
C910   C913    1.454   .     S
C910   C1118   1.346   .     S
C910   H1152   1.088   .     S
C911   C912    1.432   .     S
C912   O961    1.270   .     A
C912   O955    1.281   .     A
C913   O962    1.276   .     A
C913   O956    1.264   .     A
C914   O951    1.272   .     A
C914   O953    1.273   .     A
C914   C917    1.449   .     S
C915   O952    1.284   .     A
C915   C916    1.471   .     S
C915   O954    1.286   .     A
C916   C920    1.399   .     A
C918   C927    1.403   .     A
C918   H949    1.084   .     S
C919   C925    1.406   .     A
C919   C1118   1.486   .     S
C919   C1128   1.404   .     S
C920   C926    1.408   .     A
C920   H934    1.074   .     S
C921   H937    1.083   .     S
C922   H938    1.082   .     S
C922   C923    1.398   .     A
C922   C1128   1.399   .     S
C923   C924    1.398   .     A
C924   H940    1.082   .     S
C924   C925    1.398   .     A
C925   H941    1.083   .     S
C926   C927    1.418   .     A
C926   C928    1.428   .     A
C927   C310    1.390   1_556 S
C928   C308    1.427   1_556 S
C929   C930    1.416   .     A
C930   H935    1.076   .     S
C930   C931    1.387   .     A
C931   H932    1.084   .     S
H939   C992    1.082   .     S
H944   C977    1.086   .     S
O950   Zn966   1.929   .     S
O950   Zn963   1.971   .     S
O950   Zn964   1.938   .     S
O950   Zn965   1.941   .     S
O951   Zn964   1.937   .     S
O952   Zn966   1.947   .     S
O953   Zn965   1.935   .     S
O954   Zn963   1.926   .     S
O955   Zn963   1.932   .     S
O956   Zn966   1.941   .     S
O957   Zn964   1.925   .     S
O958   Zn965   1.936   .     S
O959   Zn966   1.929   .     S
O960   Zn963   1.921   .     S
O961   Zn964   1.949   .     S
O962   Zn965   1.936   .     S
C967   O1028   1.268   .     A
C967   O1026   1.268   .     A
C967   C977    1.437   .     S
C968   H1005   1.075   .     S
C968   C969    1.384   .     A
C968   C997    1.416   .     A
C969   H1017   1.085   .     S
C969   C350    1.388   1_556 S
C970   O1029   1.284   .     A
C970   C976    1.456   .     S
C970   O1027   1.288   .     A
C971   C972    1.421   .     A
C971   C973    1.403   .     A
C972   C998    1.428   .     A
C972   C975    1.411   .     A
C973   C974    1.389   .     A
C973   H1011   1.084   .     S
C974   H1016   1.083   .     S
C974   C986    1.393   .     A
C975   C986    1.393   .     A
C975   H1015   1.077   .     S
C976   C839    1.335   1_655 S
C976   H874    1.088   1_655 S
C978   H1002   1.083   .     S
C978   C985    1.400   .     A
C978   C987    1.392   .     A
C979   C982    1.454   .     S
C979   C1187   1.346   .     S
C979   H1221   1.088   .     S
C980   C981    1.432   .     S
C981   O1030   1.270   .     A
C981   O1024   1.281   .     A
C982   O1031   1.276   .     A
C982   O1025   1.264   .     A
C983   O1020   1.272   .     A
C983   O1022   1.273   .     A
C983   C986    1.449   .     S
C984   O1021   1.284   .     A
C984   C985    1.471   .     S
C984   O1023   1.286   .     A
C985   C989    1.399   .     A
C987   C996    1.403   .     A
C987   H1018   1.084   .     S
C988   C994    1.406   .     A
C988   C1187   1.486   .     S
C988   C1197   1.404   .     S
C989   C995    1.408   .     A
C989   H1003   1.074   .     S
C990   H1006   1.083   .     S
C991   H1007   1.082   .     S
C991   C992    1.398   .     A
C991   C1197   1.399   .     S
C992   C993    1.398   .     A
C993   H1009   1.082   .     S
C993   C994    1.398   .     A
C994   H1010   1.083   .     S
C995   C996    1.418   .     A
C995   C997    1.428   .     A
C996   C379    1.390   1_556 S
C997   C377    1.427   1_556 S
C998   C999    1.416   .     A
C999   H1004   1.076   .     S
C999   C1000   1.387   .     A
C1000  H1001   1.084   .     S
H1008  C854    1.082   1_655 S
H1013  C839    1.086   1_655 S
O1019  Zn1035  1.929   .     S
O1019  Zn1032  1.971   .     S
O1019  Zn1033  1.938   .     S
O1019  Zn1034  1.941   .     S
O1020  Zn1033  1.937   .     S
O1021  Zn1035  1.947   .     S
O1022  Zn1034  1.935   .     S
O1023  Zn1032  1.926   .     S
O1024  Zn1032  1.932   .     S
O1025  Zn1035  1.941   .     S
O1026  Zn1033  1.925   .     S
O1027  Zn1034  1.936   .     S
O1028  Zn1035  1.929   .     S
O1029  Zn1032  1.921   .     S
O1030  Zn1033  1.949   .     S
O1031  Zn1034  1.936   .     S
C1036  O1097   1.268   .     A
C1036  O1095   1.268   .     A
C1036  C1046   1.437   .     S
C1037  H1074   1.075   .     S
C1037  C1038   1.384   .     A
C1037  C1066   1.416   .     A
C1038  H1086   1.085   .     S
C1038  C419    1.388   1_556 S
C1039  O1098   1.284   .     A
C1039  C1045   1.456   .     S
C1039  O1096   1.288   .     A
C1040  C1041   1.421   .     A
C1040  C1042   1.403   .     A
C1041  C1067   1.428   .     A
C1041  C1044   1.411   .     A
C1042  C1043   1.389   .     A
C1042  H1080   1.084   .     S
C1043  H1085   1.083   .     S
C1043  C1055   1.393   .     A
C1044  C1055   1.393   .     A
C1044  H1084   1.077   .     S
C1045  C1115   1.335   .     S
C1045  H1150   1.088   .     S
C1046  C1183   1.335   1_455 S
C1046  H1220   1.086   1_455 S
C1047  H1071   1.083   .     S
C1047  C1054   1.400   .     A
C1047  C1056   1.392   .     A
C1048  C1051   1.454   .     S
C1048  C635    1.346   1_565 S
C1048  H669    1.088   1_565 S
C1049  C1050   1.432   .     S
C1050  O1099   1.270   .     A
C1050  O1093   1.281   .     A
C1051  O1100   1.276   .     A
C1051  O1094   1.264   .     A
C1052  O1089   1.272   .     A
C1052  O1091   1.273   .     A
C1052  C1055   1.449   .     S
C1053  O1090   1.284   .     A
C1053  C1054   1.471   .     S
C1053  O1092   1.286   .     A
C1054  C1058   1.399   .     A
C1056  C1065   1.403   .     A
C1056  H1087   1.084   .     S
C1057  C1063   1.406   .     A
C1057  C635    1.486   1_565 S
C1057  C645    1.404   1_565 S
C1058  C1064   1.408   .     A
C1058  H1072   1.074   .     S
C1059  H1075   1.083   .     S
C1060  H1076   1.082   .     S
C1060  C1061   1.398   .     A
C1060  C645    1.399   1_565 S
C1061  C1062   1.398   .     A
C1061  H1215   1.082   1_455 S
C1062  H1078   1.082   .     S
C1062  C1063   1.398   .     A
C1063  H1079   1.083   .     S
C1064  C1065   1.418   .     A
C1064  C1066   1.428   .     A
C1065  C448    1.390   1_556 S
C1066  C446    1.427   1_556 S
C1067  C1068   1.416   .     A
C1068  H1073   1.076   .     S
C1068  C1069   1.387   .     A
C1069  H1070   1.084   .     S
H1077  C1130   1.082   .     S
H1081  C1183   1.088   1_455 S
H1082  C1115   1.086   .     S
O1088  Zn1104  1.929   .     S
O1088  Zn1101  1.971   .     S
O1088  Zn1102  1.938   .     S
O1088  Zn1103  1.941   .     S
O1089  Zn1102  1.937   .     S
O1090  Zn1104  1.947   .     S
O1091  Zn1103  1.935   .     S
O1092  Zn1101  1.926   .     S
O1093  Zn1101  1.932   .     S
O1094  Zn1104  1.941   .     S
O1095  Zn1102  1.925   .     S
O1096  Zn1103  1.936   .     S
O1097  Zn1104  1.929   .     S
O1098  Zn1101  1.921   .     S
O1099  Zn1102  1.949   .     S
O1100  Zn1103  1.936   .     S
C1105  O1166   1.268   .     A
C1105  O1164   1.268   .     A
C1105  C1115   1.437   .     S
C1106  H1143   1.075   .     S
C1106  C1107   1.384   .     A
C1106  C1135   1.416   .     A
C1107  H1155   1.085   .     S
C1107  C488    1.388   1_556 S
C1108  O1167   1.284   .     A
C1108  C1114   1.456   .     S
C1108  O1165   1.288   .     A
C1109  C1110   1.421   .     A
C1109  C1111   1.403   .     A
C1110  C1136   1.428   .     A
C1110  C1113   1.411   .     A
C1111  C1112   1.389   .     A
C1111  H1149   1.084   .     S
C1112  H1154   1.083   .     S
C1112  C1124   1.393   .     A
C1113  C1124   1.393   .     A
C1113  H1153   1.077   .     S
C1114  C1184   1.335   .     S
C1114  H1219   1.088   .     S
C1116  H1140   1.083   .     S
C1116  C1123   1.400   .     A
C1116  C1125   1.392   .     A
C1117  C1120   1.454   .     S
C1117  C704    1.346   1_565 S
C1117  H738    1.088   1_565 S
C1118  C1119   1.432   .     S
C1119  O1168   1.270   .     A
C1119  O1162   1.281   .     A
C1120  O1169   1.276   .     A
C1120  O1163   1.264   .     A
C1121  O1158   1.272   .     A
C1121  O1160   1.273   .     A
C1121  C1124   1.449   .     S
C1122  O1159   1.284   .     A
C1122  C1123   1.471   .     S
C1122  O1161   1.286   .     A
C1123  C1127   1.399   .     A
C1125  C1134   1.403   .     A
C1125  H1156   1.084   .     S
C1126  C1132   1.406   .     A
C1126  C704    1.486   1_565 S
C1126  C714    1.404   1_565 S
C1127  C1133   1.408   .     A
C1127  H1141   1.074   .     S
C1128  H1144   1.083   .     S
C1129  H1145   1.082   .     S
C1129  C1130   1.398   .     A
C1129  C714    1.399   1_565 S
C1130  C1131   1.398   .     A
C1131  H1147   1.082   .     S
C1131  C1132   1.398   .     A
C1132  H1148   1.083   .     S
C1133  C1134   1.418   .     A
C1133  C1135   1.428   .     A
C1134  C517    1.390   1_556 S
C1135  C515    1.427   1_556 S
C1136  C1137   1.416   .     A
C1137  H1142   1.076   .     S
C1137  C1138   1.387   .     A
C1138  H1139   1.084   .     S
H1146  C1199   1.082   .     S
H1151  C1184   1.086   .     S
O1157  Zn1173  1.929   .     S
O1157  Zn1170  1.971   .     S
O1157  Zn1171  1.938   .     S
O1157  Zn1172  1.941   .     S
O1158  Zn1171  1.937   .     S
O1159  Zn1173  1.947   .     S
O1160  Zn1172  1.935   .     S
O1161  Zn1170  1.926   .     S
O1162  Zn1170  1.932   .     S
O1163  Zn1173  1.941   .     S
O1164  Zn1171  1.925   .     S
O1165  Zn1172  1.936   .     S
O1166  Zn1173  1.929   .     S
O1167  Zn1170  1.921   .     S
O1168  Zn1171  1.949   .     S
O1169  Zn1172  1.936   .     S
C1174  O1235   1.268   .     A
C1174  O1233   1.268   .     A
C1174  C1184   1.437   .     S
C1175  H1212   1.075   .     S
C1175  C1176   1.384   .     A
C1175  C1204   1.416   .     A
C1176  H1224   1.085   .     S
C1176  C557    1.388   1_556 S
C1177  O1236   1.284   .     A
C1177  C1183   1.456   .     S
C1177  O1234   1.288   .     A
C1178  C1179   1.421   .     A
C1178  C1180   1.403   .     A
C1179  C1205   1.428   .     A
C1179  C1182   1.411   .     A
C1180  C1181   1.389   .     A
C1180  H1218   1.084   .     S
C1181  H1223   1.083   .     S
C1181  C1193   1.393   .     A
C1182  C1193   1.393   .     A
C1182  H1222   1.077   .     S
C1183  C1046   1.335   1_655 S
C1183  H1081   1.088   1_655 S
C1185  H1209   1.083   .     S
C1185  C1192   1.400   .     A
C1185  C1194   1.392   .     A
C1186  C1189   1.454   .     S
C1186  C773    1.346   1_565 S
C1186  H807    1.088   1_565 S
C1187  C1188   1.432   .     S
C1188  O1237   1.270   .     A
C1188  O1231   1.281   .     A
C1189  O1238   1.276   .     A
C1189  O1232   1.264   .     A
C1190  O1227   1.272   .     A
C1190  O1229   1.273   .     A
C1190  C1193   1.449   .     S
C1191  O1228   1.284   .     A
C1191  C1192   1.471   .     S
C1191  O1230   1.286   .     A
C1192  C1196   1.399   .     A
C1194  C1203   1.403   .     A
C1194  H1225   1.084   .     S
C1195  C1201   1.406   .     A
C1195  C773    1.486   1_565 S
C1195  C783    1.404   1_565 S
C1196  C1202   1.408   .     A
C1196  H1210   1.074   .     S
C1197  H1213   1.083   .     S
C1198  H1214   1.082   .     S
C1198  C1199   1.398   .     A
C1198  C783    1.399   1_565 S
C1199  C1200   1.398   .     A
C1200  H1216   1.082   .     S
C1200  C1201   1.398   .     A
C1201  H1217   1.083   .     S
C1202  C1203   1.418   .     A
C1202  C1204   1.428   .     A
C1203  C586    1.390   1_556 S
C1204  C584    1.427   1_556 S
C1205  C1206   1.416   .     A
C1206  H1211   1.076   .     S
C1206  C1207   1.387   .     A
C1207  H1208   1.084   .     S
H1215  C1061   1.082   1_655 S
H1220  C1046   1.086   1_655 S
O1226  Zn1242  1.929   .     S
O1226  Zn1239  1.971   .     S
O1226  Zn1240  1.938   .     S
O1226  Zn1241  1.941   .     S
O1227  Zn1240  1.937   .     S
O1228  Zn1242  1.947   .     S
O1229  Zn1241  1.935   .     S
O1230  Zn1239  1.926   .     S
O1231  Zn1239  1.932   .     S
O1232  Zn1242  1.941   .     S
O1233  Zn1240  1.925   .     S
O1234  Zn1241  1.936   .     S
O1235  Zn1242  1.929   .     S
O1236  Zn1239  1.921   .     S
O1237  Zn1240  1.949   .     S
O1238  Zn1241  1.936   .     S
