data_str_m1_o10_o18_pcu_sym.218
_audit_creation_date              2020-01-03
_audit_creation_method            'Materials Studio'
_symmetry_space_group_name_H-M    'P1'
_symmetry_Int_Tables_number       1
_symmetry_cell_setting            triclinic
loop_
_symmetry_equiv_pos_as_xyz
  x,y,z
_cell_length_a                    32.6033
_cell_length_b                    32.5781
_cell_length_c                    35.4538
_cell_angle_alpha                 98.4393
_cell_angle_beta                  73.0145
_cell_angle_gamma                 99.0884
loop_
_atom_site_label
_atom_site_type_symbol
_atom_site_fract_x
_atom_site_fract_y
_atom_site_fract_z
_atom_site_U_iso_or_equiv
_atom_site_adp_type
_atom_site_occupancy
C1     C     0.05235   0.15932   0.25904   0.00000  Uiso   1.00
C2     C     0.19788   0.12259   0.45663   0.00000  Uiso   1.00
C3     C     0.22281   0.10930   0.47745   0.00000  Uiso   1.00
C4     C     0.28112   0.17429   0.24151   0.00000  Uiso   1.00
C5     C     0.21283   0.11673   0.01864   0.00000  Uiso   1.00
C6     C     0.17563   0.13596   0.04009   0.00000  Uiso   1.00
C7     C     0.23935   0.10452   0.03871   0.00000  Uiso   1.00
C8     C     0.23023   0.11275   0.07974   0.00000  Uiso   1.00
C9     C     0.17013   0.14900   0.08117   0.00000  Uiso   1.00
C10    C     0.32704   0.18013   0.23941   0.00000  Uiso   1.00
C11    C     0.00752   0.15651   0.26022   0.00000  Uiso   1.00
C12    C     0.08960   0.20207   0.42191   0.00000  Uiso   1.00
C13    C     0.18495   0.32337   0.24183   0.00000  Uiso   1.00
C14    C     0.15187   0.01171   0.26057   0.00000  Uiso   1.00
C15    C     0.15586   0.05601   0.25871   0.00000  Uiso   1.00
C16    C     0.17772   0.27791   0.24201   0.00000  Uiso   1.00
C17    C     0.18803   0.14527   0.14378   0.00000  Uiso   1.00
C18    C     0.14514   0.18752   0.35642   0.00000  Uiso   1.00
C19    C     0.13017   0.18975   0.40023   0.00000  Uiso   1.00
C20    C     0.19661   0.13592   0.10082   0.00000  Uiso   1.00
C21    C     0.07086   0.19137   0.46080   0.00000  Uiso   1.00
C22    C     0.03082   0.20040   0.06989   0.00000  Uiso   1.00
C23    C     0.15443   0.17345   0.41970   0.00000  Uiso   1.00
C24    C     0.32085   0.19265   0.10108   0.00000  Uiso   1.00
C25    C     0.31768   0.15262   0.11998   0.00000  Uiso   1.00
C26    C     0.05349   0.19969   0.18806   0.00000  Uiso   1.00
C27    C     0.25879   0.00518   0.23293   0.00000  Uiso   1.00
C28    C     0.26385   0.03927   0.26650   0.00000  Uiso   1.00
C29    C     0.30430   0.03684   0.27906   0.00000  Uiso   1.00
C30    C     0.15866   0.21719   0.09558   0.00000  Uiso   1.00
C31    C     0.33260   0.16989   0.46928   0.00000  Uiso   1.00
C32    C     0.08169   0.26513   0.40525   0.00000  Uiso   1.00
C33    C     0.05790   0.28957   0.44370   0.00000  Uiso   1.00
C34    C     0.13711   0.16293   0.45877   0.00000  Uiso   1.00
C35    C     0.07159   0.00320   0.44308   0.00000  Uiso   1.00
C36    C     0.07182   0.08769   0.06702   0.00000  Uiso   1.00
C37    C     0.18240   0.07497   0.40767   0.00000  Uiso   1.00
C38    C     0.09495   0.17304   0.48005   0.00000  Uiso   1.00
C39    C     0.16121   0.14368   0.47757   0.00000  Uiso   1.00
C40    C     0.14675   0.14351   0.01931   0.00000  Uiso   1.00
C41    C     0.10270   0.14707   0.03836   0.00000  Uiso   1.00
C42    C     0.07763   0.16393   0.01978   0.00000  Uiso   1.00
H43    H     0.26688   0.08820   0.02269   0.00000  Uiso   1.00
H44    H     0.29407   0.19020   0.08706   0.00000  Uiso   1.00
H45    H     0.31988   0.12511   0.09730   0.00000  Uiso   1.00
H46    H     0.28655   0.14813   0.14315   0.00000  Uiso   1.00
H47    H     0.01089   0.15434   0.13387   0.00000  Uiso   1.00
H48    H     0.05020   0.16532   0.17920   0.00000  Uiso   1.00
H49    H     0.08489   0.20924   0.19509   0.00000  Uiso   1.00
H50    H     0.05452   0.21551   0.16208   0.00000  Uiso   1.00
H51    H     0.28835   0.00853   0.20766   0.00000  Uiso   1.00
H52    H     0.25714   0.30719   0.24266   0.00000  Uiso   1.00
H53    H     0.26610   0.07042   0.25637   0.00000  Uiso   1.00
H54    H     0.31946   0.13114   0.27507   0.00000  Uiso   1.00
H55    H     0.23518   0.03561   0.29257   0.00000  Uiso   1.00
H56    H     0.30296   0.00575   0.28900   0.00000  Uiso   1.00
H57    H     0.30642   0.06122   0.30406   0.00000  Uiso   1.00
H58    H     0.00034   0.04220   0.25397   0.00000  Uiso   1.00
H59    H     0.16549   0.22219   0.06384   0.00000  Uiso   1.00
H60    H     0.18858   0.22566   0.10553   0.00000  Uiso   1.00
H61    H     0.13510   0.23865   0.11319   0.00000  Uiso   1.00
H62    H     0.00373   0.13843   0.47508   0.00000  Uiso   1.00
H63    H     0.00053   0.16970   0.43758   0.00000  Uiso   1.00
H64    H     0.29981   0.17650   0.48730   0.00000  Uiso   1.00
H65    H     0.12033   0.32974   0.27539   0.00000  Uiso   1.00
H66    H     0.07514   0.27669   0.37986   0.00000  Uiso   1.00
H67    H     0.11737   0.27171   0.40078   0.00000  Uiso   1.00
H68    H     0.02248   0.28299   0.44761   0.00000  Uiso   1.00
H69    H     0.06523   0.27960   0.46941   0.00000  Uiso   1.00
H70    H     0.10669   0.01040   0.44045   0.00000  Uiso   1.00
H71    H     0.05358   0.02002   0.47111   0.00000  Uiso   1.00
H72    H     0.06453   0.01444   0.41780   0.00000  Uiso   1.00
H73    H     0.10130   0.07161   0.05435   0.00000  Uiso   1.00
H74    H     0.05416   0.07533   0.09567   0.00000  Uiso   1.00
H75    H     0.05014   0.08012   0.04716   0.00000  Uiso   1.00
H76    H     0.24958   0.10130   0.09508   0.00000  Uiso   1.00
H77    H     0.14769   0.07984   0.41670   0.00000  Uiso   1.00
H78    H     0.18717   0.04864   0.42209   0.00000  Uiso   1.00
H79    H     0.19173   0.06601   0.37515   0.00000  Uiso   1.00
H80    H     0.25054   0.09341   0.46102   0.00000  Uiso   1.00
H81    H     0.18748   0.17002   0.40364   0.00000  Uiso   1.00
H82    H     0.03172   0.22988   0.05719   0.00000  Uiso   1.00
H83    H     0.05700   0.20495   0.08506   0.00000  Uiso   1.00
H84    H     0.31733   0.21952   0.12458   0.00000  Uiso   1.00
O85    O     0.16667   0.16667   0.25000   0.00000  Uiso   1.00
O86    O     0.15693   0.12393   0.16625   0.00000  Uiso   1.00
O87    O     0.12687   0.20646   0.33749   0.00000  Uiso   1.00
O88    O     0.21088   0.17493   0.15877   0.00000  Uiso   1.00
O89    O     0.17198   0.16135   0.33749   0.00000  Uiso   1.00
O90    O     0.03455   0.16682   0.03931   0.00000  Uiso   1.00
O91    O     0.01983   0.21350   0.22061   0.00000  Uiso   1.00
O92    O     0.22328   0.01000   0.21920   0.00000  Uiso   1.00
O93    O     0.14032   0.17580   0.10226   0.00000  Uiso   1.00
O94    O     0.02977   0.20139   0.48059   0.00000  Uiso   1.00
O95    O     0.06618   0.22192   0.40469   0.00000  Uiso   1.00
O96    O     0.17849   0.08101   0.27821   0.00000  Uiso   1.00
O97    O     0.08247   0.13124   0.07426   0.00000  Uiso   1.00
O98    O     0.20871   0.11189   0.41606   0.00000  Uiso   1.00
O99    O     0.14581   0.26136   0.26767   0.00000  Uiso   1.00
O100   O     0.07452   0.13251   0.23607   0.00000  Uiso   1.00
O101   O     0.26785   0.19179   0.21805   0.00000  Uiso   1.00
O102   O     0.06990   0.18960   0.27820   0.00000  Uiso   1.00
O103   O     0.25440   0.15277   0.26768   0.00000  Uiso   1.00
O104   O     0.13800   0.06903   0.23607   0.00000  Uiso   1.00
O105   O     0.20437   0.25527   0.21805   0.00000  Uiso   1.00
Zn106  Zn    0.19244   0.14090   0.28278   0.00000  Uiso   1.00
Zn107  Zn    0.13459   0.12378   0.22258   0.00000  Uiso   1.00
Zn108  Zn    0.21166   0.19664   0.21188   0.00000  Uiso   1.00
Zn109  Zn    0.12798   0.20535   0.28277   0.00000  Uiso   1.00
C110   C     0.38569   0.15932   0.25904   0.00000  Uiso   1.00
C111   C     0.53121   0.12259   0.45663   0.00000  Uiso   1.00
C112   C     0.55615   0.10930   0.47745   0.00000  Uiso   1.00
C113   C     0.61445   0.17429   0.24151   0.00000  Uiso   1.00
C114   C     0.54616   0.11673   0.01864   0.00000  Uiso   1.00
C115   C     0.50896   0.13596   0.04009   0.00000  Uiso   1.00
C116   C     0.57269   0.10452   0.03871   0.00000  Uiso   1.00
C117   C     0.56357   0.11275   0.07974   0.00000  Uiso   1.00
C118   C     0.50346   0.14900   0.08117   0.00000  Uiso   1.00
C119   C     0.66038   0.18013   0.23941   0.00000  Uiso   1.00
C120   C     0.34085   0.15651   0.26022   0.00000  Uiso   1.00
C121   C     0.42293   0.20207   0.42191   0.00000  Uiso   1.00
C122   C     0.51828   0.32337   0.24183   0.00000  Uiso   1.00
C123   C     0.48520   0.01171   0.26057   0.00000  Uiso   1.00
C124   C     0.48920   0.05601   0.25871   0.00000  Uiso   1.00
C125   C     0.51105   0.27791   0.24201   0.00000  Uiso   1.00
C126   C     0.52136   0.14527   0.14378   0.00000  Uiso   1.00
C127   C     0.47848   0.18752   0.35642   0.00000  Uiso   1.00
C128   C     0.46350   0.18975   0.40023   0.00000  Uiso   1.00
C129   C     0.52994   0.13592   0.10082   0.00000  Uiso   1.00
C130   C     0.40420   0.19137   0.46080   0.00000  Uiso   1.00
C131   C     0.36415   0.20040   0.06989   0.00000  Uiso   1.00
C132   C     0.48776   0.17345   0.41970   0.00000  Uiso   1.00
C133   C     0.65418   0.19265   0.10108   0.00000  Uiso   1.00
C134   C     0.65102   0.15262   0.11998   0.00000  Uiso   1.00
C135   C     0.38682   0.19969   0.18806   0.00000  Uiso   1.00
C136   C     0.59213   0.00518   0.23293   0.00000  Uiso   1.00
C137   C     0.59719   0.03927   0.26650   0.00000  Uiso   1.00
C138   C     0.63763   0.03684   0.27906   0.00000  Uiso   1.00
C139   C     0.49199   0.21719   0.09558   0.00000  Uiso   1.00
C140   C     0.66593   0.16989   0.46928   0.00000  Uiso   1.00
C141   C     0.41502   0.26513   0.40525   0.00000  Uiso   1.00
C142   C     0.39123   0.28957   0.44370   0.00000  Uiso   1.00
C143   C     0.47044   0.16293   0.45877   0.00000  Uiso   1.00
C144   C     0.40492   0.00320   0.44308   0.00000  Uiso   1.00
C145   C     0.40515   0.08769   0.06702   0.00000  Uiso   1.00
C146   C     0.51573   0.07497   0.40767   0.00000  Uiso   1.00
C147   C     0.42828   0.17304   0.48005   0.00000  Uiso   1.00
C148   C     0.49454   0.14368   0.47757   0.00000  Uiso   1.00
C149   C     0.48009   0.14351   0.01931   0.00000  Uiso   1.00
C150   C     0.43604   0.14707   0.03836   0.00000  Uiso   1.00
C151   C     0.41096   0.16393   0.01978   0.00000  Uiso   1.00
H152   H     0.60021   0.08820   0.02269   0.00000  Uiso   1.00
H153   H     0.62740   0.19020   0.08706   0.00000  Uiso   1.00
H154   H     0.65321   0.12511   0.09730   0.00000  Uiso   1.00
H155   H     0.61988   0.14813   0.14315   0.00000  Uiso   1.00
H156   H     0.34422   0.15434   0.13387   0.00000  Uiso   1.00
H157   H     0.38353   0.16532   0.17920   0.00000  Uiso   1.00
H158   H     0.41822   0.20924   0.19509   0.00000  Uiso   1.00
H159   H     0.38786   0.21551   0.16208   0.00000  Uiso   1.00
H160   H     0.62168   0.00853   0.20766   0.00000  Uiso   1.00
H161   H     0.59048   0.30719   0.24266   0.00000  Uiso   1.00
H162   H     0.59943   0.07042   0.25637   0.00000  Uiso   1.00
H163   H     0.65279   0.13114   0.27507   0.00000  Uiso   1.00
H164   H     0.56851   0.03561   0.29257   0.00000  Uiso   1.00
H165   H     0.63629   0.00575   0.28900   0.00000  Uiso   1.00
H166   H     0.63976   0.06122   0.30406   0.00000  Uiso   1.00
H167   H     0.33368   0.04220   0.25397   0.00000  Uiso   1.00
H168   H     0.49883   0.22219   0.06384   0.00000  Uiso   1.00
H169   H     0.52191   0.22566   0.10553   0.00000  Uiso   1.00
H170   H     0.46843   0.23865   0.11319   0.00000  Uiso   1.00
H171   H     0.33706   0.13843   0.47508   0.00000  Uiso   1.00
H172   H     0.33386   0.16970   0.43758   0.00000  Uiso   1.00
H173   H     0.63315   0.17650   0.48730   0.00000  Uiso   1.00
H174   H     0.45367   0.32974   0.27539   0.00000  Uiso   1.00
H175   H     0.40847   0.27669   0.37986   0.00000  Uiso   1.00
H176   H     0.45070   0.27171   0.40078   0.00000  Uiso   1.00
H177   H     0.35581   0.28299   0.44761   0.00000  Uiso   1.00
H178   H     0.39857   0.27960   0.46941   0.00000  Uiso   1.00
H179   H     0.44002   0.01040   0.44045   0.00000  Uiso   1.00
H180   H     0.38691   0.02002   0.47111   0.00000  Uiso   1.00
H181   H     0.39786   0.01444   0.41780   0.00000  Uiso   1.00
H182   H     0.43463   0.07161   0.05435   0.00000  Uiso   1.00
H183   H     0.38750   0.07533   0.09567   0.00000  Uiso   1.00
H184   H     0.38347   0.08012   0.04716   0.00000  Uiso   1.00
H185   H     0.58291   0.10130   0.09508   0.00000  Uiso   1.00
H186   H     0.48103   0.07984   0.41670   0.00000  Uiso   1.00
H187   H     0.52051   0.04864   0.42209   0.00000  Uiso   1.00
H188   H     0.52507   0.06601   0.37515   0.00000  Uiso   1.00
H189   H     0.58387   0.09341   0.46102   0.00000  Uiso   1.00
H190   H     0.52082   0.17002   0.40364   0.00000  Uiso   1.00
H191   H     0.36506   0.22988   0.05719   0.00000  Uiso   1.00
H192   H     0.39033   0.20495   0.08506   0.00000  Uiso   1.00
H193   H     0.65066   0.21952   0.12458   0.00000  Uiso   1.00
O194   O     0.50000   0.16667   0.25000   0.00000  Uiso   1.00
O195   O     0.49027   0.12393   0.16625   0.00000  Uiso   1.00
O196   O     0.46020   0.20646   0.33749   0.00000  Uiso   1.00
O197   O     0.54421   0.17493   0.15877   0.00000  Uiso   1.00
O198   O     0.50532   0.16135   0.33749   0.00000  Uiso   1.00
O199   O     0.36789   0.16682   0.03931   0.00000  Uiso   1.00
O200   O     0.35316   0.21350   0.22061   0.00000  Uiso   1.00
O201   O     0.55661   0.01000   0.21920   0.00000  Uiso   1.00
O202   O     0.47365   0.17580   0.10226   0.00000  Uiso   1.00
O203   O     0.36310   0.20139   0.48059   0.00000  Uiso   1.00
O204   O     0.39951   0.22192   0.40469   0.00000  Uiso   1.00
O205   O     0.51182   0.08101   0.27821   0.00000  Uiso   1.00
O206   O     0.41580   0.13124   0.07426   0.00000  Uiso   1.00
O207   O     0.54204   0.11189   0.41606   0.00000  Uiso   1.00
O208   O     0.47914   0.26136   0.26767   0.00000  Uiso   1.00
O209   O     0.40785   0.13251   0.23607   0.00000  Uiso   1.00
O210   O     0.60119   0.19179   0.21805   0.00000  Uiso   1.00
O211   O     0.40323   0.18960   0.27820   0.00000  Uiso   1.00
O212   O     0.58773   0.15277   0.26768   0.00000  Uiso   1.00
O213   O     0.47133   0.06903   0.23607   0.00000  Uiso   1.00
O214   O     0.53771   0.25527   0.21805   0.00000  Uiso   1.00
Zn215  Zn    0.52577   0.14090   0.28278   0.00000  Uiso   1.00
Zn216  Zn    0.46792   0.12378   0.22258   0.00000  Uiso   1.00
Zn217  Zn    0.54500   0.19664   0.21188   0.00000  Uiso   1.00
Zn218  Zn    0.46131   0.20535   0.28277   0.00000  Uiso   1.00
C219   C     0.71902   0.15932   0.25904   0.00000  Uiso   1.00
C220   C     0.86455   0.12259   0.45663   0.00000  Uiso   1.00
C221   C     0.88948   0.10930   0.47745   0.00000  Uiso   1.00
C222   C     0.94779   0.17429   0.24151   0.00000  Uiso   1.00
C223   C     0.87949   0.11673   0.01864   0.00000  Uiso   1.00
C224   C     0.84230   0.13596   0.04009   0.00000  Uiso   1.00
C225   C     0.90602   0.10452   0.03871   0.00000  Uiso   1.00
C226   C     0.89690   0.11275   0.07974   0.00000  Uiso   1.00
C227   C     0.83680   0.14900   0.08117   0.00000  Uiso   1.00
C228   C     0.99371   0.18013   0.23941   0.00000  Uiso   1.00
C229   C     0.67418   0.15651   0.26022   0.00000  Uiso   1.00
C230   C     0.75626   0.20207   0.42191   0.00000  Uiso   1.00
C231   C     0.85161   0.32337   0.24183   0.00000  Uiso   1.00
C232   C     0.81854   0.01171   0.26057   0.00000  Uiso   1.00
C233   C     0.82253   0.05601   0.25871   0.00000  Uiso   1.00
C234   C     0.84438   0.27791   0.24201   0.00000  Uiso   1.00
C235   C     0.85469   0.14527   0.14378   0.00000  Uiso   1.00
C236   C     0.81181   0.18752   0.35642   0.00000  Uiso   1.00
C237   C     0.79683   0.18975   0.40023   0.00000  Uiso   1.00
C238   C     0.86327   0.13592   0.10082   0.00000  Uiso   1.00
C239   C     0.73753   0.19137   0.46080   0.00000  Uiso   1.00
C240   C     0.69748   0.20040   0.06989   0.00000  Uiso   1.00
C241   C     0.82110   0.17345   0.41970   0.00000  Uiso   1.00
C242   C     0.98752   0.19265   0.10108   0.00000  Uiso   1.00
C243   C     0.98435   0.15262   0.11998   0.00000  Uiso   1.00
C244   C     0.72016   0.19969   0.18806   0.00000  Uiso   1.00
C245   C     0.92546   0.00518   0.23293   0.00000  Uiso   1.00
C246   C     0.93052   0.03927   0.26650   0.00000  Uiso   1.00
C247   C     0.97096   0.03684   0.27906   0.00000  Uiso   1.00
C248   C     0.82533   0.21719   0.09558   0.00000  Uiso   1.00
C249   C     0.99926   0.16989   0.46928   0.00000  Uiso   1.00
C250   C     0.74836   0.26513   0.40525   0.00000  Uiso   1.00
C251   C     0.72456   0.28957   0.44370   0.00000  Uiso   1.00
C252   C     0.80378   0.16293   0.45877   0.00000  Uiso   1.00
C253   C     0.73826   0.00320   0.44308   0.00000  Uiso   1.00
C254   C     0.73848   0.08769   0.06702   0.00000  Uiso   1.00
C255   C     0.84906   0.07497   0.40767   0.00000  Uiso   1.00
C256   C     0.76161   0.17304   0.48005   0.00000  Uiso   1.00
C257   C     0.82787   0.14368   0.47757   0.00000  Uiso   1.00
C258   C     0.81342   0.14351   0.01931   0.00000  Uiso   1.00
C259   C     0.76937   0.14707   0.03836   0.00000  Uiso   1.00
C260   C     0.74430   0.16393   0.01978   0.00000  Uiso   1.00
H261   H     0.93354   0.08820   0.02269   0.00000  Uiso   1.00
H262   H     0.96073   0.19020   0.08706   0.00000  Uiso   1.00
H263   H     0.98654   0.12511   0.09730   0.00000  Uiso   1.00
H264   H     0.95321   0.14813   0.14315   0.00000  Uiso   1.00
H265   H     0.67755   0.15434   0.13387   0.00000  Uiso   1.00
H266   H     0.71687   0.16532   0.17920   0.00000  Uiso   1.00
H267   H     0.75155   0.20924   0.19509   0.00000  Uiso   1.00
H268   H     0.72119   0.21551   0.16208   0.00000  Uiso   1.00
H269   H     0.95502   0.00853   0.20766   0.00000  Uiso   1.00
H270   H     0.92381   0.30719   0.24266   0.00000  Uiso   1.00
H271   H     0.93276   0.07042   0.25637   0.00000  Uiso   1.00
H272   H     0.98613   0.13114   0.27507   0.00000  Uiso   1.00
H273   H     0.90184   0.03561   0.29257   0.00000  Uiso   1.00
H274   H     0.96962   0.00575   0.28900   0.00000  Uiso   1.00
H275   H     0.97309   0.06122   0.30406   0.00000  Uiso   1.00
H276   H     0.66701   0.04220   0.25397   0.00000  Uiso   1.00
H277   H     0.83216   0.22219   0.06384   0.00000  Uiso   1.00
H278   H     0.85525   0.22566   0.10553   0.00000  Uiso   1.00
H279   H     0.80176   0.23865   0.11319   0.00000  Uiso   1.00
H280   H     0.67040   0.13843   0.47508   0.00000  Uiso   1.00
H281   H     0.66719   0.16970   0.43758   0.00000  Uiso   1.00
H282   H     0.96648   0.17650   0.48730   0.00000  Uiso   1.00
H283   H     0.78700   0.32974   0.27539   0.00000  Uiso   1.00
H284   H     0.74181   0.27669   0.37986   0.00000  Uiso   1.00
H285   H     0.78403   0.27171   0.40078   0.00000  Uiso   1.00
H286   H     0.68915   0.28299   0.44761   0.00000  Uiso   1.00
H287   H     0.73190   0.27960   0.46941   0.00000  Uiso   1.00
H288   H     0.77335   0.01040   0.44045   0.00000  Uiso   1.00
H289   H     0.72024   0.02002   0.47111   0.00000  Uiso   1.00
H290   H     0.73119   0.01444   0.41780   0.00000  Uiso   1.00
H291   H     0.76797   0.07161   0.05435   0.00000  Uiso   1.00
H292   H     0.72083   0.07533   0.09567   0.00000  Uiso   1.00
H293   H     0.71680   0.08012   0.04716   0.00000  Uiso   1.00
H294   H     0.91624   0.10130   0.09508   0.00000  Uiso   1.00
H295   H     0.81436   0.07984   0.41670   0.00000  Uiso   1.00
H296   H     0.85384   0.04864   0.42209   0.00000  Uiso   1.00
H297   H     0.85840   0.06601   0.37515   0.00000  Uiso   1.00
H298   H     0.91720   0.09341   0.46102   0.00000  Uiso   1.00
H299   H     0.85415   0.17002   0.40364   0.00000  Uiso   1.00
H300   H     0.69839   0.22988   0.05719   0.00000  Uiso   1.00
H301   H     0.72367   0.20495   0.08506   0.00000  Uiso   1.00
H302   H     0.98400   0.21952   0.12458   0.00000  Uiso   1.00
O303   O     0.83333   0.16667   0.25000   0.00000  Uiso   1.00
O304   O     0.82360   0.12393   0.16625   0.00000  Uiso   1.00
O305   O     0.79354   0.20646   0.33749   0.00000  Uiso   1.00
O306   O     0.87755   0.17493   0.15877   0.00000  Uiso   1.00
O307   O     0.83865   0.16135   0.33749   0.00000  Uiso   1.00
O308   O     0.70122   0.16682   0.03931   0.00000  Uiso   1.00
O309   O     0.68649   0.21350   0.22061   0.00000  Uiso   1.00
O310   O     0.88995   0.01000   0.21920   0.00000  Uiso   1.00
O311   O     0.80699   0.17580   0.10226   0.00000  Uiso   1.00
O312   O     0.69643   0.20139   0.48059   0.00000  Uiso   1.00
O313   O     0.73285   0.22192   0.40469   0.00000  Uiso   1.00
O314   O     0.84515   0.08101   0.27821   0.00000  Uiso   1.00
O315   O     0.74914   0.13124   0.07426   0.00000  Uiso   1.00
O316   O     0.87537   0.11189   0.41606   0.00000  Uiso   1.00
O317   O     0.81247   0.26136   0.26767   0.00000  Uiso   1.00
O318   O     0.74119   0.13251   0.23607   0.00000  Uiso   1.00
O319   O     0.93452   0.19179   0.21805   0.00000  Uiso   1.00
O320   O     0.73656   0.18960   0.27820   0.00000  Uiso   1.00
O321   O     0.92106   0.15277   0.26768   0.00000  Uiso   1.00
O322   O     0.80467   0.06903   0.23607   0.00000  Uiso   1.00
O323   O     0.87104   0.25527   0.21805   0.00000  Uiso   1.00
Zn324  Zn    0.85910   0.14090   0.28278   0.00000  Uiso   1.00
Zn325  Zn    0.80125   0.12378   0.22258   0.00000  Uiso   1.00
Zn326  Zn    0.87833   0.19664   0.21188   0.00000  Uiso   1.00
Zn327  Zn    0.79465   0.20535   0.28277   0.00000  Uiso   1.00
C328   C     0.05235   0.49265   0.25904   0.00000  Uiso   1.00
C329   C     0.19788   0.45592   0.45663   0.00000  Uiso   1.00
C330   C     0.22281   0.44264   0.47745   0.00000  Uiso   1.00
C331   C     0.28112   0.50762   0.24151   0.00000  Uiso   1.00
C332   C     0.21283   0.45006   0.01864   0.00000  Uiso   1.00
C333   C     0.17563   0.46929   0.04009   0.00000  Uiso   1.00
C334   C     0.23935   0.43786   0.03871   0.00000  Uiso   1.00
C335   C     0.23023   0.44608   0.07974   0.00000  Uiso   1.00
C336   C     0.17013   0.48234   0.08117   0.00000  Uiso   1.00
C337   C     0.32704   0.51346   0.23941   0.00000  Uiso   1.00
C338   C     0.00752   0.48984   0.26022   0.00000  Uiso   1.00
C339   C     0.08960   0.53541   0.42191   0.00000  Uiso   1.00
C340   C     0.18495   0.65670   0.24183   0.00000  Uiso   1.00
C341   C     0.15187   0.34504   0.26057   0.00000  Uiso   1.00
C342   C     0.15586   0.38934   0.25871   0.00000  Uiso   1.00
C343   C     0.17772   0.61125   0.24201   0.00000  Uiso   1.00
C344   C     0.18803   0.47861   0.14378   0.00000  Uiso   1.00
C345   C     0.14514   0.52086   0.35642   0.00000  Uiso   1.00
C346   C     0.13017   0.52308   0.40023   0.00000  Uiso   1.00
C347   C     0.19661   0.46926   0.10082   0.00000  Uiso   1.00
C348   C     0.07086   0.52471   0.46080   0.00000  Uiso   1.00
C349   C     0.03082   0.53374   0.06989   0.00000  Uiso   1.00
C350   C     0.15443   0.50678   0.41970   0.00000  Uiso   1.00
C351   C     0.32085   0.52598   0.10108   0.00000  Uiso   1.00
C352   C     0.31768   0.48596   0.11998   0.00000  Uiso   1.00
C353   C     0.05349   0.53302   0.18806   0.00000  Uiso   1.00
C354   C     0.25879   0.33851   0.23293   0.00000  Uiso   1.00
C355   C     0.26385   0.37260   0.26650   0.00000  Uiso   1.00
C356   C     0.30430   0.37017   0.27906   0.00000  Uiso   1.00
C357   C     0.15866   0.55052   0.09558   0.00000  Uiso   1.00
C358   C     0.33260   0.50322   0.46928   0.00000  Uiso   1.00
C359   C     0.08169   0.59847   0.40525   0.00000  Uiso   1.00
C360   C     0.05790   0.62291   0.44370   0.00000  Uiso   1.00
C361   C     0.13711   0.49627   0.45877   0.00000  Uiso   1.00
C362   C     0.07159   0.33654   0.44308   0.00000  Uiso   1.00
C363   C     0.07182   0.42103   0.06702   0.00000  Uiso   1.00
C364   C     0.18240   0.40831   0.40767   0.00000  Uiso   1.00
C365   C     0.09495   0.50637   0.48005   0.00000  Uiso   1.00
C366   C     0.16121   0.47701   0.47757   0.00000  Uiso   1.00
C367   C     0.14675   0.47684   0.01931   0.00000  Uiso   1.00
C368   C     0.10270   0.48040   0.03836   0.00000  Uiso   1.00
C369   C     0.07763   0.49726   0.01978   0.00000  Uiso   1.00
H370   H     0.26688   0.42154   0.02269   0.00000  Uiso   1.00
H371   H     0.29407   0.52353   0.08706   0.00000  Uiso   1.00
H372   H     0.31988   0.45844   0.09730   0.00000  Uiso   1.00
H373   H     0.28655   0.48146   0.14315   0.00000  Uiso   1.00
H374   H     0.01089   0.48767   0.13387   0.00000  Uiso   1.00
H375   H     0.05020   0.49865   0.17920   0.00000  Uiso   1.00
H376   H     0.08489   0.54257   0.19509   0.00000  Uiso   1.00
H377   H     0.05452   0.54885   0.16208   0.00000  Uiso   1.00
H378   H     0.28835   0.34186   0.20766   0.00000  Uiso   1.00
H379   H     0.25714   0.64052   0.24266   0.00000  Uiso   1.00
H380   H     0.26610   0.40375   0.25637   0.00000  Uiso   1.00
H381   H     0.31946   0.46447   0.27507   0.00000  Uiso   1.00
H382   H     0.23518   0.36894   0.29257   0.00000  Uiso   1.00
H383   H     0.30296   0.33908   0.28900   0.00000  Uiso   1.00
H384   H     0.30642   0.39455   0.30406   0.00000  Uiso   1.00
H385   H     0.00034   0.37553   0.25397   0.00000  Uiso   1.00
H386   H     0.16549   0.55553   0.06384   0.00000  Uiso   1.00
H387   H     0.18858   0.55899   0.10553   0.00000  Uiso   1.00
H388   H     0.13510   0.57198   0.11319   0.00000  Uiso   1.00
H389   H     0.00373   0.47176   0.47508   0.00000  Uiso   1.00
H390   H     0.00053   0.50303   0.43758   0.00000  Uiso   1.00
H391   H     0.29981   0.50984   0.48730   0.00000  Uiso   1.00
H392   H     0.12033   0.66307   0.27539   0.00000  Uiso   1.00
H393   H     0.07514   0.61002   0.37986   0.00000  Uiso   1.00
H394   H     0.11737   0.60504   0.40078   0.00000  Uiso   1.00
H395   H     0.02248   0.61633   0.44761   0.00000  Uiso   1.00
H396   H     0.06523   0.61293   0.46941   0.00000  Uiso   1.00
H397   H     0.10669   0.34373   0.44045   0.00000  Uiso   1.00
H398   H     0.05358   0.35335   0.47111   0.00000  Uiso   1.00
H399   H     0.06453   0.34778   0.41780   0.00000  Uiso   1.00
H400   H     0.10130   0.40494   0.05435   0.00000  Uiso   1.00
H401   H     0.05416   0.40867   0.09567   0.00000  Uiso   1.00
H402   H     0.05014   0.41346   0.04716   0.00000  Uiso   1.00
H403   H     0.24958   0.43463   0.09508   0.00000  Uiso   1.00
H404   H     0.14769   0.41318   0.41670   0.00000  Uiso   1.00
H405   H     0.18717   0.38197   0.42209   0.00000  Uiso   1.00
H406   H     0.19173   0.39934   0.37515   0.00000  Uiso   1.00
H407   H     0.25054   0.42674   0.46102   0.00000  Uiso   1.00
H408   H     0.18748   0.50335   0.40364   0.00000  Uiso   1.00
H409   H     0.03172   0.56321   0.05719   0.00000  Uiso   1.00
H410   H     0.05700   0.53829   0.08506   0.00000  Uiso   1.00
H411   H     0.31733   0.55285   0.12458   0.00000  Uiso   1.00
O412   O     0.16667   0.50000   0.25000   0.00000  Uiso   1.00
O413   O     0.15693   0.45726   0.16625   0.00000  Uiso   1.00
O414   O     0.12687   0.53979   0.33749   0.00000  Uiso   1.00
O415   O     0.21088   0.50826   0.15877   0.00000  Uiso   1.00
O416   O     0.17198   0.49468   0.33749   0.00000  Uiso   1.00
O417   O     0.03455   0.50015   0.03931   0.00000  Uiso   1.00
O418   O     0.01983   0.54683   0.22061   0.00000  Uiso   1.00
O419   O     0.22328   0.34333   0.21920   0.00000  Uiso   1.00
O420   O     0.14032   0.50914   0.10226   0.00000  Uiso   1.00
O421   O     0.02977   0.53472   0.48059   0.00000  Uiso   1.00
O422   O     0.06618   0.55525   0.40469   0.00000  Uiso   1.00
O423   O     0.17849   0.41434   0.27821   0.00000  Uiso   1.00
O424   O     0.08247   0.46457   0.07426   0.00000  Uiso   1.00
O425   O     0.20871   0.44522   0.41606   0.00000  Uiso   1.00
O426   O     0.14581   0.59469   0.26767   0.00000  Uiso   1.00
O427   O     0.07452   0.46584   0.23607   0.00000  Uiso   1.00
O428   O     0.26785   0.52512   0.21805   0.00000  Uiso   1.00
O429   O     0.06990   0.52293   0.27820   0.00000  Uiso   1.00
O430   O     0.25440   0.48610   0.26768   0.00000  Uiso   1.00
O431   O     0.13800   0.40236   0.23607   0.00000  Uiso   1.00
O432   O     0.20437   0.58860   0.21805   0.00000  Uiso   1.00
Zn433  Zn    0.19244   0.47423   0.28278   0.00000  Uiso   1.00
Zn434  Zn    0.13459   0.45711   0.22258   0.00000  Uiso   1.00
Zn435  Zn    0.21166   0.52997   0.21188   0.00000  Uiso   1.00
Zn436  Zn    0.12798   0.53868   0.28277   0.00000  Uiso   1.00
C437   C     0.38569   0.49265   0.25904   0.00000  Uiso   1.00
C438   C     0.53121   0.45592   0.45663   0.00000  Uiso   1.00
C439   C     0.55615   0.44264   0.47745   0.00000  Uiso   1.00
C440   C     0.61445   0.50762   0.24151   0.00000  Uiso   1.00
C441   C     0.54616   0.45006   0.01864   0.00000  Uiso   1.00
C442   C     0.50896   0.46929   0.04009   0.00000  Uiso   1.00
C443   C     0.57269   0.43786   0.03871   0.00000  Uiso   1.00
C444   C     0.56357   0.44608   0.07974   0.00000  Uiso   1.00
C445   C     0.50346   0.48234   0.08117   0.00000  Uiso   1.00
C446   C     0.66038   0.51346   0.23941   0.00000  Uiso   1.00
C447   C     0.34085   0.48984   0.26022   0.00000  Uiso   1.00
C448   C     0.42293   0.53541   0.42191   0.00000  Uiso   1.00
C449   C     0.51828   0.65670   0.24183   0.00000  Uiso   1.00
C450   C     0.48520   0.34504   0.26057   0.00000  Uiso   1.00
C451   C     0.48920   0.38934   0.25871   0.00000  Uiso   1.00
C452   C     0.51105   0.61125   0.24201   0.00000  Uiso   1.00
C453   C     0.52136   0.47861   0.14378   0.00000  Uiso   1.00
C454   C     0.47848   0.52086   0.35642   0.00000  Uiso   1.00
C455   C     0.46350   0.52308   0.40023   0.00000  Uiso   1.00
C456   C     0.52994   0.46926   0.10082   0.00000  Uiso   1.00
C457   C     0.40420   0.52471   0.46080   0.00000  Uiso   1.00
C458   C     0.36415   0.53374   0.06989   0.00000  Uiso   1.00
C459   C     0.48776   0.50678   0.41970   0.00000  Uiso   1.00
C460   C     0.65418   0.52598   0.10108   0.00000  Uiso   1.00
C461   C     0.65102   0.48596   0.11998   0.00000  Uiso   1.00
C462   C     0.38682   0.53302   0.18806   0.00000  Uiso   1.00
C463   C     0.59213   0.33851   0.23293   0.00000  Uiso   1.00
C464   C     0.59719   0.37260   0.26650   0.00000  Uiso   1.00
C465   C     0.63763   0.37017   0.27906   0.00000  Uiso   1.00
C466   C     0.49199   0.55052   0.09558   0.00000  Uiso   1.00
C467   C     0.66593   0.50322   0.46928   0.00000  Uiso   1.00
C468   C     0.41502   0.59847   0.40525   0.00000  Uiso   1.00
C469   C     0.39123   0.62291   0.44370   0.00000  Uiso   1.00
C470   C     0.47044   0.49627   0.45877   0.00000  Uiso   1.00
C471   C     0.40492   0.33654   0.44308   0.00000  Uiso   1.00
C472   C     0.40515   0.42103   0.06702   0.00000  Uiso   1.00
C473   C     0.51573   0.40831   0.40767   0.00000  Uiso   1.00
C474   C     0.42828   0.50637   0.48005   0.00000  Uiso   1.00
C475   C     0.49454   0.47701   0.47757   0.00000  Uiso   1.00
C476   C     0.48009   0.47684   0.01931   0.00000  Uiso   1.00
C477   C     0.43604   0.48040   0.03836   0.00000  Uiso   1.00
C478   C     0.41096   0.49726   0.01978   0.00000  Uiso   1.00
H479   H     0.60021   0.42154   0.02269   0.00000  Uiso   1.00
H480   H     0.62740   0.52353   0.08706   0.00000  Uiso   1.00
H481   H     0.65321   0.45844   0.09730   0.00000  Uiso   1.00
H482   H     0.61988   0.48146   0.14315   0.00000  Uiso   1.00
H483   H     0.34422   0.48767   0.13387   0.00000  Uiso   1.00
H484   H     0.38353   0.49865   0.17920   0.00000  Uiso   1.00
H485   H     0.41822   0.54257   0.19509   0.00000  Uiso   1.00
H486   H     0.38786   0.54885   0.16208   0.00000  Uiso   1.00
H487   H     0.62168   0.34186   0.20766   0.00000  Uiso   1.00
H488   H     0.59048   0.64052   0.24266   0.00000  Uiso   1.00
H489   H     0.59943   0.40375   0.25637   0.00000  Uiso   1.00
H490   H     0.65279   0.46447   0.27507   0.00000  Uiso   1.00
H491   H     0.56851   0.36894   0.29257   0.00000  Uiso   1.00
H492   H     0.63629   0.33908   0.28900   0.00000  Uiso   1.00
H493   H     0.63976   0.39455   0.30406   0.00000  Uiso   1.00
H494   H     0.33368   0.37553   0.25397   0.00000  Uiso   1.00
H495   H     0.49883   0.55553   0.06384   0.00000  Uiso   1.00
H496   H     0.52191   0.55899   0.10553   0.00000  Uiso   1.00
H497   H     0.46843   0.57198   0.11319   0.00000  Uiso   1.00
H498   H     0.33706   0.47176   0.47508   0.00000  Uiso   1.00
H499   H     0.33386   0.50303   0.43758   0.00000  Uiso   1.00
H500   H     0.63315   0.50984   0.48730   0.00000  Uiso   1.00
H501   H     0.45367   0.66307   0.27539   0.00000  Uiso   1.00
H502   H     0.40847   0.61002   0.37986   0.00000  Uiso   1.00
H503   H     0.45070   0.60504   0.40078   0.00000  Uiso   1.00
H504   H     0.35581   0.61633   0.44761   0.00000  Uiso   1.00
H505   H     0.39857   0.61293   0.46941   0.00000  Uiso   1.00
H506   H     0.44002   0.34373   0.44045   0.00000  Uiso   1.00
H507   H     0.38691   0.35335   0.47111   0.00000  Uiso   1.00
H508   H     0.39786   0.34778   0.41780   0.00000  Uiso   1.00
H509   H     0.43463   0.40494   0.05435   0.00000  Uiso   1.00
H510   H     0.38750   0.40867   0.09567   0.00000  Uiso   1.00
H511   H     0.38347   0.41346   0.04716   0.00000  Uiso   1.00
H512   H     0.58291   0.43463   0.09508   0.00000  Uiso   1.00
H513   H     0.48103   0.41318   0.41670   0.00000  Uiso   1.00
H514   H     0.52051   0.38197   0.42209   0.00000  Uiso   1.00
H515   H     0.52507   0.39934   0.37515   0.00000  Uiso   1.00
H516   H     0.58387   0.42674   0.46102   0.00000  Uiso   1.00
H517   H     0.52082   0.50335   0.40364   0.00000  Uiso   1.00
H518   H     0.36506   0.56321   0.05719   0.00000  Uiso   1.00
H519   H     0.39033   0.53829   0.08506   0.00000  Uiso   1.00
H520   H     0.65066   0.55285   0.12458   0.00000  Uiso   1.00
O521   O     0.50000   0.50000   0.25000   0.00000  Uiso   1.00
O522   O     0.49027   0.45726   0.16625   0.00000  Uiso   1.00
O523   O     0.46020   0.53979   0.33749   0.00000  Uiso   1.00
O524   O     0.54421   0.50826   0.15877   0.00000  Uiso   1.00
O525   O     0.50532   0.49468   0.33749   0.00000  Uiso   1.00
O526   O     0.36789   0.50015   0.03931   0.00000  Uiso   1.00
O527   O     0.35316   0.54683   0.22061   0.00000  Uiso   1.00
O528   O     0.55661   0.34333   0.21920   0.00000  Uiso   1.00
O529   O     0.47365   0.50914   0.10226   0.00000  Uiso   1.00
O530   O     0.36310   0.53472   0.48059   0.00000  Uiso   1.00
O531   O     0.39951   0.55525   0.40469   0.00000  Uiso   1.00
O532   O     0.51182   0.41434   0.27821   0.00000  Uiso   1.00
O533   O     0.41580   0.46457   0.07426   0.00000  Uiso   1.00
O534   O     0.54204   0.44522   0.41606   0.00000  Uiso   1.00
O535   O     0.47914   0.59469   0.26767   0.00000  Uiso   1.00
O536   O     0.40785   0.46584   0.23607   0.00000  Uiso   1.00
O537   O     0.60119   0.52512   0.21805   0.00000  Uiso   1.00
O538   O     0.40323   0.52293   0.27820   0.00000  Uiso   1.00
O539   O     0.58773   0.48610   0.26768   0.00000  Uiso   1.00
O540   O     0.47133   0.40236   0.23607   0.00000  Uiso   1.00
O541   O     0.53771   0.58860   0.21805   0.00000  Uiso   1.00
Zn542  Zn    0.52577   0.47423   0.28278   0.00000  Uiso   1.00
Zn543  Zn    0.46792   0.45711   0.22258   0.00000  Uiso   1.00
Zn544  Zn    0.54500   0.52997   0.21188   0.00000  Uiso   1.00
Zn545  Zn    0.46131   0.53868   0.28277   0.00000  Uiso   1.00
C546   C     0.71902   0.49265   0.25904   0.00000  Uiso   1.00
C547   C     0.86455   0.45592   0.45663   0.00000  Uiso   1.00
C548   C     0.88948   0.44264   0.47745   0.00000  Uiso   1.00
C549   C     0.94779   0.50762   0.24151   0.00000  Uiso   1.00
C550   C     0.87949   0.45006   0.01864   0.00000  Uiso   1.00
C551   C     0.84230   0.46929   0.04009   0.00000  Uiso   1.00
C552   C     0.90602   0.43786   0.03871   0.00000  Uiso   1.00
C553   C     0.89690   0.44608   0.07974   0.00000  Uiso   1.00
C554   C     0.83680   0.48234   0.08117   0.00000  Uiso   1.00
C555   C     0.99371   0.51346   0.23941   0.00000  Uiso   1.00
C556   C     0.67418   0.48984   0.26022   0.00000  Uiso   1.00
C557   C     0.75626   0.53541   0.42191   0.00000  Uiso   1.00
C558   C     0.85161   0.65670   0.24183   0.00000  Uiso   1.00
C559   C     0.81854   0.34504   0.26057   0.00000  Uiso   1.00
C560   C     0.82253   0.38934   0.25871   0.00000  Uiso   1.00
C561   C     0.84438   0.61125   0.24201   0.00000  Uiso   1.00
C562   C     0.85469   0.47861   0.14378   0.00000  Uiso   1.00
C563   C     0.81181   0.52086   0.35642   0.00000  Uiso   1.00
C564   C     0.79683   0.52308   0.40023   0.00000  Uiso   1.00
C565   C     0.86327   0.46926   0.10082   0.00000  Uiso   1.00
C566   C     0.73753   0.52471   0.46080   0.00000  Uiso   1.00
C567   C     0.69748   0.53374   0.06989   0.00000  Uiso   1.00
C568   C     0.82110   0.50678   0.41970   0.00000  Uiso   1.00
C569   C     0.98752   0.52598   0.10108   0.00000  Uiso   1.00
C570   C     0.98435   0.48596   0.11998   0.00000  Uiso   1.00
C571   C     0.72016   0.53302   0.18806   0.00000  Uiso   1.00
C572   C     0.92546   0.33851   0.23293   0.00000  Uiso   1.00
C573   C     0.93052   0.37260   0.26650   0.00000  Uiso   1.00
C574   C     0.97096   0.37017   0.27906   0.00000  Uiso   1.00
C575   C     0.82533   0.55052   0.09558   0.00000  Uiso   1.00
C576   C     0.99926   0.50322   0.46928   0.00000  Uiso   1.00
C577   C     0.74836   0.59847   0.40525   0.00000  Uiso   1.00
C578   C     0.72456   0.62291   0.44370   0.00000  Uiso   1.00
C579   C     0.80378   0.49627   0.45877   0.00000  Uiso   1.00
C580   C     0.73826   0.33654   0.44308   0.00000  Uiso   1.00
C581   C     0.73848   0.42103   0.06702   0.00000  Uiso   1.00
C582   C     0.84906   0.40831   0.40767   0.00000  Uiso   1.00
C583   C     0.76161   0.50637   0.48005   0.00000  Uiso   1.00
C584   C     0.82787   0.47701   0.47757   0.00000  Uiso   1.00
C585   C     0.81342   0.47684   0.01931   0.00000  Uiso   1.00
C586   C     0.76937   0.48040   0.03836   0.00000  Uiso   1.00
C587   C     0.74430   0.49726   0.01978   0.00000  Uiso   1.00
H588   H     0.93354   0.42154   0.02269   0.00000  Uiso   1.00
H589   H     0.96073   0.52353   0.08706   0.00000  Uiso   1.00
H590   H     0.98654   0.45844   0.09730   0.00000  Uiso   1.00
H591   H     0.95321   0.48146   0.14315   0.00000  Uiso   1.00
H592   H     0.67755   0.48767   0.13387   0.00000  Uiso   1.00
H593   H     0.71687   0.49865   0.17920   0.00000  Uiso   1.00
H594   H     0.75155   0.54257   0.19509   0.00000  Uiso   1.00
H595   H     0.72119   0.54885   0.16208   0.00000  Uiso   1.00
H596   H     0.95502   0.34186   0.20766   0.00000  Uiso   1.00
H597   H     0.92381   0.64052   0.24266   0.00000  Uiso   1.00
H598   H     0.93276   0.40375   0.25637   0.00000  Uiso   1.00
H599   H     0.98613   0.46447   0.27507   0.00000  Uiso   1.00
H600   H     0.90184   0.36894   0.29257   0.00000  Uiso   1.00
H601   H     0.96962   0.33908   0.28900   0.00000  Uiso   1.00
H602   H     0.97309   0.39455   0.30406   0.00000  Uiso   1.00
H603   H     0.66701   0.37553   0.25397   0.00000  Uiso   1.00
H604   H     0.83216   0.55553   0.06384   0.00000  Uiso   1.00
H605   H     0.85525   0.55899   0.10553   0.00000  Uiso   1.00
H606   H     0.80176   0.57198   0.11319   0.00000  Uiso   1.00
H607   H     0.67040   0.47176   0.47508   0.00000  Uiso   1.00
H608   H     0.66719   0.50303   0.43758   0.00000  Uiso   1.00
H609   H     0.96648   0.50984   0.48730   0.00000  Uiso   1.00
H610   H     0.78700   0.66307   0.27539   0.00000  Uiso   1.00
H611   H     0.74181   0.61002   0.37986   0.00000  Uiso   1.00
H612   H     0.78403   0.60504   0.40078   0.00000  Uiso   1.00
H613   H     0.68915   0.61633   0.44761   0.00000  Uiso   1.00
H614   H     0.73190   0.61293   0.46941   0.00000  Uiso   1.00
H615   H     0.77335   0.34373   0.44045   0.00000  Uiso   1.00
H616   H     0.72024   0.35335   0.47111   0.00000  Uiso   1.00
H617   H     0.73119   0.34778   0.41780   0.00000  Uiso   1.00
H618   H     0.76797   0.40494   0.05435   0.00000  Uiso   1.00
H619   H     0.72083   0.40867   0.09567   0.00000  Uiso   1.00
H620   H     0.71680   0.41346   0.04716   0.00000  Uiso   1.00
H621   H     0.91624   0.43463   0.09508   0.00000  Uiso   1.00
H622   H     0.81436   0.41318   0.41670   0.00000  Uiso   1.00
H623   H     0.85384   0.38197   0.42209   0.00000  Uiso   1.00
H624   H     0.85840   0.39934   0.37515   0.00000  Uiso   1.00
H625   H     0.91720   0.42674   0.46102   0.00000  Uiso   1.00
H626   H     0.85415   0.50335   0.40364   0.00000  Uiso   1.00
H627   H     0.69839   0.56321   0.05719   0.00000  Uiso   1.00
H628   H     0.72367   0.53829   0.08506   0.00000  Uiso   1.00
H629   H     0.98400   0.55285   0.12458   0.00000  Uiso   1.00
O630   O     0.83333   0.50000   0.25000   0.00000  Uiso   1.00
O631   O     0.82360   0.45726   0.16625   0.00000  Uiso   1.00
O632   O     0.79354   0.53979   0.33749   0.00000  Uiso   1.00
O633   O     0.87755   0.50826   0.15877   0.00000  Uiso   1.00
O634   O     0.83865   0.49468   0.33749   0.00000  Uiso   1.00
O635   O     0.70122   0.50015   0.03931   0.00000  Uiso   1.00
O636   O     0.68649   0.54683   0.22061   0.00000  Uiso   1.00
O637   O     0.88995   0.34333   0.21920   0.00000  Uiso   1.00
O638   O     0.80699   0.50914   0.10226   0.00000  Uiso   1.00
O639   O     0.69643   0.53472   0.48059   0.00000  Uiso   1.00
O640   O     0.73285   0.55525   0.40469   0.00000  Uiso   1.00
O641   O     0.84515   0.41434   0.27821   0.00000  Uiso   1.00
O642   O     0.74914   0.46457   0.07426   0.00000  Uiso   1.00
O643   O     0.87537   0.44522   0.41606   0.00000  Uiso   1.00
O644   O     0.81247   0.59469   0.26767   0.00000  Uiso   1.00
O645   O     0.74119   0.46584   0.23607   0.00000  Uiso   1.00
O646   O     0.93452   0.52512   0.21805   0.00000  Uiso   1.00
O647   O     0.73656   0.52293   0.27820   0.00000  Uiso   1.00
O648   O     0.92106   0.48610   0.26768   0.00000  Uiso   1.00
O649   O     0.80467   0.40236   0.23607   0.00000  Uiso   1.00
O650   O     0.87104   0.58860   0.21805   0.00000  Uiso   1.00
Zn651  Zn    0.85910   0.47423   0.28278   0.00000  Uiso   1.00
Zn652  Zn    0.80125   0.45711   0.22258   0.00000  Uiso   1.00
Zn653  Zn    0.87833   0.52997   0.21188   0.00000  Uiso   1.00
Zn654  Zn    0.79465   0.53868   0.28277   0.00000  Uiso   1.00
C655   C     0.05235   0.82598   0.25904   0.00000  Uiso   1.00
C656   C     0.19788   0.78926   0.45663   0.00000  Uiso   1.00
C657   C     0.22281   0.77597   0.47745   0.00000  Uiso   1.00
C658   C     0.28112   0.84095   0.24151   0.00000  Uiso   1.00
C659   C     0.21283   0.78340   0.01864   0.00000  Uiso   1.00
C660   C     0.17563   0.80262   0.04009   0.00000  Uiso   1.00
C661   C     0.23935   0.77119   0.03871   0.00000  Uiso   1.00
C662   C     0.23023   0.77942   0.07974   0.00000  Uiso   1.00
C663   C     0.17013   0.81567   0.08117   0.00000  Uiso   1.00
C664   C     0.32704   0.84679   0.23941   0.00000  Uiso   1.00
C665   C     0.00752   0.82318   0.26022   0.00000  Uiso   1.00
C666   C     0.08960   0.86874   0.42191   0.00000  Uiso   1.00
C667   C     0.18495   0.99004   0.24183   0.00000  Uiso   1.00
C668   C     0.15187   0.67837   0.26057   0.00000  Uiso   1.00
C669   C     0.15586   0.72268   0.25871   0.00000  Uiso   1.00
C670   C     0.17772   0.94458   0.24201   0.00000  Uiso   1.00
C671   C     0.18803   0.81194   0.14378   0.00000  Uiso   1.00
C672   C     0.14514   0.85419   0.35642   0.00000  Uiso   1.00
C673   C     0.13017   0.85642   0.40023   0.00000  Uiso   1.00
C674   C     0.19661   0.80259   0.10082   0.00000  Uiso   1.00
C675   C     0.07086   0.85804   0.46080   0.00000  Uiso   1.00
C676   C     0.03082   0.86707   0.06989   0.00000  Uiso   1.00
C677   C     0.15443   0.84011   0.41970   0.00000  Uiso   1.00
C678   C     0.32085   0.85932   0.10108   0.00000  Uiso   1.00
C679   C     0.31768   0.81929   0.11998   0.00000  Uiso   1.00
C680   C     0.05349   0.86636   0.18806   0.00000  Uiso   1.00
C681   C     0.25879   0.67184   0.23293   0.00000  Uiso   1.00
C682   C     0.26385   0.70593   0.26650   0.00000  Uiso   1.00
C683   C     0.30430   0.70351   0.27906   0.00000  Uiso   1.00
C684   C     0.15866   0.88386   0.09558   0.00000  Uiso   1.00
C685   C     0.33260   0.83656   0.46928   0.00000  Uiso   1.00
C686   C     0.08169   0.93180   0.40525   0.00000  Uiso   1.00
C687   C     0.05790   0.95624   0.44370   0.00000  Uiso   1.00
C688   C     0.13711   0.82960   0.45877   0.00000  Uiso   1.00
C689   C     0.07159   0.66987   0.44308   0.00000  Uiso   1.00
C690   C     0.07182   0.75436   0.06702   0.00000  Uiso   1.00
C691   C     0.18240   0.74164   0.40767   0.00000  Uiso   1.00
C692   C     0.09495   0.83971   0.48005   0.00000  Uiso   1.00
C693   C     0.16121   0.81034   0.47757   0.00000  Uiso   1.00
C694   C     0.14675   0.81017   0.01931   0.00000  Uiso   1.00
C695   C     0.10270   0.81373   0.03836   0.00000  Uiso   1.00
C696   C     0.07763   0.83060   0.01978   0.00000  Uiso   1.00
H697   H     0.26688   0.75487   0.02269   0.00000  Uiso   1.00
H698   H     0.29407   0.85687   0.08706   0.00000  Uiso   1.00
H699   H     0.31988   0.79178   0.09730   0.00000  Uiso   1.00
H700   H     0.28655   0.81479   0.14315   0.00000  Uiso   1.00
H701   H     0.01089   0.82100   0.13387   0.00000  Uiso   1.00
H702   H     0.05020   0.83198   0.17920   0.00000  Uiso   1.00
H703   H     0.08489   0.87591   0.19509   0.00000  Uiso   1.00
H704   H     0.05452   0.88218   0.16208   0.00000  Uiso   1.00
H705   H     0.28835   0.67520   0.20766   0.00000  Uiso   1.00
H706   H     0.25714   0.97386   0.24266   0.00000  Uiso   1.00
H707   H     0.26610   0.73709   0.25637   0.00000  Uiso   1.00
H708   H     0.31946   0.79781   0.27507   0.00000  Uiso   1.00
H709   H     0.23518   0.70228   0.29257   0.00000  Uiso   1.00
H710   H     0.30296   0.67241   0.28900   0.00000  Uiso   1.00
H711   H     0.30642   0.72789   0.30406   0.00000  Uiso   1.00
H712   H     0.00034   0.70887   0.25397   0.00000  Uiso   1.00
H713   H     0.16549   0.88886   0.06384   0.00000  Uiso   1.00
H714   H     0.18858   0.89232   0.10553   0.00000  Uiso   1.00
H715   H     0.13510   0.90532   0.11319   0.00000  Uiso   1.00
H716   H     0.00373   0.80509   0.47508   0.00000  Uiso   1.00
H717   H     0.00053   0.83636   0.43758   0.00000  Uiso   1.00
H718   H     0.29981   0.84317   0.48730   0.00000  Uiso   1.00
H719   H     0.12033   0.99640   0.27539   0.00000  Uiso   1.00
H720   H     0.07514   0.94336   0.37986   0.00000  Uiso   1.00
H721   H     0.11737   0.93838   0.40078   0.00000  Uiso   1.00
H722   H     0.02248   0.94966   0.44761   0.00000  Uiso   1.00
H723   H     0.06523   0.94626   0.46941   0.00000  Uiso   1.00
H724   H     0.10669   0.67706   0.44045   0.00000  Uiso   1.00
H725   H     0.05358   0.68669   0.47111   0.00000  Uiso   1.00
H726   H     0.06453   0.68111   0.41780   0.00000  Uiso   1.00
H727   H     0.10130   0.73827   0.05435   0.00000  Uiso   1.00
H728   H     0.05416   0.74200   0.09567   0.00000  Uiso   1.00
H729   H     0.05014   0.74679   0.04716   0.00000  Uiso   1.00
H730   H     0.24958   0.76796   0.09508   0.00000  Uiso   1.00
H731   H     0.14769   0.74651   0.41670   0.00000  Uiso   1.00
H732   H     0.18717   0.71530   0.42209   0.00000  Uiso   1.00
H733   H     0.19173   0.73268   0.37515   0.00000  Uiso   1.00
H734   H     0.25054   0.76008   0.46102   0.00000  Uiso   1.00
H735   H     0.18748   0.83669   0.40364   0.00000  Uiso   1.00
H736   H     0.03172   0.89655   0.05719   0.00000  Uiso   1.00
H737   H     0.05700   0.87162   0.08506   0.00000  Uiso   1.00
H738   H     0.31733   0.88618   0.12458   0.00000  Uiso   1.00
O739   O     0.16667   0.83333   0.25000   0.00000  Uiso   1.00
O740   O     0.15693   0.79060   0.16625   0.00000  Uiso   1.00
O741   O     0.12687   0.87313   0.33749   0.00000  Uiso   1.00
O742   O     0.21088   0.84159   0.15877   0.00000  Uiso   1.00
O743   O     0.17198   0.82802   0.33749   0.00000  Uiso   1.00
O744   O     0.03455   0.83349   0.03931   0.00000  Uiso   1.00
O745   O     0.01983   0.88016   0.22061   0.00000  Uiso   1.00
O746   O     0.22328   0.67666   0.21920   0.00000  Uiso   1.00
O747   O     0.14032   0.84247   0.10226   0.00000  Uiso   1.00
O748   O     0.02977   0.86805   0.48059   0.00000  Uiso   1.00
O749   O     0.06618   0.88859   0.40469   0.00000  Uiso   1.00
O750   O     0.17849   0.74768   0.27821   0.00000  Uiso   1.00
O751   O     0.08247   0.79791   0.07426   0.00000  Uiso   1.00
O752   O     0.20871   0.77855   0.41606   0.00000  Uiso   1.00
O753   O     0.14581   0.92803   0.26767   0.00000  Uiso   1.00
O754   O     0.07452   0.79917   0.23607   0.00000  Uiso   1.00
O755   O     0.26785   0.85845   0.21805   0.00000  Uiso   1.00
O756   O     0.06990   0.85627   0.27820   0.00000  Uiso   1.00
O757   O     0.25440   0.81944   0.26768   0.00000  Uiso   1.00
O758   O     0.13800   0.73570   0.23607   0.00000  Uiso   1.00
O759   O     0.20437   0.92193   0.21805   0.00000  Uiso   1.00
Zn760  Zn    0.19244   0.80756   0.28278   0.00000  Uiso   1.00
Zn761  Zn    0.13459   0.79044   0.22258   0.00000  Uiso   1.00
Zn762  Zn    0.21166   0.86331   0.21188   0.00000  Uiso   1.00
Zn763  Zn    0.12798   0.87202   0.28277   0.00000  Uiso   1.00
C764   C     0.38569   0.82598   0.25904   0.00000  Uiso   1.00
C765   C     0.53121   0.78926   0.45663   0.00000  Uiso   1.00
C766   C     0.55615   0.77597   0.47745   0.00000  Uiso   1.00
C767   C     0.61445   0.84095   0.24151   0.00000  Uiso   1.00
C768   C     0.54616   0.78340   0.01864   0.00000  Uiso   1.00
C769   C     0.50896   0.80262   0.04009   0.00000  Uiso   1.00
C770   C     0.57269   0.77119   0.03871   0.00000  Uiso   1.00
C771   C     0.56357   0.77942   0.07974   0.00000  Uiso   1.00
C772   C     0.50346   0.81567   0.08117   0.00000  Uiso   1.00
C773   C     0.66038   0.84679   0.23941   0.00000  Uiso   1.00
C774   C     0.34085   0.82318   0.26022   0.00000  Uiso   1.00
C775   C     0.42293   0.86874   0.42191   0.00000  Uiso   1.00
C776   C     0.51828   0.99004   0.24183   0.00000  Uiso   1.00
C777   C     0.48520   0.67837   0.26057   0.00000  Uiso   1.00
C778   C     0.48920   0.72268   0.25871   0.00000  Uiso   1.00
C779   C     0.51105   0.94458   0.24201   0.00000  Uiso   1.00
C780   C     0.52136   0.81194   0.14378   0.00000  Uiso   1.00
C781   C     0.47848   0.85419   0.35642   0.00000  Uiso   1.00
C782   C     0.46350   0.85642   0.40023   0.00000  Uiso   1.00
C783   C     0.52994   0.80259   0.10082   0.00000  Uiso   1.00
C784   C     0.40420   0.85804   0.46080   0.00000  Uiso   1.00
C785   C     0.36415   0.86707   0.06989   0.00000  Uiso   1.00
C786   C     0.48776   0.84011   0.41970   0.00000  Uiso   1.00
C787   C     0.65418   0.85932   0.10108   0.00000  Uiso   1.00
C788   C     0.65102   0.81929   0.11998   0.00000  Uiso   1.00
C789   C     0.38682   0.86636   0.18806   0.00000  Uiso   1.00
C790   C     0.59213   0.67184   0.23293   0.00000  Uiso   1.00
C791   C     0.59719   0.70593   0.26650   0.00000  Uiso   1.00
C792   C     0.63763   0.70351   0.27906   0.00000  Uiso   1.00
C793   C     0.49199   0.88386   0.09558   0.00000  Uiso   1.00
C794   C     0.66593   0.83656   0.46928   0.00000  Uiso   1.00
C795   C     0.41502   0.93180   0.40525   0.00000  Uiso   1.00
C796   C     0.39123   0.95624   0.44370   0.00000  Uiso   1.00
C797   C     0.47044   0.82960   0.45877   0.00000  Uiso   1.00
C798   C     0.40492   0.66987   0.44308   0.00000  Uiso   1.00
C799   C     0.40515   0.75436   0.06702   0.00000  Uiso   1.00
C800   C     0.51573   0.74164   0.40767   0.00000  Uiso   1.00
C801   C     0.42828   0.83971   0.48005   0.00000  Uiso   1.00
C802   C     0.49454   0.81034   0.47757   0.00000  Uiso   1.00
C803   C     0.48009   0.81017   0.01931   0.00000  Uiso   1.00
C804   C     0.43604   0.81373   0.03836   0.00000  Uiso   1.00
C805   C     0.41096   0.83060   0.01978   0.00000  Uiso   1.00
H806   H     0.60021   0.75487   0.02269   0.00000  Uiso   1.00
H807   H     0.62740   0.85687   0.08706   0.00000  Uiso   1.00
H808   H     0.65321   0.79178   0.09730   0.00000  Uiso   1.00
H809   H     0.61988   0.81479   0.14315   0.00000  Uiso   1.00
H810   H     0.34422   0.82100   0.13387   0.00000  Uiso   1.00
H811   H     0.38353   0.83198   0.17920   0.00000  Uiso   1.00
H812   H     0.41822   0.87591   0.19509   0.00000  Uiso   1.00
H813   H     0.38786   0.88218   0.16208   0.00000  Uiso   1.00
H814   H     0.62168   0.67520   0.20766   0.00000  Uiso   1.00
H815   H     0.59048   0.97386   0.24266   0.00000  Uiso   1.00
H816   H     0.59943   0.73709   0.25637   0.00000  Uiso   1.00
H817   H     0.65279   0.79781   0.27507   0.00000  Uiso   1.00
H818   H     0.56851   0.70228   0.29257   0.00000  Uiso   1.00
H819   H     0.63629   0.67241   0.28900   0.00000  Uiso   1.00
H820   H     0.63976   0.72789   0.30406   0.00000  Uiso   1.00
H821   H     0.33368   0.70887   0.25397   0.00000  Uiso   1.00
H822   H     0.49883   0.88886   0.06384   0.00000  Uiso   1.00
H823   H     0.52191   0.89232   0.10553   0.00000  Uiso   1.00
H824   H     0.46843   0.90532   0.11319   0.00000  Uiso   1.00
H825   H     0.33706   0.80509   0.47508   0.00000  Uiso   1.00
H826   H     0.33386   0.83636   0.43758   0.00000  Uiso   1.00
H827   H     0.63315   0.84317   0.48730   0.00000  Uiso   1.00
H828   H     0.45367   0.99640   0.27539   0.00000  Uiso   1.00
H829   H     0.40847   0.94336   0.37986   0.00000  Uiso   1.00
H830   H     0.45070   0.93838   0.40078   0.00000  Uiso   1.00
H831   H     0.35581   0.94966   0.44761   0.00000  Uiso   1.00
H832   H     0.39857   0.94626   0.46941   0.00000  Uiso   1.00
H833   H     0.44002   0.67706   0.44045   0.00000  Uiso   1.00
H834   H     0.38691   0.68669   0.47111   0.00000  Uiso   1.00
H835   H     0.39786   0.68111   0.41780   0.00000  Uiso   1.00
H836   H     0.43463   0.73827   0.05435   0.00000  Uiso   1.00
H837   H     0.38750   0.74200   0.09567   0.00000  Uiso   1.00
H838   H     0.38347   0.74679   0.04716   0.00000  Uiso   1.00
H839   H     0.58291   0.76796   0.09508   0.00000  Uiso   1.00
H840   H     0.48103   0.74651   0.41670   0.00000  Uiso   1.00
H841   H     0.52051   0.71530   0.42209   0.00000  Uiso   1.00
H842   H     0.52507   0.73268   0.37515   0.00000  Uiso   1.00
H843   H     0.58387   0.76008   0.46102   0.00000  Uiso   1.00
H844   H     0.52082   0.83669   0.40364   0.00000  Uiso   1.00
H845   H     0.36506   0.89655   0.05719   0.00000  Uiso   1.00
H846   H     0.39033   0.87162   0.08506   0.00000  Uiso   1.00
H847   H     0.65066   0.88618   0.12458   0.00000  Uiso   1.00
O848   O     0.50000   0.83333   0.25000   0.00000  Uiso   1.00
O849   O     0.49027   0.79060   0.16625   0.00000  Uiso   1.00
O850   O     0.46020   0.87313   0.33749   0.00000  Uiso   1.00
O851   O     0.54421   0.84159   0.15877   0.00000  Uiso   1.00
O852   O     0.50532   0.82802   0.33749   0.00000  Uiso   1.00
O853   O     0.36789   0.83349   0.03931   0.00000  Uiso   1.00
O854   O     0.35316   0.88016   0.22061   0.00000  Uiso   1.00
O855   O     0.55661   0.67666   0.21920   0.00000  Uiso   1.00
O856   O     0.47365   0.84247   0.10226   0.00000  Uiso   1.00
O857   O     0.36310   0.86805   0.48059   0.00000  Uiso   1.00
O858   O     0.39951   0.88859   0.40469   0.00000  Uiso   1.00
O859   O     0.51182   0.74768   0.27821   0.00000  Uiso   1.00
O860   O     0.41580   0.79791   0.07426   0.00000  Uiso   1.00
O861   O     0.54204   0.77855   0.41606   0.00000  Uiso   1.00
O862   O     0.47914   0.92803   0.26767   0.00000  Uiso   1.00
O863   O     0.40785   0.79917   0.23607   0.00000  Uiso   1.00
O864   O     0.60119   0.85845   0.21805   0.00000  Uiso   1.00
O865   O     0.40323   0.85627   0.27820   0.00000  Uiso   1.00
O866   O     0.58773   0.81944   0.26768   0.00000  Uiso   1.00
O867   O     0.47133   0.73570   0.23607   0.00000  Uiso   1.00
O868   O     0.53771   0.92193   0.21805   0.00000  Uiso   1.00
Zn869  Zn    0.52577   0.80756   0.28278   0.00000  Uiso   1.00
Zn870  Zn    0.46792   0.79044   0.22258   0.00000  Uiso   1.00
Zn871  Zn    0.54500   0.86331   0.21188   0.00000  Uiso   1.00
Zn872  Zn    0.46131   0.87202   0.28277   0.00000  Uiso   1.00
C873   C     0.71902   0.82598   0.25904   0.00000  Uiso   1.00
C874   C     0.86455   0.78926   0.45663   0.00000  Uiso   1.00
C875   C     0.88948   0.77597   0.47745   0.00000  Uiso   1.00
C876   C     0.94779   0.84095   0.24151   0.00000  Uiso   1.00
C877   C     0.87949   0.78340   0.01864   0.00000  Uiso   1.00
C878   C     0.84230   0.80262   0.04009   0.00000  Uiso   1.00
C879   C     0.90602   0.77119   0.03871   0.00000  Uiso   1.00
C880   C     0.89690   0.77942   0.07974   0.00000  Uiso   1.00
C881   C     0.83680   0.81567   0.08117   0.00000  Uiso   1.00
C882   C     0.99371   0.84679   0.23941   0.00000  Uiso   1.00
C883   C     0.67418   0.82318   0.26022   0.00000  Uiso   1.00
C884   C     0.75626   0.86874   0.42191   0.00000  Uiso   1.00
C885   C     0.85161   0.99004   0.24183   0.00000  Uiso   1.00
C886   C     0.81854   0.67837   0.26057   0.00000  Uiso   1.00
C887   C     0.82253   0.72268   0.25871   0.00000  Uiso   1.00
C888   C     0.84438   0.94458   0.24201   0.00000  Uiso   1.00
C889   C     0.85469   0.81194   0.14378   0.00000  Uiso   1.00
C890   C     0.81181   0.85419   0.35642   0.00000  Uiso   1.00
C891   C     0.79683   0.85642   0.40023   0.00000  Uiso   1.00
C892   C     0.86327   0.80259   0.10082   0.00000  Uiso   1.00
C893   C     0.73753   0.85804   0.46080   0.00000  Uiso   1.00
C894   C     0.69748   0.86707   0.06989   0.00000  Uiso   1.00
C895   C     0.82110   0.84011   0.41970   0.00000  Uiso   1.00
C896   C     0.98752   0.85932   0.10108   0.00000  Uiso   1.00
C897   C     0.98435   0.81929   0.11998   0.00000  Uiso   1.00
C898   C     0.72016   0.86636   0.18806   0.00000  Uiso   1.00
C899   C     0.92546   0.67184   0.23293   0.00000  Uiso   1.00
C900   C     0.93052   0.70593   0.26650   0.00000  Uiso   1.00
C901   C     0.97096   0.70351   0.27906   0.00000  Uiso   1.00
C902   C     0.82533   0.88386   0.09558   0.00000  Uiso   1.00
C903   C     0.99926   0.83656   0.46928   0.00000  Uiso   1.00
C904   C     0.74836   0.93180   0.40525   0.00000  Uiso   1.00
C905   C     0.72456   0.95624   0.44370   0.00000  Uiso   1.00
C906   C     0.80378   0.82960   0.45877   0.00000  Uiso   1.00
C907   C     0.73826   0.66987   0.44308   0.00000  Uiso   1.00
C908   C     0.73848   0.75436   0.06702   0.00000  Uiso   1.00
C909   C     0.84906   0.74164   0.40767   0.00000  Uiso   1.00
C910   C     0.76161   0.83971   0.48005   0.00000  Uiso   1.00
C911   C     0.82787   0.81034   0.47757   0.00000  Uiso   1.00
C912   C     0.81342   0.81017   0.01931   0.00000  Uiso   1.00
C913   C     0.76937   0.81373   0.03836   0.00000  Uiso   1.00
C914   C     0.74430   0.83060   0.01978   0.00000  Uiso   1.00
H915   H     0.93354   0.75487   0.02269   0.00000  Uiso   1.00
H916   H     0.96073   0.85687   0.08706   0.00000  Uiso   1.00
H917   H     0.98654   0.79178   0.09730   0.00000  Uiso   1.00
H918   H     0.95321   0.81479   0.14315   0.00000  Uiso   1.00
H919   H     0.67755   0.82100   0.13387   0.00000  Uiso   1.00
H920   H     0.71687   0.83198   0.17920   0.00000  Uiso   1.00
H921   H     0.75155   0.87591   0.19509   0.00000  Uiso   1.00
H922   H     0.72119   0.88218   0.16208   0.00000  Uiso   1.00
H923   H     0.95502   0.67520   0.20766   0.00000  Uiso   1.00
H924   H     0.92381   0.97386   0.24266   0.00000  Uiso   1.00
H925   H     0.93276   0.73709   0.25637   0.00000  Uiso   1.00
H926   H     0.98613   0.79781   0.27507   0.00000  Uiso   1.00
H927   H     0.90184   0.70228   0.29257   0.00000  Uiso   1.00
H928   H     0.96962   0.67241   0.28900   0.00000  Uiso   1.00
H929   H     0.97309   0.72789   0.30406   0.00000  Uiso   1.00
H930   H     0.66701   0.70887   0.25397   0.00000  Uiso   1.00
H931   H     0.83216   0.88886   0.06384   0.00000  Uiso   1.00
H932   H     0.85525   0.89232   0.10553   0.00000  Uiso   1.00
H933   H     0.80176   0.90532   0.11319   0.00000  Uiso   1.00
H934   H     0.67040   0.80509   0.47508   0.00000  Uiso   1.00
H935   H     0.66719   0.83636   0.43758   0.00000  Uiso   1.00
H936   H     0.96648   0.84317   0.48730   0.00000  Uiso   1.00
H937   H     0.78700   0.99640   0.27539   0.00000  Uiso   1.00
H938   H     0.74181   0.94336   0.37986   0.00000  Uiso   1.00
H939   H     0.78403   0.93838   0.40078   0.00000  Uiso   1.00
H940   H     0.68915   0.94966   0.44761   0.00000  Uiso   1.00
H941   H     0.73190   0.94626   0.46941   0.00000  Uiso   1.00
H942   H     0.77335   0.67706   0.44045   0.00000  Uiso   1.00
H943   H     0.72024   0.68669   0.47111   0.00000  Uiso   1.00
H944   H     0.73119   0.68111   0.41780   0.00000  Uiso   1.00
H945   H     0.76797   0.73827   0.05435   0.00000  Uiso   1.00
H946   H     0.72083   0.74200   0.09567   0.00000  Uiso   1.00
H947   H     0.71680   0.74679   0.04716   0.00000  Uiso   1.00
H948   H     0.91624   0.76796   0.09508   0.00000  Uiso   1.00
H949   H     0.81436   0.74651   0.41670   0.00000  Uiso   1.00
H950   H     0.85384   0.71530   0.42209   0.00000  Uiso   1.00
H951   H     0.85840   0.73268   0.37515   0.00000  Uiso   1.00
H952   H     0.91720   0.76008   0.46102   0.00000  Uiso   1.00
H953   H     0.85415   0.83669   0.40364   0.00000  Uiso   1.00
H954   H     0.69839   0.89655   0.05719   0.00000  Uiso   1.00
H955   H     0.72367   0.87162   0.08506   0.00000  Uiso   1.00
H956   H     0.98400   0.88618   0.12458   0.00000  Uiso   1.00
O957   O     0.83333   0.83333   0.25000   0.00000  Uiso   1.00
O958   O     0.82360   0.79060   0.16625   0.00000  Uiso   1.00
O959   O     0.79354   0.87313   0.33749   0.00000  Uiso   1.00
O960   O     0.87755   0.84159   0.15877   0.00000  Uiso   1.00
O961   O     0.83865   0.82802   0.33749   0.00000  Uiso   1.00
O962   O     0.70122   0.83349   0.03931   0.00000  Uiso   1.00
O963   O     0.68649   0.88016   0.22061   0.00000  Uiso   1.00
O964   O     0.88995   0.67666   0.21920   0.00000  Uiso   1.00
O965   O     0.80699   0.84247   0.10226   0.00000  Uiso   1.00
O966   O     0.69643   0.86805   0.48059   0.00000  Uiso   1.00
O967   O     0.73285   0.88859   0.40469   0.00000  Uiso   1.00
O968   O     0.84515   0.74768   0.27821   0.00000  Uiso   1.00
O969   O     0.74914   0.79791   0.07426   0.00000  Uiso   1.00
O970   O     0.87537   0.77855   0.41606   0.00000  Uiso   1.00
O971   O     0.81247   0.92803   0.26767   0.00000  Uiso   1.00
O972   O     0.74119   0.79917   0.23607   0.00000  Uiso   1.00
O973   O     0.93452   0.85845   0.21805   0.00000  Uiso   1.00
O974   O     0.73656   0.85627   0.27820   0.00000  Uiso   1.00
O975   O     0.92106   0.81944   0.26768   0.00000  Uiso   1.00
O976   O     0.80467   0.73570   0.23607   0.00000  Uiso   1.00
O977   O     0.87104   0.92193   0.21805   0.00000  Uiso   1.00
Zn978  Zn    0.85910   0.80756   0.28278   0.00000  Uiso   1.00
Zn979  Zn    0.80125   0.79044   0.22258   0.00000  Uiso   1.00
Zn980  Zn    0.87833   0.86331   0.21188   0.00000  Uiso   1.00
Zn981  Zn    0.79465   0.87202   0.28277   0.00000  Uiso   1.00
C982   C     0.05235   0.15932   0.75904   0.00000  Uiso   1.00
C983   C     0.19788   0.12259   0.95663   0.00000  Uiso   1.00
C984   C     0.22281   0.10930   0.97745   0.00000  Uiso   1.00
C985   C     0.28112   0.17429   0.74151   0.00000  Uiso   1.00
C986   C     0.21283   0.11673   0.51864   0.00000  Uiso   1.00
C987   C     0.17563   0.13596   0.54009   0.00000  Uiso   1.00
C988   C     0.23935   0.10452   0.53871   0.00000  Uiso   1.00
C989   C     0.23023   0.11275   0.57974   0.00000  Uiso   1.00
C990   C     0.17013   0.14900   0.58117   0.00000  Uiso   1.00
C991   C     0.32704   0.18013   0.73941   0.00000  Uiso   1.00
C992   C     0.00752   0.15651   0.76022   0.00000  Uiso   1.00
C993   C     0.08960   0.20207   0.92191   0.00000  Uiso   1.00
C994   C     0.18495   0.32337   0.74183   0.00000  Uiso   1.00
C995   C     0.15187   0.01171   0.76057   0.00000  Uiso   1.00
C996   C     0.15586   0.05601   0.75871   0.00000  Uiso   1.00
C997   C     0.17772   0.27791   0.74201   0.00000  Uiso   1.00
C998   C     0.18803   0.14527   0.64378   0.00000  Uiso   1.00
C999   C     0.14514   0.18752   0.85642   0.00000  Uiso   1.00
C1000  C     0.13017   0.18975   0.90023   0.00000  Uiso   1.00
C1001  C     0.19661   0.13592   0.60082   0.00000  Uiso   1.00
C1002  C     0.07086   0.19137   0.96080   0.00000  Uiso   1.00
C1003  C     0.03082   0.20040   0.56989   0.00000  Uiso   1.00
C1004  C     0.15443   0.17345   0.91970   0.00000  Uiso   1.00
C1005  C     0.32085   0.19265   0.60108   0.00000  Uiso   1.00
C1006  C     0.31768   0.15262   0.61998   0.00000  Uiso   1.00
C1007  C     0.05349   0.19969   0.68806   0.00000  Uiso   1.00
C1008  C     0.25879   0.00518   0.73293   0.00000  Uiso   1.00
C1009  C     0.26385   0.03927   0.76650   0.00000  Uiso   1.00
C1010  C     0.30430   0.03684   0.77906   0.00000  Uiso   1.00
C1011  C     0.15866   0.21719   0.59558   0.00000  Uiso   1.00
C1012  C     0.33260   0.16989   0.96928   0.00000  Uiso   1.00
C1013  C     0.08169   0.26513   0.90525   0.00000  Uiso   1.00
C1014  C     0.05790   0.28957   0.94370   0.00000  Uiso   1.00
C1015  C     0.13711   0.16293   0.95877   0.00000  Uiso   1.00
C1016  C     0.07159   0.00320   0.94308   0.00000  Uiso   1.00
C1017  C     0.07182   0.08769   0.56702   0.00000  Uiso   1.00
C1018  C     0.18240   0.07497   0.90767   0.00000  Uiso   1.00
C1019  C     0.09495   0.17304   0.98005   0.00000  Uiso   1.00
C1020  C     0.16121   0.14368   0.97757   0.00000  Uiso   1.00
C1021  C     0.14675   0.14351   0.51931   0.00000  Uiso   1.00
C1022  C     0.10270   0.14707   0.53836   0.00000  Uiso   1.00
C1023  C     0.07763   0.16393   0.51978   0.00000  Uiso   1.00
H1024  H     0.26688   0.08820   0.52269   0.00000  Uiso   1.00
H1025  H     0.29407   0.19020   0.58706   0.00000  Uiso   1.00
H1026  H     0.31988   0.12511   0.59730   0.00000  Uiso   1.00
H1027  H     0.28655   0.14813   0.64315   0.00000  Uiso   1.00
H1028  H     0.01089   0.15434   0.63387   0.00000  Uiso   1.00
H1029  H     0.05020   0.16532   0.67920   0.00000  Uiso   1.00
H1030  H     0.08489   0.20924   0.69509   0.00000  Uiso   1.00
H1031  H     0.05452   0.21551   0.66208   0.00000  Uiso   1.00
H1032  H     0.28835   0.00853   0.70766   0.00000  Uiso   1.00
H1033  H     0.25714   0.30719   0.74266   0.00000  Uiso   1.00
H1034  H     0.26610   0.07042   0.75637   0.00000  Uiso   1.00
H1035  H     0.31946   0.13114   0.77507   0.00000  Uiso   1.00
H1036  H     0.23518   0.03561   0.79257   0.00000  Uiso   1.00
H1037  H     0.30296   0.00575   0.78900   0.00000  Uiso   1.00
H1038  H     0.30642   0.06122   0.80406   0.00000  Uiso   1.00
H1039  H     0.00034   0.04220   0.75397   0.00000  Uiso   1.00
H1040  H     0.16549   0.22219   0.56384   0.00000  Uiso   1.00
H1041  H     0.18858   0.22566   0.60553   0.00000  Uiso   1.00
H1042  H     0.13510   0.23865   0.61319   0.00000  Uiso   1.00
H1043  H     0.00373   0.13843   0.97508   0.00000  Uiso   1.00
H1044  H     0.00053   0.16970   0.93758   0.00000  Uiso   1.00
H1045  H     0.29981   0.17650   0.98730   0.00000  Uiso   1.00
H1046  H     0.12033   0.32974   0.77539   0.00000  Uiso   1.00
H1047  H     0.07514   0.27669   0.87986   0.00000  Uiso   1.00
H1048  H     0.11737   0.27171   0.90078   0.00000  Uiso   1.00
H1049  H     0.02248   0.28299   0.94761   0.00000  Uiso   1.00
H1050  H     0.06523   0.27960   0.96941   0.00000  Uiso   1.00
H1051  H     0.10669   0.01040   0.94045   0.00000  Uiso   1.00
H1052  H     0.05358   0.02002   0.97111   0.00000  Uiso   1.00
H1053  H     0.06453   0.01444   0.91780   0.00000  Uiso   1.00
H1054  H     0.10130   0.07161   0.55435   0.00000  Uiso   1.00
H1055  H     0.05416   0.07533   0.59567   0.00000  Uiso   1.00
H1056  H     0.05014   0.08012   0.54716   0.00000  Uiso   1.00
H1057  H     0.24958   0.10130   0.59508   0.00000  Uiso   1.00
H1058  H     0.14769   0.07984   0.91670   0.00000  Uiso   1.00
H1059  H     0.18717   0.04864   0.92209   0.00000  Uiso   1.00
H1060  H     0.19173   0.06601   0.87515   0.00000  Uiso   1.00
H1061  H     0.25054   0.09341   0.96102   0.00000  Uiso   1.00
H1062  H     0.18748   0.17002   0.90364   0.00000  Uiso   1.00
H1063  H     0.03172   0.22988   0.55719   0.00000  Uiso   1.00
H1064  H     0.05700   0.20495   0.58506   0.00000  Uiso   1.00
H1065  H     0.31733   0.21952   0.62458   0.00000  Uiso   1.00
O1066  O     0.16667   0.16667   0.75000   0.00000  Uiso   1.00
O1067  O     0.15693   0.12393   0.66625   0.00000  Uiso   1.00
O1068  O     0.12687   0.20646   0.83749   0.00000  Uiso   1.00
O1069  O     0.21088   0.17493   0.65877   0.00000  Uiso   1.00
O1070  O     0.17198   0.16135   0.83749   0.00000  Uiso   1.00
O1071  O     0.03455   0.16682   0.53931   0.00000  Uiso   1.00
O1072  O     0.01983   0.21350   0.72061   0.00000  Uiso   1.00
O1073  O     0.22328   0.01000   0.71920   0.00000  Uiso   1.00
O1074  O     0.14032   0.17580   0.60226   0.00000  Uiso   1.00
O1075  O     0.02977   0.20139   0.98059   0.00000  Uiso   1.00
O1076  O     0.06618   0.22192   0.90469   0.00000  Uiso   1.00
O1077  O     0.17849   0.08101   0.77821   0.00000  Uiso   1.00
O1078  O     0.08247   0.13124   0.57426   0.00000  Uiso   1.00
O1079  O     0.20871   0.11189   0.91606   0.00000  Uiso   1.00
O1080  O     0.14581   0.26136   0.76767   0.00000  Uiso   1.00
O1081  O     0.07452   0.13251   0.73607   0.00000  Uiso   1.00
O1082  O     0.26785   0.19179   0.71805   0.00000  Uiso   1.00
O1083  O     0.06990   0.18960   0.77820   0.00000  Uiso   1.00
O1084  O     0.25440   0.15277   0.76768   0.00000  Uiso   1.00
O1085  O     0.13800   0.06903   0.73607   0.00000  Uiso   1.00
O1086  O     0.20437   0.25527   0.71805   0.00000  Uiso   1.00
Zn1087 Zn    0.19244   0.14090   0.78278   0.00000  Uiso   1.00
Zn1088 Zn    0.13459   0.12378   0.72258   0.00000  Uiso   1.00
Zn1089 Zn    0.21166   0.19664   0.71188   0.00000  Uiso   1.00
Zn1090 Zn    0.12798   0.20535   0.78277   0.00000  Uiso   1.00
C1091  C     0.38569   0.15932   0.75904   0.00000  Uiso   1.00
C1092  C     0.53121   0.12259   0.95663   0.00000  Uiso   1.00
C1093  C     0.55615   0.10930   0.97745   0.00000  Uiso   1.00
C1094  C     0.61445   0.17429   0.74151   0.00000  Uiso   1.00
C1095  C     0.54616   0.11673   0.51864   0.00000  Uiso   1.00
C1096  C     0.50896   0.13596   0.54009   0.00000  Uiso   1.00
C1097  C     0.57269   0.10452   0.53871   0.00000  Uiso   1.00
C1098  C     0.56357   0.11275   0.57974   0.00000  Uiso   1.00
C1099  C     0.50346   0.14900   0.58117   0.00000  Uiso   1.00
C1100  C     0.66038   0.18013   0.73941   0.00000  Uiso   1.00
C1101  C     0.34085   0.15651   0.76022   0.00000  Uiso   1.00
C1102  C     0.42293   0.20207   0.92191   0.00000  Uiso   1.00
C1103  C     0.51828   0.32337   0.74183   0.00000  Uiso   1.00
C1104  C     0.48520   0.01171   0.76057   0.00000  Uiso   1.00
C1105  C     0.48920   0.05601   0.75871   0.00000  Uiso   1.00
C1106  C     0.51105   0.27791   0.74201   0.00000  Uiso   1.00
C1107  C     0.52136   0.14527   0.64378   0.00000  Uiso   1.00
C1108  C     0.47848   0.18752   0.85642   0.00000  Uiso   1.00
C1109  C     0.46350   0.18975   0.90023   0.00000  Uiso   1.00
C1110  C     0.52994   0.13592   0.60082   0.00000  Uiso   1.00
C1111  C     0.40420   0.19137   0.96080   0.00000  Uiso   1.00
C1112  C     0.36415   0.20040   0.56989   0.00000  Uiso   1.00
C1113  C     0.48776   0.17345   0.91970   0.00000  Uiso   1.00
C1114  C     0.65418   0.19265   0.60108   0.00000  Uiso   1.00
C1115  C     0.65102   0.15262   0.61998   0.00000  Uiso   1.00
C1116  C     0.38682   0.19969   0.68806   0.00000  Uiso   1.00
C1117  C     0.59213   0.00518   0.73293   0.00000  Uiso   1.00
C1118  C     0.59719   0.03927   0.76650   0.00000  Uiso   1.00
C1119  C     0.63763   0.03684   0.77906   0.00000  Uiso   1.00
C1120  C     0.49199   0.21719   0.59558   0.00000  Uiso   1.00
C1121  C     0.66593   0.16989   0.96928   0.00000  Uiso   1.00
C1122  C     0.41502   0.26513   0.90525   0.00000  Uiso   1.00
C1123  C     0.39123   0.28957   0.94370   0.00000  Uiso   1.00
C1124  C     0.47044   0.16293   0.95877   0.00000  Uiso   1.00
C1125  C     0.40492   0.00320   0.94308   0.00000  Uiso   1.00
C1126  C     0.40515   0.08769   0.56702   0.00000  Uiso   1.00
C1127  C     0.51573   0.07497   0.90767   0.00000  Uiso   1.00
C1128  C     0.42828   0.17304   0.98005   0.00000  Uiso   1.00
C1129  C     0.49454   0.14368   0.97757   0.00000  Uiso   1.00
C1130  C     0.48009   0.14351   0.51931   0.00000  Uiso   1.00
C1131  C     0.43604   0.14707   0.53836   0.00000  Uiso   1.00
C1132  C     0.41096   0.16393   0.51978   0.00000  Uiso   1.00
H1133  H     0.60021   0.08820   0.52269   0.00000  Uiso   1.00
H1134  H     0.62740   0.19020   0.58706   0.00000  Uiso   1.00
H1135  H     0.65321   0.12511   0.59730   0.00000  Uiso   1.00
H1136  H     0.61988   0.14813   0.64315   0.00000  Uiso   1.00
H1137  H     0.34422   0.15434   0.63387   0.00000  Uiso   1.00
H1138  H     0.38353   0.16532   0.67920   0.00000  Uiso   1.00
H1139  H     0.41822   0.20924   0.69509   0.00000  Uiso   1.00
H1140  H     0.38786   0.21551   0.66208   0.00000  Uiso   1.00
H1141  H     0.62168   0.00853   0.70766   0.00000  Uiso   1.00
H1142  H     0.59048   0.30719   0.74266   0.00000  Uiso   1.00
H1143  H     0.59943   0.07042   0.75637   0.00000  Uiso   1.00
H1144  H     0.65279   0.13114   0.77507   0.00000  Uiso   1.00
H1145  H     0.56851   0.03561   0.79257   0.00000  Uiso   1.00
H1146  H     0.63629   0.00575   0.78900   0.00000  Uiso   1.00
H1147  H     0.63976   0.06122   0.80406   0.00000  Uiso   1.00
H1148  H     0.33368   0.04220   0.75397   0.00000  Uiso   1.00
H1149  H     0.49883   0.22219   0.56384   0.00000  Uiso   1.00
H1150  H     0.52191   0.22566   0.60553   0.00000  Uiso   1.00
H1151  H     0.46843   0.23865   0.61319   0.00000  Uiso   1.00
H1152  H     0.33706   0.13843   0.97508   0.00000  Uiso   1.00
H1153  H     0.33386   0.16970   0.93758   0.00000  Uiso   1.00
H1154  H     0.63315   0.17650   0.98730   0.00000  Uiso   1.00
H1155  H     0.45367   0.32974   0.77539   0.00000  Uiso   1.00
H1156  H     0.40847   0.27669   0.87986   0.00000  Uiso   1.00
H1157  H     0.45070   0.27171   0.90078   0.00000  Uiso   1.00
H1158  H     0.35581   0.28299   0.94761   0.00000  Uiso   1.00
H1159  H     0.39857   0.27960   0.96941   0.00000  Uiso   1.00
H1160  H     0.44002   0.01040   0.94045   0.00000  Uiso   1.00
H1161  H     0.38691   0.02002   0.97111   0.00000  Uiso   1.00
H1162  H     0.39786   0.01444   0.91780   0.00000  Uiso   1.00
H1163  H     0.43463   0.07161   0.55435   0.00000  Uiso   1.00
H1164  H     0.38750   0.07533   0.59567   0.00000  Uiso   1.00
H1165  H     0.38347   0.08012   0.54716   0.00000  Uiso   1.00
H1166  H     0.58291   0.10130   0.59508   0.00000  Uiso   1.00
H1167  H     0.48103   0.07984   0.91670   0.00000  Uiso   1.00
H1168  H     0.52051   0.04864   0.92209   0.00000  Uiso   1.00
H1169  H     0.52507   0.06601   0.87515   0.00000  Uiso   1.00
H1170  H     0.58387   0.09341   0.96102   0.00000  Uiso   1.00
H1171  H     0.52082   0.17002   0.90364   0.00000  Uiso   1.00
H1172  H     0.36506   0.22988   0.55719   0.00000  Uiso   1.00
H1173  H     0.39033   0.20495   0.58506   0.00000  Uiso   1.00
H1174  H     0.65066   0.21952   0.62458   0.00000  Uiso   1.00
O1175  O     0.50000   0.16667   0.75000   0.00000  Uiso   1.00
O1176  O     0.49027   0.12393   0.66625   0.00000  Uiso   1.00
O1177  O     0.46020   0.20646   0.83749   0.00000  Uiso   1.00
O1178  O     0.54421   0.17493   0.65877   0.00000  Uiso   1.00
O1179  O     0.50532   0.16135   0.83749   0.00000  Uiso   1.00
O1180  O     0.36789   0.16682   0.53931   0.00000  Uiso   1.00
O1181  O     0.35316   0.21350   0.72061   0.00000  Uiso   1.00
O1182  O     0.55661   0.01000   0.71920   0.00000  Uiso   1.00
O1183  O     0.47365   0.17580   0.60226   0.00000  Uiso   1.00
O1184  O     0.36310   0.20139   0.98059   0.00000  Uiso   1.00
O1185  O     0.39951   0.22192   0.90469   0.00000  Uiso   1.00
O1186  O     0.51182   0.08101   0.77821   0.00000  Uiso   1.00
O1187  O     0.41580   0.13124   0.57426   0.00000  Uiso   1.00
O1188  O     0.54204   0.11189   0.91606   0.00000  Uiso   1.00
O1189  O     0.47914   0.26136   0.76767   0.00000  Uiso   1.00
O1190  O     0.40785   0.13251   0.73607   0.00000  Uiso   1.00
O1191  O     0.60119   0.19179   0.71805   0.00000  Uiso   1.00
O1192  O     0.40323   0.18960   0.77820   0.00000  Uiso   1.00
O1193  O     0.58773   0.15277   0.76768   0.00000  Uiso   1.00
O1194  O     0.47133   0.06903   0.73607   0.00000  Uiso   1.00
O1195  O     0.53771   0.25527   0.71805   0.00000  Uiso   1.00
Zn1196 Zn    0.52577   0.14090   0.78278   0.00000  Uiso   1.00
Zn1197 Zn    0.46792   0.12378   0.72258   0.00000  Uiso   1.00
Zn1198 Zn    0.54500   0.19664   0.71188   0.00000  Uiso   1.00
Zn1199 Zn    0.46131   0.20535   0.78277   0.00000  Uiso   1.00
C1200  C     0.71902   0.15932   0.75904   0.00000  Uiso   1.00
C1201  C     0.86455   0.12259   0.95663   0.00000  Uiso   1.00
C1202  C     0.88948   0.10930   0.97745   0.00000  Uiso   1.00
C1203  C     0.94779   0.17429   0.74151   0.00000  Uiso   1.00
C1204  C     0.87949   0.11673   0.51864   0.00000  Uiso   1.00
C1205  C     0.84230   0.13596   0.54009   0.00000  Uiso   1.00
C1206  C     0.90602   0.10452   0.53871   0.00000  Uiso   1.00
C1207  C     0.89690   0.11275   0.57974   0.00000  Uiso   1.00
C1208  C     0.83680   0.14900   0.58117   0.00000  Uiso   1.00
C1209  C     0.99371   0.18013   0.73941   0.00000  Uiso   1.00
C1210  C     0.67418   0.15651   0.76022   0.00000  Uiso   1.00
C1211  C     0.75626   0.20207   0.92191   0.00000  Uiso   1.00
C1212  C     0.85161   0.32337   0.74183   0.00000  Uiso   1.00
C1213  C     0.81854   0.01171   0.76057   0.00000  Uiso   1.00
C1214  C     0.82253   0.05601   0.75871   0.00000  Uiso   1.00
C1215  C     0.84438   0.27791   0.74201   0.00000  Uiso   1.00
C1216  C     0.85469   0.14527   0.64378   0.00000  Uiso   1.00
C1217  C     0.81181   0.18752   0.85642   0.00000  Uiso   1.00
C1218  C     0.79683   0.18975   0.90023   0.00000  Uiso   1.00
C1219  C     0.86327   0.13592   0.60082   0.00000  Uiso   1.00
C1220  C     0.73753   0.19137   0.96080   0.00000  Uiso   1.00
C1221  C     0.69748   0.20040   0.56989   0.00000  Uiso   1.00
C1222  C     0.82110   0.17345   0.91970   0.00000  Uiso   1.00
C1223  C     0.98752   0.19265   0.60108   0.00000  Uiso   1.00
C1224  C     0.98435   0.15262   0.61998   0.00000  Uiso   1.00
C1225  C     0.72016   0.19969   0.68806   0.00000  Uiso   1.00
C1226  C     0.92546   0.00518   0.73293   0.00000  Uiso   1.00
C1227  C     0.93052   0.03927   0.76650   0.00000  Uiso   1.00
C1228  C     0.97096   0.03684   0.77906   0.00000  Uiso   1.00
C1229  C     0.82533   0.21719   0.59558   0.00000  Uiso   1.00
C1230  C     0.99926   0.16989   0.96928   0.00000  Uiso   1.00
C1231  C     0.74836   0.26513   0.90525   0.00000  Uiso   1.00
C1232  C     0.72456   0.28957   0.94370   0.00000  Uiso   1.00
C1233  C     0.80378   0.16293   0.95877   0.00000  Uiso   1.00
C1234  C     0.73826   0.00320   0.94308   0.00000  Uiso   1.00
C1235  C     0.73848   0.08769   0.56702   0.00000  Uiso   1.00
C1236  C     0.84906   0.07497   0.90767   0.00000  Uiso   1.00
C1237  C     0.76161   0.17304   0.98005   0.00000  Uiso   1.00
C1238  C     0.82787   0.14368   0.97757   0.00000  Uiso   1.00
C1239  C     0.81342   0.14351   0.51931   0.00000  Uiso   1.00
C1240  C     0.76937   0.14707   0.53836   0.00000  Uiso   1.00
C1241  C     0.74430   0.16393   0.51978   0.00000  Uiso   1.00
H1242  H     0.93354   0.08820   0.52269   0.00000  Uiso   1.00
H1243  H     0.96073   0.19020   0.58706   0.00000  Uiso   1.00
H1244  H     0.98654   0.12511   0.59730   0.00000  Uiso   1.00
H1245  H     0.95321   0.14813   0.64315   0.00000  Uiso   1.00
H1246  H     0.67755   0.15434   0.63387   0.00000  Uiso   1.00
H1247  H     0.71687   0.16532   0.67920   0.00000  Uiso   1.00
H1248  H     0.75155   0.20924   0.69509   0.00000  Uiso   1.00
H1249  H     0.72119   0.21551   0.66208   0.00000  Uiso   1.00
H1250  H     0.95502   0.00853   0.70766   0.00000  Uiso   1.00
H1251  H     0.92381   0.30719   0.74266   0.00000  Uiso   1.00
H1252  H     0.93276   0.07042   0.75637   0.00000  Uiso   1.00
H1253  H     0.98613   0.13114   0.77507   0.00000  Uiso   1.00
H1254  H     0.90184   0.03561   0.79257   0.00000  Uiso   1.00
H1255  H     0.96962   0.00575   0.78900   0.00000  Uiso   1.00
H1256  H     0.97309   0.06122   0.80406   0.00000  Uiso   1.00
H1257  H     0.66701   0.04220   0.75397   0.00000  Uiso   1.00
H1258  H     0.83216   0.22219   0.56384   0.00000  Uiso   1.00
H1259  H     0.85525   0.22566   0.60553   0.00000  Uiso   1.00
H1260  H     0.80176   0.23865   0.61319   0.00000  Uiso   1.00
H1261  H     0.67040   0.13843   0.97508   0.00000  Uiso   1.00
H1262  H     0.66719   0.16970   0.93758   0.00000  Uiso   1.00
H1263  H     0.96648   0.17650   0.98730   0.00000  Uiso   1.00
H1264  H     0.78700   0.32974   0.77539   0.00000  Uiso   1.00
H1265  H     0.74181   0.27669   0.87986   0.00000  Uiso   1.00
H1266  H     0.78403   0.27171   0.90078   0.00000  Uiso   1.00
H1267  H     0.68915   0.28299   0.94761   0.00000  Uiso   1.00
H1268  H     0.73190   0.27960   0.96941   0.00000  Uiso   1.00
H1269  H     0.77335   0.01040   0.94045   0.00000  Uiso   1.00
H1270  H     0.72024   0.02002   0.97111   0.00000  Uiso   1.00
H1271  H     0.73119   0.01444   0.91780   0.00000  Uiso   1.00
H1272  H     0.76797   0.07161   0.55435   0.00000  Uiso   1.00
H1273  H     0.72083   0.07533   0.59567   0.00000  Uiso   1.00
H1274  H     0.71680   0.08012   0.54716   0.00000  Uiso   1.00
H1275  H     0.91624   0.10130   0.59508   0.00000  Uiso   1.00
H1276  H     0.81436   0.07984   0.91670   0.00000  Uiso   1.00
H1277  H     0.85384   0.04864   0.92209   0.00000  Uiso   1.00
H1278  H     0.85840   0.06601   0.87515   0.00000  Uiso   1.00
H1279  H     0.91720   0.09341   0.96102   0.00000  Uiso   1.00
H1280  H     0.85415   0.17002   0.90364   0.00000  Uiso   1.00
H1281  H     0.69839   0.22988   0.55719   0.00000  Uiso   1.00
H1282  H     0.72367   0.20495   0.58506   0.00000  Uiso   1.00
H1283  H     0.98400   0.21952   0.62458   0.00000  Uiso   1.00
O1284  O     0.83333   0.16667   0.75000   0.00000  Uiso   1.00
O1285  O     0.82360   0.12393   0.66625   0.00000  Uiso   1.00
O1286  O     0.79354   0.20646   0.83749   0.00000  Uiso   1.00
O1287  O     0.87755   0.17493   0.65877   0.00000  Uiso   1.00
O1288  O     0.83865   0.16135   0.83749   0.00000  Uiso   1.00
O1289  O     0.70122   0.16682   0.53931   0.00000  Uiso   1.00
O1290  O     0.68649   0.21350   0.72061   0.00000  Uiso   1.00
O1291  O     0.88995   0.01000   0.71920   0.00000  Uiso   1.00
O1292  O     0.80699   0.17580   0.60226   0.00000  Uiso   1.00
O1293  O     0.69643   0.20139   0.98059   0.00000  Uiso   1.00
O1294  O     0.73285   0.22192   0.90469   0.00000  Uiso   1.00
O1295  O     0.84515   0.08101   0.77821   0.00000  Uiso   1.00
O1296  O     0.74914   0.13124   0.57426   0.00000  Uiso   1.00
O1297  O     0.87537   0.11189   0.91606   0.00000  Uiso   1.00
O1298  O     0.81247   0.26136   0.76767   0.00000  Uiso   1.00
O1299  O     0.74119   0.13251   0.73607   0.00000  Uiso   1.00
O1300  O     0.93452   0.19179   0.71805   0.00000  Uiso   1.00
O1301  O     0.73656   0.18960   0.77820   0.00000  Uiso   1.00
O1302  O     0.92106   0.15277   0.76768   0.00000  Uiso   1.00
O1303  O     0.80467   0.06903   0.73607   0.00000  Uiso   1.00
O1304  O     0.87104   0.25527   0.71805   0.00000  Uiso   1.00
Zn1305 Zn    0.85910   0.14090   0.78278   0.00000  Uiso   1.00
Zn1306 Zn    0.80125   0.12378   0.72258   0.00000  Uiso   1.00
Zn1307 Zn    0.87833   0.19664   0.71188   0.00000  Uiso   1.00
Zn1308 Zn    0.79465   0.20535   0.78277   0.00000  Uiso   1.00
C1309  C     0.05235   0.49265   0.75904   0.00000  Uiso   1.00
C1310  C     0.19788   0.45592   0.95663   0.00000  Uiso   1.00
C1311  C     0.22281   0.44264   0.97745   0.00000  Uiso   1.00
C1312  C     0.28112   0.50762   0.74151   0.00000  Uiso   1.00
C1313  C     0.21283   0.45006   0.51864   0.00000  Uiso   1.00
C1314  C     0.17563   0.46929   0.54009   0.00000  Uiso   1.00
C1315  C     0.23935   0.43786   0.53871   0.00000  Uiso   1.00
C1316  C     0.23023   0.44608   0.57974   0.00000  Uiso   1.00
C1317  C     0.17013   0.48234   0.58117   0.00000  Uiso   1.00
C1318  C     0.32704   0.51346   0.73941   0.00000  Uiso   1.00
C1319  C     0.00752   0.48984   0.76022   0.00000  Uiso   1.00
C1320  C     0.08960   0.53541   0.92191   0.00000  Uiso   1.00
C1321  C     0.18495   0.65670   0.74183   0.00000  Uiso   1.00
C1322  C     0.15187   0.34504   0.76057   0.00000  Uiso   1.00
C1323  C     0.15586   0.38934   0.75871   0.00000  Uiso   1.00
C1324  C     0.17772   0.61125   0.74201   0.00000  Uiso   1.00
C1325  C     0.18803   0.47861   0.64378   0.00000  Uiso   1.00
C1326  C     0.14514   0.52086   0.85642   0.00000  Uiso   1.00
C1327  C     0.13017   0.52308   0.90023   0.00000  Uiso   1.00
C1328  C     0.19661   0.46926   0.60082   0.00000  Uiso   1.00
C1329  C     0.07086   0.52471   0.96080   0.00000  Uiso   1.00
C1330  C     0.03082   0.53374   0.56989   0.00000  Uiso   1.00
C1331  C     0.15443   0.50678   0.91970   0.00000  Uiso   1.00
C1332  C     0.32085   0.52598   0.60108   0.00000  Uiso   1.00
C1333  C     0.31768   0.48596   0.61998   0.00000  Uiso   1.00
C1334  C     0.05349   0.53302   0.68806   0.00000  Uiso   1.00
C1335  C     0.25879   0.33851   0.73293   0.00000  Uiso   1.00
C1336  C     0.26385   0.37260   0.76650   0.00000  Uiso   1.00
C1337  C     0.30430   0.37017   0.77906   0.00000  Uiso   1.00
C1338  C     0.15866   0.55052   0.59558   0.00000  Uiso   1.00
C1339  C     0.33260   0.50322   0.96928   0.00000  Uiso   1.00
C1340  C     0.08169   0.59847   0.90525   0.00000  Uiso   1.00
C1341  C     0.05790   0.62291   0.94370   0.00000  Uiso   1.00
C1342  C     0.13711   0.49627   0.95877   0.00000  Uiso   1.00
C1343  C     0.07159   0.33654   0.94308   0.00000  Uiso   1.00
C1344  C     0.07182   0.42103   0.56702   0.00000  Uiso   1.00
C1345  C     0.18240   0.40831   0.90767   0.00000  Uiso   1.00
C1346  C     0.09495   0.50637   0.98005   0.00000  Uiso   1.00
C1347  C     0.16121   0.47701   0.97757   0.00000  Uiso   1.00
C1348  C     0.14675   0.47684   0.51931   0.00000  Uiso   1.00
C1349  C     0.10270   0.48040   0.53836   0.00000  Uiso   1.00
C1350  C     0.07763   0.49726   0.51978   0.00000  Uiso   1.00
H1351  H     0.26688   0.42154   0.52269   0.00000  Uiso   1.00
H1352  H     0.29407   0.52353   0.58706   0.00000  Uiso   1.00
H1353  H     0.31988   0.45844   0.59730   0.00000  Uiso   1.00
H1354  H     0.28655   0.48146   0.64315   0.00000  Uiso   1.00
H1355  H     0.01089   0.48767   0.63387   0.00000  Uiso   1.00
H1356  H     0.05020   0.49865   0.67920   0.00000  Uiso   1.00
H1357  H     0.08489   0.54257   0.69509   0.00000  Uiso   1.00
H1358  H     0.05452   0.54885   0.66208   0.00000  Uiso   1.00
H1359  H     0.28835   0.34186   0.70766   0.00000  Uiso   1.00
H1360  H     0.25714   0.64052   0.74266   0.00000  Uiso   1.00
H1361  H     0.26610   0.40375   0.75637   0.00000  Uiso   1.00
H1362  H     0.31946   0.46447   0.77507   0.00000  Uiso   1.00
H1363  H     0.23518   0.36894   0.79257   0.00000  Uiso   1.00
H1364  H     0.30296   0.33908   0.78900   0.00000  Uiso   1.00
H1365  H     0.30642   0.39455   0.80406   0.00000  Uiso   1.00
H1366  H     0.00034   0.37553   0.75397   0.00000  Uiso   1.00
H1367  H     0.16549   0.55553   0.56384   0.00000  Uiso   1.00
H1368  H     0.18858   0.55899   0.60553   0.00000  Uiso   1.00
H1369  H     0.13510   0.57198   0.61319   0.00000  Uiso   1.00
H1370  H     0.00373   0.47176   0.97508   0.00000  Uiso   1.00
H1371  H     0.00053   0.50303   0.93758   0.00000  Uiso   1.00
H1372  H     0.29981   0.50984   0.98730   0.00000  Uiso   1.00
H1373  H     0.12033   0.66307   0.77539   0.00000  Uiso   1.00
H1374  H     0.07514   0.61002   0.87986   0.00000  Uiso   1.00
H1375  H     0.11737   0.60504   0.90078   0.00000  Uiso   1.00
H1376  H     0.02248   0.61633   0.94761   0.00000  Uiso   1.00
H1377  H     0.06523   0.61293   0.96941   0.00000  Uiso   1.00
H1378  H     0.10669   0.34373   0.94045   0.00000  Uiso   1.00
H1379  H     0.05358   0.35335   0.97111   0.00000  Uiso   1.00
H1380  H     0.06453   0.34778   0.91780   0.00000  Uiso   1.00
H1381  H     0.10130   0.40494   0.55435   0.00000  Uiso   1.00
H1382  H     0.05416   0.40867   0.59567   0.00000  Uiso   1.00
H1383  H     0.05014   0.41346   0.54716   0.00000  Uiso   1.00
H1384  H     0.24958   0.43463   0.59508   0.00000  Uiso   1.00
H1385  H     0.14769   0.41318   0.91670   0.00000  Uiso   1.00
H1386  H     0.18717   0.38197   0.92209   0.00000  Uiso   1.00
H1387  H     0.19173   0.39934   0.87515   0.00000  Uiso   1.00
H1388  H     0.25054   0.42674   0.96102   0.00000  Uiso   1.00
H1389  H     0.18748   0.50335   0.90364   0.00000  Uiso   1.00
H1390  H     0.03172   0.56321   0.55719   0.00000  Uiso   1.00
H1391  H     0.05700   0.53829   0.58506   0.00000  Uiso   1.00
H1392  H     0.31733   0.55285   0.62458   0.00000  Uiso   1.00
O1393  O     0.16667   0.50000   0.75000   0.00000  Uiso   1.00
O1394  O     0.15693   0.45726   0.66625   0.00000  Uiso   1.00
O1395  O     0.12687   0.53979   0.83749   0.00000  Uiso   1.00
O1396  O     0.21088   0.50826   0.65877   0.00000  Uiso   1.00
O1397  O     0.17198   0.49468   0.83749   0.00000  Uiso   1.00
O1398  O     0.03455   0.50015   0.53931   0.00000  Uiso   1.00
O1399  O     0.01983   0.54683   0.72061   0.00000  Uiso   1.00
O1400  O     0.22328   0.34333   0.71920   0.00000  Uiso   1.00
O1401  O     0.14032   0.50914   0.60226   0.00000  Uiso   1.00
O1402  O     0.02977   0.53472   0.98059   0.00000  Uiso   1.00
O1403  O     0.06618   0.55525   0.90469   0.00000  Uiso   1.00
O1404  O     0.17849   0.41434   0.77821   0.00000  Uiso   1.00
O1405  O     0.08247   0.46457   0.57426   0.00000  Uiso   1.00
O1406  O     0.20871   0.44522   0.91606   0.00000  Uiso   1.00
O1407  O     0.14581   0.59469   0.76767   0.00000  Uiso   1.00
O1408  O     0.07452   0.46584   0.73607   0.00000  Uiso   1.00
O1409  O     0.26785   0.52512   0.71805   0.00000  Uiso   1.00
O1410  O     0.06990   0.52293   0.77820   0.00000  Uiso   1.00
O1411  O     0.25440   0.48610   0.76768   0.00000  Uiso   1.00
O1412  O     0.13800   0.40236   0.73607   0.00000  Uiso   1.00
O1413  O     0.20437   0.58860   0.71805   0.00000  Uiso   1.00
Zn1414 Zn    0.19244   0.47423   0.78278   0.00000  Uiso   1.00
Zn1415 Zn    0.13459   0.45711   0.72258   0.00000  Uiso   1.00
Zn1416 Zn    0.21166   0.52997   0.71188   0.00000  Uiso   1.00
Zn1417 Zn    0.12798   0.53868   0.78277   0.00000  Uiso   1.00
C1418  C     0.38569   0.49265   0.75904   0.00000  Uiso   1.00
C1419  C     0.53121   0.45592   0.95663   0.00000  Uiso   1.00
C1420  C     0.55615   0.44264   0.97745   0.00000  Uiso   1.00
C1421  C     0.61445   0.50762   0.74151   0.00000  Uiso   1.00
C1422  C     0.54616   0.45006   0.51864   0.00000  Uiso   1.00
C1423  C     0.50896   0.46929   0.54009   0.00000  Uiso   1.00
C1424  C     0.57269   0.43786   0.53871   0.00000  Uiso   1.00
C1425  C     0.56357   0.44608   0.57974   0.00000  Uiso   1.00
C1426  C     0.50346   0.48234   0.58117   0.00000  Uiso   1.00
C1427  C     0.66038   0.51346   0.73941   0.00000  Uiso   1.00
C1428  C     0.34085   0.48984   0.76022   0.00000  Uiso   1.00
C1429  C     0.42293   0.53541   0.92191   0.00000  Uiso   1.00
C1430  C     0.51828   0.65670   0.74183   0.00000  Uiso   1.00
C1431  C     0.48520   0.34504   0.76057   0.00000  Uiso   1.00
C1432  C     0.48920   0.38934   0.75871   0.00000  Uiso   1.00
C1433  C     0.51105   0.61125   0.74201   0.00000  Uiso   1.00
C1434  C     0.52136   0.47861   0.64378   0.00000  Uiso   1.00
C1435  C     0.47848   0.52086   0.85642   0.00000  Uiso   1.00
C1436  C     0.46350   0.52308   0.90023   0.00000  Uiso   1.00
C1437  C     0.52994   0.46926   0.60082   0.00000  Uiso   1.00
C1438  C     0.40420   0.52471   0.96080   0.00000  Uiso   1.00
C1439  C     0.36415   0.53374   0.56989   0.00000  Uiso   1.00
C1440  C     0.48776   0.50678   0.91970   0.00000  Uiso   1.00
C1441  C     0.65418   0.52598   0.60108   0.00000  Uiso   1.00
C1442  C     0.65102   0.48596   0.61998   0.00000  Uiso   1.00
C1443  C     0.38682   0.53302   0.68806   0.00000  Uiso   1.00
C1444  C     0.59213   0.33851   0.73293   0.00000  Uiso   1.00
C1445  C     0.59719   0.37260   0.76650   0.00000  Uiso   1.00
C1446  C     0.63763   0.37017   0.77906   0.00000  Uiso   1.00
C1447  C     0.49199   0.55052   0.59558   0.00000  Uiso   1.00
C1448  C     0.66593   0.50322   0.96928   0.00000  Uiso   1.00
C1449  C     0.41502   0.59847   0.90525   0.00000  Uiso   1.00
C1450  C     0.39123   0.62291   0.94370   0.00000  Uiso   1.00
C1451  C     0.47044   0.49627   0.95877   0.00000  Uiso   1.00
C1452  C     0.40492   0.33654   0.94308   0.00000  Uiso   1.00
C1453  C     0.40515   0.42103   0.56702   0.00000  Uiso   1.00
C1454  C     0.51573   0.40831   0.90767   0.00000  Uiso   1.00
C1455  C     0.42828   0.50637   0.98005   0.00000  Uiso   1.00
C1456  C     0.49454   0.47701   0.97757   0.00000  Uiso   1.00
C1457  C     0.48009   0.47684   0.51931   0.00000  Uiso   1.00
C1458  C     0.43604   0.48040   0.53836   0.00000  Uiso   1.00
C1459  C     0.41096   0.49726   0.51978   0.00000  Uiso   1.00
H1460  H     0.60021   0.42154   0.52269   0.00000  Uiso   1.00
H1461  H     0.62740   0.52353   0.58706   0.00000  Uiso   1.00
H1462  H     0.65321   0.45844   0.59730   0.00000  Uiso   1.00
H1463  H     0.61988   0.48146   0.64315   0.00000  Uiso   1.00
H1464  H     0.34422   0.48767   0.63387   0.00000  Uiso   1.00
H1465  H     0.38353   0.49865   0.67920   0.00000  Uiso   1.00
H1466  H     0.41822   0.54257   0.69509   0.00000  Uiso   1.00
H1467  H     0.38786   0.54885   0.66208   0.00000  Uiso   1.00
H1468  H     0.62168   0.34186   0.70766   0.00000  Uiso   1.00
H1469  H     0.59048   0.64052   0.74266   0.00000  Uiso   1.00
H1470  H     0.59943   0.40375   0.75637   0.00000  Uiso   1.00
H1471  H     0.65279   0.46447   0.77507   0.00000  Uiso   1.00
H1472  H     0.56851   0.36894   0.79257   0.00000  Uiso   1.00
H1473  H     0.63629   0.33908   0.78900   0.00000  Uiso   1.00
H1474  H     0.63976   0.39455   0.80406   0.00000  Uiso   1.00
H1475  H     0.33368   0.37553   0.75397   0.00000  Uiso   1.00
H1476  H     0.49883   0.55553   0.56384   0.00000  Uiso   1.00
H1477  H     0.52191   0.55899   0.60553   0.00000  Uiso   1.00
H1478  H     0.46843   0.57198   0.61319   0.00000  Uiso   1.00
H1479  H     0.33706   0.47176   0.97508   0.00000  Uiso   1.00
H1480  H     0.33386   0.50303   0.93758   0.00000  Uiso   1.00
H1481  H     0.63315   0.50984   0.98730   0.00000  Uiso   1.00
H1482  H     0.45367   0.66307   0.77539   0.00000  Uiso   1.00
H1483  H     0.40847   0.61002   0.87986   0.00000  Uiso   1.00
H1484  H     0.45070   0.60504   0.90078   0.00000  Uiso   1.00
H1485  H     0.35581   0.61633   0.94761   0.00000  Uiso   1.00
H1486  H     0.39857   0.61293   0.96941   0.00000  Uiso   1.00
H1487  H     0.44002   0.34373   0.94045   0.00000  Uiso   1.00
H1488  H     0.38691   0.35335   0.97111   0.00000  Uiso   1.00
H1489  H     0.39786   0.34778   0.91780   0.00000  Uiso   1.00
H1490  H     0.43463   0.40494   0.55435   0.00000  Uiso   1.00
H1491  H     0.38750   0.40867   0.59567   0.00000  Uiso   1.00
H1492  H     0.38347   0.41346   0.54716   0.00000  Uiso   1.00
H1493  H     0.58291   0.43463   0.59508   0.00000  Uiso   1.00
H1494  H     0.48103   0.41318   0.91670   0.00000  Uiso   1.00
H1495  H     0.52051   0.38197   0.92209   0.00000  Uiso   1.00
H1496  H     0.52507   0.39934   0.87515   0.00000  Uiso   1.00
H1497  H     0.58387   0.42674   0.96102   0.00000  Uiso   1.00
H1498  H     0.52082   0.50335   0.90364   0.00000  Uiso   1.00
H1499  H     0.36506   0.56321   0.55719   0.00000  Uiso   1.00
H1500  H     0.39033   0.53829   0.58506   0.00000  Uiso   1.00
H1501  H     0.65066   0.55285   0.62458   0.00000  Uiso   1.00
O1502  O     0.50000   0.50000   0.75000   0.00000  Uiso   1.00
O1503  O     0.49027   0.45726   0.66625   0.00000  Uiso   1.00
O1504  O     0.46020   0.53979   0.83749   0.00000  Uiso   1.00
O1505  O     0.54421   0.50826   0.65877   0.00000  Uiso   1.00
O1506  O     0.50532   0.49468   0.83749   0.00000  Uiso   1.00
O1507  O     0.36789   0.50015   0.53931   0.00000  Uiso   1.00
O1508  O     0.35316   0.54683   0.72061   0.00000  Uiso   1.00
O1509  O     0.55661   0.34333   0.71920   0.00000  Uiso   1.00
O1510  O     0.47365   0.50914   0.60226   0.00000  Uiso   1.00
O1511  O     0.36310   0.53472   0.98059   0.00000  Uiso   1.00
O1512  O     0.39951   0.55525   0.90469   0.00000  Uiso   1.00
O1513  O     0.51182   0.41434   0.77821   0.00000  Uiso   1.00
O1514  O     0.41580   0.46457   0.57426   0.00000  Uiso   1.00
O1515  O     0.54204   0.44522   0.91606   0.00000  Uiso   1.00
O1516  O     0.47914   0.59469   0.76767   0.00000  Uiso   1.00
O1517  O     0.40785   0.46584   0.73607   0.00000  Uiso   1.00
O1518  O     0.60119   0.52512   0.71805   0.00000  Uiso   1.00
O1519  O     0.40323   0.52293   0.77820   0.00000  Uiso   1.00
O1520  O     0.58773   0.48610   0.76768   0.00000  Uiso   1.00
O1521  O     0.47133   0.40236   0.73607   0.00000  Uiso   1.00
O1522  O     0.53771   0.58860   0.71805   0.00000  Uiso   1.00
Zn1523 Zn    0.52577   0.47423   0.78278   0.00000  Uiso   1.00
Zn1524 Zn    0.46792   0.45711   0.72258   0.00000  Uiso   1.00
Zn1525 Zn    0.54500   0.52997   0.71188   0.00000  Uiso   1.00
Zn1526 Zn    0.46131   0.53868   0.78277   0.00000  Uiso   1.00
C1527  C     0.71902   0.49265   0.75904   0.00000  Uiso   1.00
C1528  C     0.86455   0.45592   0.95663   0.00000  Uiso   1.00
C1529  C     0.88948   0.44264   0.97745   0.00000  Uiso   1.00
C1530  C     0.94779   0.50762   0.74151   0.00000  Uiso   1.00
C1531  C     0.87949   0.45006   0.51864   0.00000  Uiso   1.00
C1532  C     0.84230   0.46929   0.54009   0.00000  Uiso   1.00
C1533  C     0.90602   0.43786   0.53871   0.00000  Uiso   1.00
C1534  C     0.89690   0.44608   0.57974   0.00000  Uiso   1.00
C1535  C     0.83680   0.48234   0.58117   0.00000  Uiso   1.00
C1536  C     0.99371   0.51346   0.73941   0.00000  Uiso   1.00
C1537  C     0.67418   0.48984   0.76022   0.00000  Uiso   1.00
C1538  C     0.75626   0.53541   0.92191   0.00000  Uiso   1.00
C1539  C     0.85161   0.65670   0.74183   0.00000  Uiso   1.00
C1540  C     0.81854   0.34504   0.76057   0.00000  Uiso   1.00
C1541  C     0.82253   0.38934   0.75871   0.00000  Uiso   1.00
C1542  C     0.84438   0.61125   0.74201   0.00000  Uiso   1.00
C1543  C     0.85469   0.47861   0.64378   0.00000  Uiso   1.00
C1544  C     0.81181   0.52086   0.85642   0.00000  Uiso   1.00
C1545  C     0.79683   0.52308   0.90023   0.00000  Uiso   1.00
C1546  C     0.86327   0.46926   0.60082   0.00000  Uiso   1.00
C1547  C     0.73753   0.52471   0.96080   0.00000  Uiso   1.00
C1548  C     0.69748   0.53374   0.56989   0.00000  Uiso   1.00
C1549  C     0.82110   0.50678   0.91970   0.00000  Uiso   1.00
C1550  C     0.98752   0.52598   0.60108   0.00000  Uiso   1.00
C1551  C     0.98435   0.48596   0.61998   0.00000  Uiso   1.00
C1552  C     0.72016   0.53302   0.68806   0.00000  Uiso   1.00
C1553  C     0.92546   0.33851   0.73293   0.00000  Uiso   1.00
C1554  C     0.93052   0.37260   0.76650   0.00000  Uiso   1.00
C1555  C     0.97096   0.37017   0.77906   0.00000  Uiso   1.00
C1556  C     0.82533   0.55052   0.59558   0.00000  Uiso   1.00
C1557  C     0.99926   0.50322   0.96928   0.00000  Uiso   1.00
C1558  C     0.74836   0.59847   0.90525   0.00000  Uiso   1.00
C1559  C     0.72456   0.62291   0.94370   0.00000  Uiso   1.00
C1560  C     0.80378   0.49627   0.95877   0.00000  Uiso   1.00
C1561  C     0.73826   0.33654   0.94308   0.00000  Uiso   1.00
C1562  C     0.73848   0.42103   0.56702   0.00000  Uiso   1.00
C1563  C     0.84906   0.40831   0.90767   0.00000  Uiso   1.00
C1564  C     0.76161   0.50637   0.98005   0.00000  Uiso   1.00
C1565  C     0.82787   0.47701   0.97757   0.00000  Uiso   1.00
C1566  C     0.81342   0.47684   0.51931   0.00000  Uiso   1.00
C1567  C     0.76937   0.48040   0.53836   0.00000  Uiso   1.00
C1568  C     0.74430   0.49726   0.51978   0.00000  Uiso   1.00
H1569  H     0.93354   0.42154   0.52269   0.00000  Uiso   1.00
H1570  H     0.96073   0.52353   0.58706   0.00000  Uiso   1.00
H1571  H     0.98654   0.45844   0.59730   0.00000  Uiso   1.00
H1572  H     0.95321   0.48146   0.64315   0.00000  Uiso   1.00
H1573  H     0.67755   0.48767   0.63387   0.00000  Uiso   1.00
H1574  H     0.71687   0.49865   0.67920   0.00000  Uiso   1.00
H1575  H     0.75155   0.54257   0.69509   0.00000  Uiso   1.00
H1576  H     0.72119   0.54885   0.66208   0.00000  Uiso   1.00
H1577  H     0.95502   0.34186   0.70766   0.00000  Uiso   1.00
H1578  H     0.92381   0.64052   0.74266   0.00000  Uiso   1.00
H1579  H     0.93276   0.40375   0.75637   0.00000  Uiso   1.00
H1580  H     0.98613   0.46447   0.77507   0.00000  Uiso   1.00
H1581  H     0.90184   0.36894   0.79257   0.00000  Uiso   1.00
H1582  H     0.96962   0.33908   0.78900   0.00000  Uiso   1.00
H1583  H     0.97309   0.39455   0.80406   0.00000  Uiso   1.00
H1584  H     0.66701   0.37553   0.75397   0.00000  Uiso   1.00
H1585  H     0.83216   0.55553   0.56384   0.00000  Uiso   1.00
H1586  H     0.85525   0.55899   0.60553   0.00000  Uiso   1.00
H1587  H     0.80176   0.57198   0.61319   0.00000  Uiso   1.00
H1588  H     0.67040   0.47176   0.97508   0.00000  Uiso   1.00
H1589  H     0.66719   0.50303   0.93758   0.00000  Uiso   1.00
H1590  H     0.96648   0.50984   0.98730   0.00000  Uiso   1.00
H1591  H     0.78700   0.66307   0.77539   0.00000  Uiso   1.00
H1592  H     0.74181   0.61002   0.87986   0.00000  Uiso   1.00
H1593  H     0.78403   0.60504   0.90078   0.00000  Uiso   1.00
H1594  H     0.68915   0.61633   0.94761   0.00000  Uiso   1.00
H1595  H     0.73190   0.61293   0.96941   0.00000  Uiso   1.00
H1596  H     0.77335   0.34373   0.94045   0.00000  Uiso   1.00
H1597  H     0.72024   0.35335   0.97111   0.00000  Uiso   1.00
H1598  H     0.73119   0.34778   0.91780   0.00000  Uiso   1.00
H1599  H     0.76797   0.40494   0.55435   0.00000  Uiso   1.00
H1600  H     0.72083   0.40867   0.59567   0.00000  Uiso   1.00
H1601  H     0.71680   0.41346   0.54716   0.00000  Uiso   1.00
H1602  H     0.91624   0.43463   0.59508   0.00000  Uiso   1.00
H1603  H     0.81436   0.41318   0.91670   0.00000  Uiso   1.00
H1604  H     0.85384   0.38197   0.92209   0.00000  Uiso   1.00
H1605  H     0.85840   0.39934   0.87515   0.00000  Uiso   1.00
H1606  H     0.91720   0.42674   0.96102   0.00000  Uiso   1.00
H1607  H     0.85415   0.50335   0.90364   0.00000  Uiso   1.00
H1608  H     0.69839   0.56321   0.55719   0.00000  Uiso   1.00
H1609  H     0.72367   0.53829   0.58506   0.00000  Uiso   1.00
H1610  H     0.98400   0.55285   0.62458   0.00000  Uiso   1.00
O1611  O     0.83333   0.50000   0.75000   0.00000  Uiso   1.00
O1612  O     0.82360   0.45726   0.66625   0.00000  Uiso   1.00
O1613  O     0.79354   0.53979   0.83749   0.00000  Uiso   1.00
O1614  O     0.87755   0.50826   0.65877   0.00000  Uiso   1.00
O1615  O     0.83865   0.49468   0.83749   0.00000  Uiso   1.00
O1616  O     0.70122   0.50015   0.53931   0.00000  Uiso   1.00
O1617  O     0.68649   0.54683   0.72061   0.00000  Uiso   1.00
O1618  O     0.88995   0.34333   0.71920   0.00000  Uiso   1.00
O1619  O     0.80699   0.50914   0.60226   0.00000  Uiso   1.00
O1620  O     0.69643   0.53472   0.98059   0.00000  Uiso   1.00
O1621  O     0.73285   0.55525   0.90469   0.00000  Uiso   1.00
O1622  O     0.84515   0.41434   0.77821   0.00000  Uiso   1.00
O1623  O     0.74914   0.46457   0.57426   0.00000  Uiso   1.00
O1624  O     0.87537   0.44522   0.91606   0.00000  Uiso   1.00
O1625  O     0.81247   0.59469   0.76767   0.00000  Uiso   1.00
O1626  O     0.74119   0.46584   0.73607   0.00000  Uiso   1.00
O1627  O     0.93452   0.52512   0.71805   0.00000  Uiso   1.00
O1628  O     0.73656   0.52293   0.77820   0.00000  Uiso   1.00
O1629  O     0.92106   0.48610   0.76768   0.00000  Uiso   1.00
O1630  O     0.80467   0.40236   0.73607   0.00000  Uiso   1.00
O1631  O     0.87104   0.58860   0.71805   0.00000  Uiso   1.00
Zn1632 Zn    0.85910   0.47423   0.78278   0.00000  Uiso   1.00
Zn1633 Zn    0.80125   0.45711   0.72258   0.00000  Uiso   1.00
Zn1634 Zn    0.87833   0.52997   0.71188   0.00000  Uiso   1.00
Zn1635 Zn    0.79465   0.53868   0.78277   0.00000  Uiso   1.00
C1636  C     0.05235   0.82598   0.75904   0.00000  Uiso   1.00
C1637  C     0.19788   0.78926   0.95663   0.00000  Uiso   1.00
C1638  C     0.22281   0.77597   0.97745   0.00000  Uiso   1.00
C1639  C     0.28112   0.84095   0.74151   0.00000  Uiso   1.00
C1640  C     0.21283   0.78340   0.51864   0.00000  Uiso   1.00
C1641  C     0.17563   0.80262   0.54009   0.00000  Uiso   1.00
C1642  C     0.23935   0.77119   0.53871   0.00000  Uiso   1.00
C1643  C     0.23023   0.77942   0.57974   0.00000  Uiso   1.00
C1644  C     0.17013   0.81567   0.58117   0.00000  Uiso   1.00
C1645  C     0.32704   0.84679   0.73941   0.00000  Uiso   1.00
C1646  C     0.00752   0.82318   0.76022   0.00000  Uiso   1.00
C1647  C     0.08960   0.86874   0.92191   0.00000  Uiso   1.00
C1648  C     0.18495   0.99004   0.74183   0.00000  Uiso   1.00
C1649  C     0.15187   0.67837   0.76057   0.00000  Uiso   1.00
C1650  C     0.15586   0.72268   0.75871   0.00000  Uiso   1.00
C1651  C     0.17772   0.94458   0.74201   0.00000  Uiso   1.00
C1652  C     0.18803   0.81194   0.64378   0.00000  Uiso   1.00
C1653  C     0.14514   0.85419   0.85642   0.00000  Uiso   1.00
C1654  C     0.13017   0.85642   0.90023   0.00000  Uiso   1.00
C1655  C     0.19661   0.80259   0.60082   0.00000  Uiso   1.00
C1656  C     0.07086   0.85804   0.96080   0.00000  Uiso   1.00
C1657  C     0.03082   0.86707   0.56989   0.00000  Uiso   1.00
C1658  C     0.15443   0.84011   0.91970   0.00000  Uiso   1.00
C1659  C     0.32085   0.85932   0.60108   0.00000  Uiso   1.00
C1660  C     0.31768   0.81929   0.61998   0.00000  Uiso   1.00
C1661  C     0.05349   0.86636   0.68806   0.00000  Uiso   1.00
C1662  C     0.25879   0.67184   0.73293   0.00000  Uiso   1.00
C1663  C     0.26385   0.70593   0.76650   0.00000  Uiso   1.00
C1664  C     0.30430   0.70351   0.77906   0.00000  Uiso   1.00
C1665  C     0.15866   0.88386   0.59558   0.00000  Uiso   1.00
C1666  C     0.33260   0.83656   0.96928   0.00000  Uiso   1.00
C1667  C     0.08169   0.93180   0.90525   0.00000  Uiso   1.00
C1668  C     0.05790   0.95624   0.94370   0.00000  Uiso   1.00
C1669  C     0.13711   0.82960   0.95877   0.00000  Uiso   1.00
C1670  C     0.07159   0.66987   0.94308   0.00000  Uiso   1.00
C1671  C     0.07182   0.75436   0.56702   0.00000  Uiso   1.00
C1672  C     0.18240   0.74164   0.90767   0.00000  Uiso   1.00
C1673  C     0.09495   0.83971   0.98005   0.00000  Uiso   1.00
C1674  C     0.16121   0.81034   0.97757   0.00000  Uiso   1.00
C1675  C     0.14675   0.81017   0.51931   0.00000  Uiso   1.00
C1676  C     0.10270   0.81373   0.53836   0.00000  Uiso   1.00
C1677  C     0.07763   0.83060   0.51978   0.00000  Uiso   1.00
H1678  H     0.26688   0.75487   0.52269   0.00000  Uiso   1.00
H1679  H     0.29407   0.85687   0.58706   0.00000  Uiso   1.00
H1680  H     0.31988   0.79178   0.59730   0.00000  Uiso   1.00
H1681  H     0.28655   0.81479   0.64315   0.00000  Uiso   1.00
H1682  H     0.01089   0.82100   0.63387   0.00000  Uiso   1.00
H1683  H     0.05020   0.83198   0.67920   0.00000  Uiso   1.00
H1684  H     0.08489   0.87591   0.69509   0.00000  Uiso   1.00
H1685  H     0.05452   0.88218   0.66208   0.00000  Uiso   1.00
H1686  H     0.28835   0.67520   0.70766   0.00000  Uiso   1.00
H1687  H     0.25714   0.97386   0.74266   0.00000  Uiso   1.00
H1688  H     0.26610   0.73709   0.75637   0.00000  Uiso   1.00
H1689  H     0.31946   0.79781   0.77507   0.00000  Uiso   1.00
H1690  H     0.23518   0.70228   0.79257   0.00000  Uiso   1.00
H1691  H     0.30296   0.67241   0.78900   0.00000  Uiso   1.00
H1692  H     0.30642   0.72789   0.80406   0.00000  Uiso   1.00
H1693  H     0.00034   0.70887   0.75397   0.00000  Uiso   1.00
H1694  H     0.16549   0.88886   0.56384   0.00000  Uiso   1.00
H1695  H     0.18858   0.89232   0.60553   0.00000  Uiso   1.00
H1696  H     0.13510   0.90532   0.61319   0.00000  Uiso   1.00
H1697  H     0.00373   0.80509   0.97508   0.00000  Uiso   1.00
H1698  H     0.00053   0.83636   0.93758   0.00000  Uiso   1.00
H1699  H     0.29981   0.84317   0.98730   0.00000  Uiso   1.00
H1700  H     0.12033   0.99640   0.77539   0.00000  Uiso   1.00
H1701  H     0.07514   0.94336   0.87986   0.00000  Uiso   1.00
H1702  H     0.11737   0.93838   0.90078   0.00000  Uiso   1.00
H1703  H     0.02248   0.94966   0.94761   0.00000  Uiso   1.00
H1704  H     0.06523   0.94626   0.96941   0.00000  Uiso   1.00
H1705  H     0.10669   0.67706   0.94045   0.00000  Uiso   1.00
H1706  H     0.05358   0.68669   0.97111   0.00000  Uiso   1.00
H1707  H     0.06453   0.68111   0.91780   0.00000  Uiso   1.00
H1708  H     0.10130   0.73827   0.55435   0.00000  Uiso   1.00
H1709  H     0.05416   0.74200   0.59567   0.00000  Uiso   1.00
H1710  H     0.05014   0.74679   0.54716   0.00000  Uiso   1.00
H1711  H     0.24958   0.76796   0.59508   0.00000  Uiso   1.00
H1712  H     0.14769   0.74651   0.91670   0.00000  Uiso   1.00
H1713  H     0.18717   0.71530   0.92209   0.00000  Uiso   1.00
H1714  H     0.19173   0.73268   0.87515   0.00000  Uiso   1.00
H1715  H     0.25054   0.76008   0.96102   0.00000  Uiso   1.00
H1716  H     0.18748   0.83669   0.90364   0.00000  Uiso   1.00
H1717  H     0.03172   0.89655   0.55719   0.00000  Uiso   1.00
H1718  H     0.05700   0.87162   0.58506   0.00000  Uiso   1.00
H1719  H     0.31733   0.88618   0.62458   0.00000  Uiso   1.00
O1720  O     0.16667   0.83333   0.75000   0.00000  Uiso   1.00
O1721  O     0.15693   0.79060   0.66625   0.00000  Uiso   1.00
O1722  O     0.12687   0.87313   0.83749   0.00000  Uiso   1.00
O1723  O     0.21088   0.84159   0.65877   0.00000  Uiso   1.00
O1724  O     0.17198   0.82802   0.83749   0.00000  Uiso   1.00
O1725  O     0.03455   0.83349   0.53931   0.00000  Uiso   1.00
O1726  O     0.01983   0.88016   0.72061   0.00000  Uiso   1.00
O1727  O     0.22328   0.67666   0.71920   0.00000  Uiso   1.00
O1728  O     0.14032   0.84247   0.60226   0.00000  Uiso   1.00
O1729  O     0.02977   0.86805   0.98059   0.00000  Uiso   1.00
O1730  O     0.06618   0.88859   0.90469   0.00000  Uiso   1.00
O1731  O     0.17849   0.74768   0.77821   0.00000  Uiso   1.00
O1732  O     0.08247   0.79791   0.57426   0.00000  Uiso   1.00
O1733  O     0.20871   0.77855   0.91606   0.00000  Uiso   1.00
O1734  O     0.14581   0.92803   0.76767   0.00000  Uiso   1.00
O1735  O     0.07452   0.79917   0.73607   0.00000  Uiso   1.00
O1736  O     0.26785   0.85845   0.71805   0.00000  Uiso   1.00
O1737  O     0.06990   0.85627   0.77820   0.00000  Uiso   1.00
O1738  O     0.25440   0.81944   0.76768   0.00000  Uiso   1.00
O1739  O     0.13800   0.73570   0.73607   0.00000  Uiso   1.00
O1740  O     0.20437   0.92193   0.71805   0.00000  Uiso   1.00
Zn1741 Zn    0.19244   0.80756   0.78278   0.00000  Uiso   1.00
Zn1742 Zn    0.13459   0.79044   0.72258   0.00000  Uiso   1.00
Zn1743 Zn    0.21166   0.86331   0.71188   0.00000  Uiso   1.00
Zn1744 Zn    0.12798   0.87202   0.78277   0.00000  Uiso   1.00
C1745  C     0.38569   0.82598   0.75904   0.00000  Uiso   1.00
C1746  C     0.53121   0.78926   0.95663   0.00000  Uiso   1.00
C1747  C     0.55615   0.77597   0.97745   0.00000  Uiso   1.00
C1748  C     0.61445   0.84095   0.74151   0.00000  Uiso   1.00
C1749  C     0.54616   0.78340   0.51864   0.00000  Uiso   1.00
C1750  C     0.50896   0.80262   0.54009   0.00000  Uiso   1.00
C1751  C     0.57269   0.77119   0.53871   0.00000  Uiso   1.00
C1752  C     0.56357   0.77942   0.57974   0.00000  Uiso   1.00
C1753  C     0.50346   0.81567   0.58117   0.00000  Uiso   1.00
C1754  C     0.66038   0.84679   0.73941   0.00000  Uiso   1.00
C1755  C     0.34085   0.82318   0.76022   0.00000  Uiso   1.00
C1756  C     0.42293   0.86874   0.92191   0.00000  Uiso   1.00
C1757  C     0.51828   0.99004   0.74183   0.00000  Uiso   1.00
C1758  C     0.48520   0.67837   0.76057   0.00000  Uiso   1.00
C1759  C     0.48920   0.72268   0.75871   0.00000  Uiso   1.00
C1760  C     0.51105   0.94458   0.74201   0.00000  Uiso   1.00
C1761  C     0.52136   0.81194   0.64378   0.00000  Uiso   1.00
C1762  C     0.47848   0.85419   0.85642   0.00000  Uiso   1.00
C1763  C     0.46350   0.85642   0.90023   0.00000  Uiso   1.00
C1764  C     0.52994   0.80259   0.60082   0.00000  Uiso   1.00
C1765  C     0.40420   0.85804   0.96080   0.00000  Uiso   1.00
C1766  C     0.36415   0.86707   0.56989   0.00000  Uiso   1.00
C1767  C     0.48776   0.84011   0.91970   0.00000  Uiso   1.00
C1768  C     0.65418   0.85932   0.60108   0.00000  Uiso   1.00
C1769  C     0.65102   0.81929   0.61998   0.00000  Uiso   1.00
C1770  C     0.38682   0.86636   0.68806   0.00000  Uiso   1.00
C1771  C     0.59213   0.67184   0.73293   0.00000  Uiso   1.00
C1772  C     0.59719   0.70593   0.76650   0.00000  Uiso   1.00
C1773  C     0.63763   0.70351   0.77906   0.00000  Uiso   1.00
C1774  C     0.49199   0.88386   0.59558   0.00000  Uiso   1.00
C1775  C     0.66593   0.83656   0.96928   0.00000  Uiso   1.00
C1776  C     0.41502   0.93180   0.90525   0.00000  Uiso   1.00
C1777  C     0.39123   0.95624   0.94370   0.00000  Uiso   1.00
C1778  C     0.47044   0.82960   0.95877   0.00000  Uiso   1.00
C1779  C     0.40492   0.66987   0.94308   0.00000  Uiso   1.00
C1780  C     0.40515   0.75436   0.56702   0.00000  Uiso   1.00
C1781  C     0.51573   0.74164   0.90767   0.00000  Uiso   1.00
C1782  C     0.42828   0.83971   0.98005   0.00000  Uiso   1.00
C1783  C     0.49454   0.81034   0.97757   0.00000  Uiso   1.00
C1784  C     0.48009   0.81017   0.51931   0.00000  Uiso   1.00
C1785  C     0.43604   0.81373   0.53836   0.00000  Uiso   1.00
C1786  C     0.41096   0.83060   0.51978   0.00000  Uiso   1.00
H1787  H     0.60021   0.75487   0.52269   0.00000  Uiso   1.00
H1788  H     0.62740   0.85687   0.58706   0.00000  Uiso   1.00
H1789  H     0.65321   0.79178   0.59730   0.00000  Uiso   1.00
H1790  H     0.61988   0.81479   0.64315   0.00000  Uiso   1.00
H1791  H     0.34422   0.82100   0.63387   0.00000  Uiso   1.00
H1792  H     0.38353   0.83198   0.67920   0.00000  Uiso   1.00
H1793  H     0.41822   0.87591   0.69509   0.00000  Uiso   1.00
H1794  H     0.38786   0.88218   0.66208   0.00000  Uiso   1.00
H1795  H     0.62168   0.67520   0.70766   0.00000  Uiso   1.00
H1796  H     0.59048   0.97386   0.74266   0.00000  Uiso   1.00
H1797  H     0.59943   0.73709   0.75637   0.00000  Uiso   1.00
H1798  H     0.65279   0.79781   0.77507   0.00000  Uiso   1.00
H1799  H     0.56851   0.70228   0.79257   0.00000  Uiso   1.00
H1800  H     0.63629   0.67241   0.78900   0.00000  Uiso   1.00
H1801  H     0.63976   0.72789   0.80406   0.00000  Uiso   1.00
H1802  H     0.33368   0.70887   0.75397   0.00000  Uiso   1.00
H1803  H     0.49883   0.88886   0.56384   0.00000  Uiso   1.00
H1804  H     0.52191   0.89232   0.60553   0.00000  Uiso   1.00
H1805  H     0.46843   0.90532   0.61319   0.00000  Uiso   1.00
H1806  H     0.33706   0.80509   0.97508   0.00000  Uiso   1.00
H1807  H     0.33386   0.83636   0.93758   0.00000  Uiso   1.00
H1808  H     0.63315   0.84317   0.98730   0.00000  Uiso   1.00
H1809  H     0.45367   0.99640   0.77539   0.00000  Uiso   1.00
H1810  H     0.40847   0.94336   0.87986   0.00000  Uiso   1.00
H1811  H     0.45070   0.93838   0.90078   0.00000  Uiso   1.00
H1812  H     0.35581   0.94966   0.94761   0.00000  Uiso   1.00
H1813  H     0.39857   0.94626   0.96941   0.00000  Uiso   1.00
H1814  H     0.44002   0.67706   0.94045   0.00000  Uiso   1.00
H1815  H     0.38691   0.68669   0.97111   0.00000  Uiso   1.00
H1816  H     0.39786   0.68111   0.91780   0.00000  Uiso   1.00
H1817  H     0.43463   0.73827   0.55435   0.00000  Uiso   1.00
H1818  H     0.38750   0.74200   0.59567   0.00000  Uiso   1.00
H1819  H     0.38347   0.74679   0.54716   0.00000  Uiso   1.00
H1820  H     0.58291   0.76796   0.59508   0.00000  Uiso   1.00
H1821  H     0.48103   0.74651   0.91670   0.00000  Uiso   1.00
H1822  H     0.52051   0.71530   0.92209   0.00000  Uiso   1.00
H1823  H     0.52507   0.73268   0.87515   0.00000  Uiso   1.00
H1824  H     0.58387   0.76008   0.96102   0.00000  Uiso   1.00
H1825  H     0.52082   0.83669   0.90364   0.00000  Uiso   1.00
H1826  H     0.36506   0.89655   0.55719   0.00000  Uiso   1.00
H1827  H     0.39033   0.87162   0.58506   0.00000  Uiso   1.00
H1828  H     0.65066   0.88618   0.62458   0.00000  Uiso   1.00
O1829  O     0.50000   0.83333   0.75000   0.00000  Uiso   1.00
O1830  O     0.49027   0.79060   0.66625   0.00000  Uiso   1.00
O1831  O     0.46020   0.87313   0.83749   0.00000  Uiso   1.00
O1832  O     0.54421   0.84159   0.65877   0.00000  Uiso   1.00
O1833  O     0.50532   0.82802   0.83749   0.00000  Uiso   1.00
O1834  O     0.36789   0.83349   0.53931   0.00000  Uiso   1.00
O1835  O     0.35316   0.88016   0.72061   0.00000  Uiso   1.00
O1836  O     0.55661   0.67666   0.71920   0.00000  Uiso   1.00
O1837  O     0.47365   0.84247   0.60226   0.00000  Uiso   1.00
O1838  O     0.36310   0.86805   0.98059   0.00000  Uiso   1.00
O1839  O     0.39951   0.88859   0.90469   0.00000  Uiso   1.00
O1840  O     0.51182   0.74768   0.77821   0.00000  Uiso   1.00
O1841  O     0.41580   0.79791   0.57426   0.00000  Uiso   1.00
O1842  O     0.54204   0.77855   0.91606   0.00000  Uiso   1.00
O1843  O     0.47914   0.92803   0.76767   0.00000  Uiso   1.00
O1844  O     0.40785   0.79917   0.73607   0.00000  Uiso   1.00
O1845  O     0.60119   0.85845   0.71805   0.00000  Uiso   1.00
O1846  O     0.40323   0.85627   0.77820   0.00000  Uiso   1.00
O1847  O     0.58773   0.81944   0.76768   0.00000  Uiso   1.00
O1848  O     0.47133   0.73570   0.73607   0.00000  Uiso   1.00
O1849  O     0.53771   0.92193   0.71805   0.00000  Uiso   1.00
Zn1850 Zn    0.52577   0.80756   0.78278   0.00000  Uiso   1.00
Zn1851 Zn    0.46792   0.79044   0.72258   0.00000  Uiso   1.00
Zn1852 Zn    0.54500   0.86331   0.71188   0.00000  Uiso   1.00
Zn1853 Zn    0.46131   0.87202   0.78277   0.00000  Uiso   1.00
C1854  C     0.71902   0.82598   0.75904   0.00000  Uiso   1.00
C1855  C     0.86455   0.78926   0.95663   0.00000  Uiso   1.00
C1856  C     0.88948   0.77597   0.97745   0.00000  Uiso   1.00
C1857  C     0.94779   0.84095   0.74151   0.00000  Uiso   1.00
C1858  C     0.87949   0.78340   0.51864   0.00000  Uiso   1.00
C1859  C     0.84230   0.80262   0.54009   0.00000  Uiso   1.00
C1860  C     0.90602   0.77119   0.53871   0.00000  Uiso   1.00
C1861  C     0.89690   0.77942   0.57974   0.00000  Uiso   1.00
C1862  C     0.83680   0.81567   0.58117   0.00000  Uiso   1.00
C1863  C     0.99371   0.84679   0.73941   0.00000  Uiso   1.00
C1864  C     0.67418   0.82318   0.76022   0.00000  Uiso   1.00
C1865  C     0.75626   0.86874   0.92191   0.00000  Uiso   1.00
C1866  C     0.85161   0.99004   0.74183   0.00000  Uiso   1.00
C1867  C     0.81854   0.67837   0.76057   0.00000  Uiso   1.00
C1868  C     0.82253   0.72268   0.75871   0.00000  Uiso   1.00
C1869  C     0.84438   0.94458   0.74201   0.00000  Uiso   1.00
C1870  C     0.85469   0.81194   0.64378   0.00000  Uiso   1.00
C1871  C     0.81181   0.85419   0.85642   0.00000  Uiso   1.00
C1872  C     0.79683   0.85642   0.90023   0.00000  Uiso   1.00
C1873  C     0.86327   0.80259   0.60082   0.00000  Uiso   1.00
C1874  C     0.73753   0.85804   0.96080   0.00000  Uiso   1.00
C1875  C     0.69748   0.86707   0.56989   0.00000  Uiso   1.00
C1876  C     0.82110   0.84011   0.91970   0.00000  Uiso   1.00
C1877  C     0.98752   0.85932   0.60108   0.00000  Uiso   1.00
C1878  C     0.98435   0.81929   0.61998   0.00000  Uiso   1.00
C1879  C     0.72016   0.86636   0.68806   0.00000  Uiso   1.00
C1880  C     0.92546   0.67184   0.73293   0.00000  Uiso   1.00
C1881  C     0.93052   0.70593   0.76650   0.00000  Uiso   1.00
C1882  C     0.97096   0.70351   0.77906   0.00000  Uiso   1.00
C1883  C     0.82533   0.88386   0.59558   0.00000  Uiso   1.00
C1884  C     0.99926   0.83656   0.96928   0.00000  Uiso   1.00
C1885  C     0.74836   0.93180   0.90525   0.00000  Uiso   1.00
C1886  C     0.72456   0.95624   0.94370   0.00000  Uiso   1.00
C1887  C     0.80378   0.82960   0.95877   0.00000  Uiso   1.00
C1888  C     0.73826   0.66987   0.94308   0.00000  Uiso   1.00
C1889  C     0.73848   0.75436   0.56702   0.00000  Uiso   1.00
C1890  C     0.84906   0.74164   0.90767   0.00000  Uiso   1.00
C1891  C     0.76161   0.83971   0.98005   0.00000  Uiso   1.00
C1892  C     0.82787   0.81034   0.97757   0.00000  Uiso   1.00
C1893  C     0.81342   0.81017   0.51931   0.00000  Uiso   1.00
C1894  C     0.76937   0.81373   0.53836   0.00000  Uiso   1.00
C1895  C     0.74430   0.83060   0.51978   0.00000  Uiso   1.00
H1896  H     0.93354   0.75487   0.52269   0.00000  Uiso   1.00
H1897  H     0.96073   0.85687   0.58706   0.00000  Uiso   1.00
H1898  H     0.98654   0.79178   0.59730   0.00000  Uiso   1.00
H1899  H     0.95321   0.81479   0.64315   0.00000  Uiso   1.00
H1900  H     0.67755   0.82100   0.63387   0.00000  Uiso   1.00
H1901  H     0.71687   0.83198   0.67920   0.00000  Uiso   1.00
H1902  H     0.75155   0.87591   0.69509   0.00000  Uiso   1.00
H1903  H     0.72119   0.88218   0.66208   0.00000  Uiso   1.00
H1904  H     0.95502   0.67520   0.70766   0.00000  Uiso   1.00
H1905  H     0.92381   0.97386   0.74266   0.00000  Uiso   1.00
H1906  H     0.93276   0.73709   0.75637   0.00000  Uiso   1.00
H1907  H     0.98613   0.79781   0.77507   0.00000  Uiso   1.00
H1908  H     0.90184   0.70228   0.79257   0.00000  Uiso   1.00
H1909  H     0.96962   0.67241   0.78900   0.00000  Uiso   1.00
H1910  H     0.97309   0.72789   0.80406   0.00000  Uiso   1.00
H1911  H     0.66701   0.70887   0.75397   0.00000  Uiso   1.00
H1912  H     0.83216   0.88886   0.56384   0.00000  Uiso   1.00
H1913  H     0.85525   0.89232   0.60553   0.00000  Uiso   1.00
H1914  H     0.80176   0.90532   0.61319   0.00000  Uiso   1.00
H1915  H     0.67040   0.80509   0.97508   0.00000  Uiso   1.00
H1916  H     0.66719   0.83636   0.93758   0.00000  Uiso   1.00
H1917  H     0.96648   0.84317   0.98730   0.00000  Uiso   1.00
H1918  H     0.78700   0.99640   0.77539   0.00000  Uiso   1.00
H1919  H     0.74181   0.94336   0.87986   0.00000  Uiso   1.00
H1920  H     0.78403   0.93838   0.90078   0.00000  Uiso   1.00
H1921  H     0.68915   0.94966   0.94761   0.00000  Uiso   1.00
H1922  H     0.73190   0.94626   0.96941   0.00000  Uiso   1.00
H1923  H     0.77335   0.67706   0.94045   0.00000  Uiso   1.00
H1924  H     0.72024   0.68669   0.97111   0.00000  Uiso   1.00
H1925  H     0.73119   0.68111   0.91780   0.00000  Uiso   1.00
H1926  H     0.76797   0.73827   0.55435   0.00000  Uiso   1.00
H1927  H     0.72083   0.74200   0.59567   0.00000  Uiso   1.00
H1928  H     0.71680   0.74679   0.54716   0.00000  Uiso   1.00
H1929  H     0.91624   0.76796   0.59508   0.00000  Uiso   1.00
H1930  H     0.81436   0.74651   0.91670   0.00000  Uiso   1.00
H1931  H     0.85384   0.71530   0.92209   0.00000  Uiso   1.00
H1932  H     0.85840   0.73268   0.87515   0.00000  Uiso   1.00
H1933  H     0.91720   0.76008   0.96102   0.00000  Uiso   1.00
H1934  H     0.85415   0.83669   0.90364   0.00000  Uiso   1.00
H1935  H     0.69839   0.89655   0.55719   0.00000  Uiso   1.00
H1936  H     0.72367   0.87162   0.58506   0.00000  Uiso   1.00
H1937  H     0.98400   0.88618   0.62458   0.00000  Uiso   1.00
O1938  O     0.83333   0.83333   0.75000   0.00000  Uiso   1.00
O1939  O     0.82360   0.79060   0.66625   0.00000  Uiso   1.00
O1940  O     0.79354   0.87313   0.83749   0.00000  Uiso   1.00
O1941  O     0.87755   0.84159   0.65877   0.00000  Uiso   1.00
O1942  O     0.83865   0.82802   0.83749   0.00000  Uiso   1.00
O1943  O     0.70122   0.83349   0.53931   0.00000  Uiso   1.00
O1944  O     0.68649   0.88016   0.72061   0.00000  Uiso   1.00
O1945  O     0.88995   0.67666   0.71920   0.00000  Uiso   1.00
O1946  O     0.80699   0.84247   0.60226   0.00000  Uiso   1.00
O1947  O     0.69643   0.86805   0.98059   0.00000  Uiso   1.00
O1948  O     0.73285   0.88859   0.90469   0.00000  Uiso   1.00
O1949  O     0.84515   0.74768   0.77821   0.00000  Uiso   1.00
O1950  O     0.74914   0.79791   0.57426   0.00000  Uiso   1.00
O1951  O     0.87537   0.77855   0.91606   0.00000  Uiso   1.00
O1952  O     0.81247   0.92803   0.76767   0.00000  Uiso   1.00
O1953  O     0.74119   0.79917   0.73607   0.00000  Uiso   1.00
O1954  O     0.93452   0.85845   0.71805   0.00000  Uiso   1.00
O1955  O     0.73656   0.85627   0.77820   0.00000  Uiso   1.00
O1956  O     0.92106   0.81944   0.76768   0.00000  Uiso   1.00
O1957  O     0.80467   0.73570   0.73607   0.00000  Uiso   1.00
O1958  O     0.87104   0.92193   0.71805   0.00000  Uiso   1.00
Zn1959 Zn    0.85910   0.80756   0.78278   0.00000  Uiso   1.00
Zn1960 Zn    0.80125   0.79044   0.72258   0.00000  Uiso   1.00
Zn1961 Zn    0.87833   0.86331   0.71188   0.00000  Uiso   1.00
Zn1962 Zn    0.79465   0.87202   0.78277   0.00000  Uiso   1.00
loop_
_geom_bond_atom_site_label_1
_geom_bond_atom_site_label_2
_geom_bond_distance
_geom_bond_site_symmetry_2
_ccdc_geom_bond_type
C1     C11     1.439   .     S
C1     O100    1.263   .     A
C1     O102    1.270   .     A
C2     C39     1.430   .     A
C2     C3      1.396   .     A
C2     O98     1.382   .     S
C3     H80     1.085   .     S
C3     C986    1.393   .     S
C4     O103    1.279   .     A
C4     O101    1.277   .     A
C4     C10     1.460   .     S
C5     C6      1.415   .     A
C5     C7      1.401   .     A
C5     C984    1.393   1_554 S
C6     C9      1.423   .     A
C6     C40     1.422   .     A
C7     C8      1.391   .     A
C7     H43     1.084   .     S
C8     C20     1.396   .     A
C8     H76     1.080   .     S
C9     O93     1.385   .     S
C9     C20     1.402   .     A
C10    C120    1.345   .     S
C10    O200    1.393   .     S
C11    C228    1.345   1_455 S
C11    H272    1.085   1_455 S
C12    O95     1.385   .     S
C12    C21     1.406   .     A
C12    C19     1.409   .     A
C13    C16     1.463   .     S
C13    C341    1.337   .     S
C13    O419    1.393   .     S
C14    C15     1.438   .     S
C14    C667    1.337   1_545 S
C14    H719    1.087   1_545 S
C15    O104    1.271   .     A
C15    O96     1.276   .     A
C16    O105    1.268   .     A
C16    O99     1.271   .     A
C17    O88     1.274   .     A
C17    C20     1.460   .     S
C17    O86     1.270   .     A
C18    C19     1.480   .     S
C18    O89     1.291   .     A
C18    O87     1.287   .     A
C19    C23     1.394   .     A
C21    O94     1.384   .     S
C21    C38     1.421   .     A
C22    H82     1.112   .     S
C22    O90     1.416   .     S
C22    H83     1.116   .     S
C22    C242    1.529   1_455 S
C23    C34     1.406   .     A
C23    H81     1.077   .     S
C24    C25     1.528   .     S
C24    H44     1.112   .     S
C24    H84     1.112   .     S
C24    C131    1.529   .     S
C25    H45     1.109   .     S
C25    H46     1.108   .     S
C25    H156    1.104   .     S
C26    H50     1.109   .     S
C26    H49     1.110   .     S
C26    O91     1.415   .     S
C26    H48     1.115   .     S
C27    H51     1.111   .     S
C27    O92     1.418   .     S
C27    C28     1.532   .     S
C27    H706    1.113   1_545 S
C28    C29     1.526   .     S
C28    H55     1.111   .     S
C28    H53     1.110   .     S
C29    H57     1.110   .     S
C29    H56     1.111   .     S
C29    H167    1.111   .     S
C30    O93     1.410   .     S
C30    H60     1.113   .     S
C30    H59     1.113   .     S
C30    H61     1.109   .     S
C31    H64     1.109   .     S
C31    H171    1.114   .     S
C31    H172    1.112   .     S
C31    O203    1.412   .     S
C32    H67     1.117   .     S
C32    H66     1.111   .     S
C32    C33     1.534   .     S
C32    O95     1.418   .     S
C33    H69     1.110   .     S
C33    H68     1.112   .     S
C33    C362    1.526   .     S
C34    C39     1.428   .     A
C34    C38     1.425   .     A
C35    H70     1.110   .     S
C35    H71     1.111   .     S
C35    H72     1.111   .     S
C35    C687    1.526   1_545 S
C36    O97     1.410   .     S
C36    H75     1.114   .     S
C36    H74     1.109   .     S
C36    H73     1.113   .     S
C37    H79     1.110   .     S
C37    O98     1.410   .     S
C37    H77     1.113   .     S
C37    H78     1.113   .     S
C38    C1023   1.413   .     S
C39    C1021   1.416   .     S
C40    C41     1.413   .     A
C40    C1020   1.416   1_554 S
C41    C42     1.402   .     A
C41    O97     1.384   .     S
C42    O90     1.384   .     S
C42    C1019   1.413   1_554 S
H47    C243    1.104   1_455 S
H52    C354    1.113   .     S
H54    C120    1.085   .     S
H58    C247    1.111   1_455 S
H62    C249    1.114   1_455 S
H63    C249    1.112   1_455 S
H65    C341    1.087   .     S
O85    Zn109   1.935   .     S
O85    Zn108   1.926   .     S
O85    Zn106   1.960   .     S
O85    Zn107   1.930   .     S
O86    Zn107   1.916   .     S
O87    Zn109   1.925   .     S
O88    Zn108   1.918   .     S
O89    Zn106   1.912   .     S
O91    C228    1.393   1_455 S
O92    C667    1.393   1_545 S
O94    C249    1.412   1_455 S
O96    Zn106   1.926   .     S
O99    Zn109   1.930   .     S
O100   Zn107   1.932   .     S
O101   Zn108   1.940   .     S
O102   Zn109   1.930   .     S
O103   Zn106   1.923   .     S
O104   Zn107   1.941   .     S
O105   Zn108   1.935   .     S
C110   C120    1.439   .     S
C110   O209    1.263   .     A
C110   O211    1.270   .     A
C111   C148    1.430   .     A
C111   C112    1.396   .     A
C111   O207    1.382   .     S
C112   H189    1.085   .     S
C112   C1095   1.393   .     S
C113   O212    1.279   .     A
C113   O210    1.277   .     A
C113   C119    1.460   .     S
C114   C115    1.415   .     A
C114   C116    1.401   .     A
C114   C1093   1.393   1_554 S
C115   C118    1.423   .     A
C115   C149    1.422   .     A
C116   C117    1.391   .     A
C116   H152    1.084   .     S
C117   C129    1.396   .     A
C117   H185    1.080   .     S
C118   O202    1.385   .     S
C118   C129    1.402   .     A
C119   C229    1.345   .     S
C119   O309    1.393   .     S
C121   O204    1.385   .     S
C121   C130    1.406   .     A
C121   C128    1.409   .     A
C122   C125    1.463   .     S
C122   C450    1.337   .     S
C122   O528    1.393   .     S
C123   C124    1.438   .     S
C123   C776    1.337   1_545 S
C123   H828    1.087   1_545 S
C124   O213    1.271   .     A
C124   O205    1.276   .     A
C125   O214    1.268   .     A
C125   O208    1.271   .     A
C126   O197    1.274   .     A
C126   C129    1.460   .     S
C126   O195    1.270   .     A
C127   C128    1.480   .     S
C127   O198    1.291   .     A
C127   O196    1.287   .     A
C128   C132    1.394   .     A
C130   O203    1.384   .     S
C130   C147    1.421   .     A
C131   H191    1.112   .     S
C131   O199    1.416   .     S
C131   H192    1.116   .     S
C132   C143    1.406   .     A
C132   H190    1.077   .     S
C133   C134    1.528   .     S
C133   H153    1.112   .     S
C133   H193    1.112   .     S
C133   C240    1.529   .     S
C134   H154    1.109   .     S
C134   H155    1.108   .     S
C134   H265    1.104   .     S
C135   H159    1.109   .     S
C135   H158    1.110   .     S
C135   O200    1.415   .     S
C135   H157    1.115   .     S
C136   H160    1.111   .     S
C136   O201    1.418   .     S
C136   C137    1.532   .     S
C136   H815    1.113   1_545 S
C137   C138    1.526   .     S
C137   H164    1.111   .     S
C137   H162    1.110   .     S
C138   H166    1.110   .     S
C138   H165    1.111   .     S
C138   H276    1.111   .     S
C139   O202    1.410   .     S
C139   H169    1.113   .     S
C139   H168    1.113   .     S
C139   H170    1.109   .     S
C140   H173    1.109   .     S
C140   H280    1.114   .     S
C140   H281    1.112   .     S
C140   O312    1.412   .     S
C141   H176    1.117   .     S
C141   H175    1.111   .     S
C141   C142    1.534   .     S
C141   O204    1.418   .     S
C142   H178    1.110   .     S
C142   H177    1.112   .     S
C142   C471    1.526   .     S
C143   C148    1.428   .     A
C143   C147    1.425   .     A
C144   H179    1.110   .     S
C144   H180    1.111   .     S
C144   H181    1.111   .     S
C144   C796    1.526   1_545 S
C145   O206    1.410   .     S
C145   H184    1.114   .     S
C145   H183    1.109   .     S
C145   H182    1.113   .     S
C146   H188    1.110   .     S
C146   O207    1.410   .     S
C146   H186    1.113   .     S
C146   H187    1.113   .     S
C147   C1132   1.413   .     S
C148   C1130   1.416   .     S
C149   C150    1.413   .     A
C149   C1129   1.416   1_554 S
C150   C151    1.402   .     A
C150   O206    1.384   .     S
C151   O199    1.384   .     S
C151   C1128   1.413   1_554 S
H161   C463    1.113   .     S
H163   C229    1.085   .     S
H174   C450    1.087   .     S
O194   Zn218   1.935   .     S
O194   Zn217   1.926   .     S
O194   Zn215   1.960   .     S
O194   Zn216   1.930   .     S
O195   Zn216   1.916   .     S
O196   Zn218   1.925   .     S
O197   Zn217   1.918   .     S
O198   Zn215   1.912   .     S
O201   C776    1.393   1_545 S
O205   Zn215   1.926   .     S
O208   Zn218   1.930   .     S
O209   Zn216   1.932   .     S
O210   Zn217   1.940   .     S
O211   Zn218   1.930   .     S
O212   Zn215   1.923   .     S
O213   Zn216   1.941   .     S
O214   Zn217   1.935   .     S
C219   C229    1.439   .     S
C219   O318    1.263   .     A
C219   O320    1.270   .     A
C220   C257    1.430   .     A
C220   C221    1.396   .     A
C220   O316    1.382   .     S
C221   H298    1.085   .     S
C221   C1204   1.393   .     S
C222   O321    1.279   .     A
C222   O319    1.277   .     A
C222   C228    1.460   .     S
C223   C224    1.415   .     A
C223   C225    1.401   .     A
C223   C1202   1.393   1_554 S
C224   C227    1.423   .     A
C224   C258    1.422   .     A
C225   C226    1.391   .     A
C225   H261    1.084   .     S
C226   C238    1.396   .     A
C226   H294    1.080   .     S
C227   O311    1.385   .     S
C227   C238    1.402   .     A
C228   C11     1.345   1_655 S
C228   O91     1.393   1_655 S
C230   O313    1.385   .     S
C230   C239    1.406   .     A
C230   C237    1.409   .     A
C231   C234    1.463   .     S
C231   C559    1.337   .     S
C231   O637    1.393   .     S
C232   C233    1.438   .     S
C232   C885    1.337   1_545 S
C232   H937    1.087   1_545 S
C233   O322    1.271   .     A
C233   O314    1.276   .     A
C234   O323    1.268   .     A
C234   O317    1.271   .     A
C235   O306    1.274   .     A
C235   C238    1.460   .     S
C235   O304    1.270   .     A
C236   C237    1.480   .     S
C236   O307    1.291   .     A
C236   O305    1.287   .     A
C237   C241    1.394   .     A
C239   O312    1.384   .     S
C239   C256    1.421   .     A
C240   H300    1.112   .     S
C240   O308    1.416   .     S
C240   H301    1.116   .     S
C241   C252    1.406   .     A
C241   H299    1.077   .     S
C242   C243    1.528   .     S
C242   H262    1.112   .     S
C242   H302    1.112   .     S
C242   C22     1.529   1_655 S
C243   H263    1.109   .     S
C243   H264    1.108   .     S
C243   H47     1.104   1_655 S
C244   H268    1.109   .     S
C244   H267    1.110   .     S
C244   O309    1.415   .     S
C244   H266    1.115   .     S
C245   H269    1.111   .     S
C245   O310    1.418   .     S
C245   C246    1.532   .     S
C245   H924    1.113   1_545 S
C246   C247    1.526   .     S
C246   H273    1.111   .     S
C246   H271    1.110   .     S
C247   H275    1.110   .     S
C247   H274    1.111   .     S
C247   H58     1.111   1_655 S
C248   O311    1.410   .     S
C248   H278    1.113   .     S
C248   H277    1.113   .     S
C248   H279    1.109   .     S
C249   H282    1.109   .     S
C249   H62     1.114   1_655 S
C249   H63     1.112   1_655 S
C249   O94     1.412   1_655 S
C250   H285    1.117   .     S
C250   H284    1.111   .     S
C250   C251    1.534   .     S
C250   O313    1.418   .     S
C251   H287    1.110   .     S
C251   H286    1.112   .     S
C251   C580    1.526   .     S
C252   C257    1.428   .     A
C252   C256    1.425   .     A
C253   H288    1.110   .     S
C253   H289    1.111   .     S
C253   H290    1.111   .     S
C253   C905    1.526   1_545 S
C254   O315    1.410   .     S
C254   H293    1.114   .     S
C254   H292    1.109   .     S
C254   H291    1.113   .     S
C255   H297    1.110   .     S
C255   O316    1.410   .     S
C255   H295    1.113   .     S
C255   H296    1.113   .     S
C256   C1241   1.413   .     S
C257   C1239   1.416   .     S
C258   C259    1.413   .     A
C258   C1238   1.416   1_554 S
C259   C260    1.402   .     A
C259   O315    1.384   .     S
C260   O308    1.384   .     S
C260   C1237   1.413   1_554 S
H270   C572    1.113   .     S
H272   C11     1.085   1_655 S
H283   C559    1.087   .     S
O303   Zn327   1.935   .     S
O303   Zn326   1.926   .     S
O303   Zn324   1.960   .     S
O303   Zn325   1.930   .     S
O304   Zn325   1.916   .     S
O305   Zn327   1.925   .     S
O306   Zn326   1.918   .     S
O307   Zn324   1.912   .     S
O310   C885    1.393   1_545 S
O314   Zn324   1.926   .     S
O317   Zn327   1.930   .     S
O318   Zn325   1.932   .     S
O319   Zn326   1.940   .     S
O320   Zn327   1.930   .     S
O321   Zn324   1.923   .     S
O322   Zn325   1.941   .     S
O323   Zn326   1.935   .     S
C328   C338    1.439   .     S
C328   O427    1.263   .     A
C328   O429    1.270   .     A
C329   C366    1.430   .     A
C329   C330    1.396   .     A
C329   O425    1.382   .     S
C330   H407    1.085   .     S
C330   C1313   1.393   .     S
C331   O430    1.279   .     A
C331   O428    1.277   .     A
C331   C337    1.460   .     S
C332   C333    1.415   .     A
C332   C334    1.401   .     A
C332   C1311   1.393   1_554 S
C333   C336    1.423   .     A
C333   C367    1.422   .     A
C334   C335    1.391   .     A
C334   H370    1.084   .     S
C335   C347    1.396   .     A
C335   H403    1.080   .     S
C336   O420    1.385   .     S
C336   C347    1.402   .     A
C337   C447    1.345   .     S
C337   O527    1.393   .     S
C338   C555    1.345   1_455 S
C338   H599    1.085   1_455 S
C339   O422    1.385   .     S
C339   C348    1.406   .     A
C339   C346    1.409   .     A
C340   C343    1.463   .     S
C340   C668    1.337   .     S
C340   O746    1.393   .     S
C341   C342    1.438   .     S
C342   O431    1.271   .     A
C342   O423    1.276   .     A
C343   O432    1.268   .     A
C343   O426    1.271   .     A
C344   O415    1.274   .     A
C344   C347    1.460   .     S
C344   O413    1.270   .     A
C345   C346    1.480   .     S
C345   O416    1.291   .     A
C345   O414    1.287   .     A
C346   C350    1.394   .     A
C348   O421    1.384   .     S
C348   C365    1.421   .     A
C349   H409    1.112   .     S
C349   O417    1.416   .     S
C349   H410    1.116   .     S
C349   C569    1.529   1_455 S
C350   C361    1.406   .     A
C350   H408    1.077   .     S
C351   C352    1.528   .     S
C351   H371    1.112   .     S
C351   H411    1.112   .     S
C351   C458    1.529   .     S
C352   H372    1.109   .     S
C352   H373    1.108   .     S
C352   H483    1.104   .     S
C353   H377    1.109   .     S
C353   H376    1.110   .     S
C353   O418    1.415   .     S
C353   H375    1.115   .     S
C354   H378    1.111   .     S
C354   O419    1.418   .     S
C354   C355    1.532   .     S
C355   C356    1.526   .     S
C355   H382    1.111   .     S
C355   H380    1.110   .     S
C356   H384    1.110   .     S
C356   H383    1.111   .     S
C356   H494    1.111   .     S
C357   O420    1.410   .     S
C357   H387    1.113   .     S
C357   H386    1.113   .     S
C357   H388    1.109   .     S
C358   H391    1.109   .     S
C358   H498    1.114   .     S
C358   H499    1.112   .     S
C358   O530    1.412   .     S
C359   H394    1.117   .     S
C359   H393    1.111   .     S
C359   C360    1.534   .     S
C359   O422    1.418   .     S
C360   H396    1.110   .     S
C360   H395    1.112   .     S
C360   C689    1.526   .     S
C361   C366    1.428   .     A
C361   C365    1.425   .     A
C362   H397    1.110   .     S
C362   H398    1.111   .     S
C362   H399    1.111   .     S
C363   O424    1.410   .     S
C363   H402    1.114   .     S
C363   H401    1.109   .     S
C363   H400    1.113   .     S
C364   H406    1.110   .     S
C364   O425    1.410   .     S
C364   H404    1.113   .     S
C364   H405    1.113   .     S
C365   C1350   1.413   .     S
C366   C1348   1.416   .     S
C367   C368    1.413   .     A
C367   C1347   1.416   1_554 S
C368   C369    1.402   .     A
C368   O424    1.384   .     S
C369   O417    1.384   .     S
C369   C1346   1.413   1_554 S
H374   C570    1.104   1_455 S
H379   C681    1.113   .     S
H381   C447    1.085   .     S
H385   C574    1.111   1_455 S
H389   C576    1.114   1_455 S
H390   C576    1.112   1_455 S
H392   C668    1.087   .     S
O412   Zn436   1.935   .     S
O412   Zn435   1.926   .     S
O412   Zn433   1.960   .     S
O412   Zn434   1.930   .     S
O413   Zn434   1.916   .     S
O414   Zn436   1.925   .     S
O415   Zn435   1.918   .     S
O416   Zn433   1.912   .     S
O418   C555    1.393   1_455 S
O421   C576    1.412   1_455 S
O423   Zn433   1.926   .     S
O426   Zn436   1.930   .     S
O427   Zn434   1.932   .     S
O428   Zn435   1.940   .     S
O429   Zn436   1.930   .     S
O430   Zn433   1.923   .     S
O431   Zn434   1.941   .     S
O432   Zn435   1.935   .     S
C437   C447    1.439   .     S
C437   O536    1.263   .     A
C437   O538    1.270   .     A
C438   C475    1.430   .     A
C438   C439    1.396   .     A
C438   O534    1.382   .     S
C439   H516    1.085   .     S
C439   C1422   1.393   .     S
C440   O539    1.279   .     A
C440   O537    1.277   .     A
C440   C446    1.460   .     S
C441   C442    1.415   .     A
C441   C443    1.401   .     A
C441   C1420   1.393   1_554 S
C442   C445    1.423   .     A
C442   C476    1.422   .     A
C443   C444    1.391   .     A
C443   H479    1.084   .     S
C444   C456    1.396   .     A
C444   H512    1.080   .     S
C445   O529    1.385   .     S
C445   C456    1.402   .     A
C446   C556    1.345   .     S
C446   O636    1.393   .     S
C448   O531    1.385   .     S
C448   C457    1.406   .     A
C448   C455    1.409   .     A
C449   C452    1.463   .     S
C449   C777    1.337   .     S
C449   O855    1.393   .     S
C450   C451    1.438   .     S
C451   O540    1.271   .     A
C451   O532    1.276   .     A
C452   O541    1.268   .     A
C452   O535    1.271   .     A
C453   O524    1.274   .     A
C453   C456    1.460   .     S
C453   O522    1.270   .     A
C454   C455    1.480   .     S
C454   O525    1.291   .     A
C454   O523    1.287   .     A
C455   C459    1.394   .     A
C457   O530    1.384   .     S
C457   C474    1.421   .     A
C458   H518    1.112   .     S
C458   O526    1.416   .     S
C458   H519    1.116   .     S
C459   C470    1.406   .     A
C459   H517    1.077   .     S
C460   C461    1.528   .     S
C460   H480    1.112   .     S
C460   H520    1.112   .     S
C460   C567    1.529   .     S
C461   H481    1.109   .     S
C461   H482    1.108   .     S
C461   H592    1.104   .     S
C462   H486    1.109   .     S
C462   H485    1.110   .     S
C462   O527    1.415   .     S
C462   H484    1.115   .     S
C463   H487    1.111   .     S
C463   O528    1.418   .     S
C463   C464    1.532   .     S
C464   C465    1.526   .     S
C464   H491    1.111   .     S
C464   H489    1.110   .     S
C465   H493    1.110   .     S
C465   H492    1.111   .     S
C465   H603    1.111   .     S
C466   O529    1.410   .     S
C466   H496    1.113   .     S
C466   H495    1.113   .     S
C466   H497    1.109   .     S
C467   H500    1.109   .     S
C467   H607    1.114   .     S
C467   H608    1.112   .     S
C467   O639    1.412   .     S
C468   H503    1.117   .     S
C468   H502    1.111   .     S
C468   C469    1.534   .     S
C468   O531    1.418   .     S
C469   H505    1.110   .     S
C469   H504    1.112   .     S
C469   C798    1.526   .     S
C470   C475    1.428   .     A
C470   C474    1.425   .     A
C471   H506    1.110   .     S
C471   H507    1.111   .     S
C471   H508    1.111   .     S
C472   O533    1.410   .     S
C472   H511    1.114   .     S
C472   H510    1.109   .     S
C472   H509    1.113   .     S
C473   H515    1.110   .     S
C473   O534    1.410   .     S
C473   H513    1.113   .     S
C473   H514    1.113   .     S
C474   C1459   1.413   .     S
C475   C1457   1.416   .     S
C476   C477    1.413   .     A
C476   C1456   1.416   1_554 S
C477   C478    1.402   .     A
C477   O533    1.384   .     S
C478   O526    1.384   .     S
C478   C1455   1.413   1_554 S
H488   C790    1.113   .     S
H490   C556    1.085   .     S
H501   C777    1.087   .     S
O521   Zn545   1.935   .     S
O521   Zn544   1.926   .     S
O521   Zn542   1.960   .     S
O521   Zn543   1.930   .     S
O522   Zn543   1.916   .     S
O523   Zn545   1.925   .     S
O524   Zn544   1.918   .     S
O525   Zn542   1.912   .     S
O532   Zn542   1.926   .     S
O535   Zn545   1.930   .     S
O536   Zn543   1.932   .     S
O537   Zn544   1.940   .     S
O538   Zn545   1.930   .     S
O539   Zn542   1.923   .     S
O540   Zn543   1.941   .     S
O541   Zn544   1.935   .     S
C546   C556    1.439   .     S
C546   O645    1.263   .     A
C546   O647    1.270   .     A
C547   C584    1.430   .     A
C547   C548    1.396   .     A
C547   O643    1.382   .     S
C548   H625    1.085   .     S
C548   C1531   1.393   .     S
C549   O648    1.279   .     A
C549   O646    1.277   .     A
C549   C555    1.460   .     S
C550   C551    1.415   .     A
C550   C552    1.401   .     A
C550   C1529   1.393   1_554 S
C551   C554    1.423   .     A
C551   C585    1.422   .     A
C552   C553    1.391   .     A
C552   H588    1.084   .     S
C553   C565    1.396   .     A
C553   H621    1.080   .     S
C554   O638    1.385   .     S
C554   C565    1.402   .     A
C555   C338    1.345   1_655 S
C555   O418    1.393   1_655 S
C557   O640    1.385   .     S
C557   C566    1.406   .     A
C557   C564    1.409   .     A
C558   C561    1.463   .     S
C558   C886    1.337   .     S
C558   O964    1.393   .     S
C559   C560    1.438   .     S
C560   O649    1.271   .     A
C560   O641    1.276   .     A
C561   O650    1.268   .     A
C561   O644    1.271   .     A
C562   O633    1.274   .     A
C562   C565    1.460   .     S
C562   O631    1.270   .     A
C563   C564    1.480   .     S
C563   O634    1.291   .     A
C563   O632    1.287   .     A
C564   C568    1.394   .     A
C566   O639    1.384   .     S
C566   C583    1.421   .     A
C567   H627    1.112   .     S
C567   O635    1.416   .     S
C567   H628    1.116   .     S
C568   C579    1.406   .     A
C568   H626    1.077   .     S
C569   C570    1.528   .     S
C569   H589    1.112   .     S
C569   H629    1.112   .     S
C569   C349    1.529   1_655 S
C570   H590    1.109   .     S
C570   H591    1.108   .     S
C570   H374    1.104   1_655 S
C571   H595    1.109   .     S
C571   H594    1.110   .     S
C571   O636    1.415   .     S
C571   H593    1.115   .     S
C572   H596    1.111   .     S
C572   O637    1.418   .     S
C572   C573    1.532   .     S
C573   C574    1.526   .     S
C573   H600    1.111   .     S
C573   H598    1.110   .     S
C574   H602    1.110   .     S
C574   H601    1.111   .     S
C574   H385    1.111   1_655 S
C575   O638    1.410   .     S
C575   H605    1.113   .     S
C575   H604    1.113   .     S
C575   H606    1.109   .     S
C576   H609    1.109   .     S
C576   H389    1.114   1_655 S
C576   H390    1.112   1_655 S
C576   O421    1.412   1_655 S
C577   H612    1.117   .     S
C577   H611    1.111   .     S
C577   C578    1.534   .     S
C577   O640    1.418   .     S
C578   H614    1.110   .     S
C578   H613    1.112   .     S
C578   C907    1.526   .     S
C579   C584    1.428   .     A
C579   C583    1.425   .     A
C580   H615    1.110   .     S
C580   H616    1.111   .     S
C580   H617    1.111   .     S
C581   O642    1.410   .     S
C581   H620    1.114   .     S
C581   H619    1.109   .     S
C581   H618    1.113   .     S
C582   H624    1.110   .     S
C582   O643    1.410   .     S
C582   H622    1.113   .     S
C582   H623    1.113   .     S
C583   C1568   1.413   .     S
C584   C1566   1.416   .     S
C585   C586    1.413   .     A
C585   C1565   1.416   1_554 S
C586   C587    1.402   .     A
C586   O642    1.384   .     S
C587   O635    1.384   .     S
C587   C1564   1.413   1_554 S
H597   C899    1.113   .     S
H599   C338    1.085   1_655 S
H610   C886    1.087   .     S
O630   Zn654   1.935   .     S
O630   Zn653   1.926   .     S
O630   Zn651   1.960   .     S
O630   Zn652   1.930   .     S
O631   Zn652   1.916   .     S
O632   Zn654   1.925   .     S
O633   Zn653   1.918   .     S
O634   Zn651   1.912   .     S
O641   Zn651   1.926   .     S
O644   Zn654   1.930   .     S
O645   Zn652   1.932   .     S
O646   Zn653   1.940   .     S
O647   Zn654   1.930   .     S
O648   Zn651   1.923   .     S
O649   Zn652   1.941   .     S
O650   Zn653   1.935   .     S
C655   C665    1.439   .     S
C655   O754    1.263   .     A
C655   O756    1.270   .     A
C656   C693    1.430   .     A
C656   C657    1.396   .     A
C656   O752    1.382   .     S
C657   H734    1.085   .     S
C657   C1640   1.393   .     S
C658   O757    1.279   .     A
C658   O755    1.277   .     A
C658   C664    1.460   .     S
C659   C660    1.415   .     A
C659   C661    1.401   .     A
C659   C1638   1.393   1_554 S
C660   C663    1.423   .     A
C660   C694    1.422   .     A
C661   C662    1.391   .     A
C661   H697    1.084   .     S
C662   C674    1.396   .     A
C662   H730    1.080   .     S
C663   O747    1.385   .     S
C663   C674    1.402   .     A
C664   C774    1.345   .     S
C664   O854    1.393   .     S
C665   C882    1.345   1_455 S
C665   H926    1.085   1_455 S
C666   O749    1.385   .     S
C666   C675    1.406   .     A
C666   C673    1.409   .     A
C667   C670    1.463   .     S
C667   C14     1.337   1_565 S
C667   O92     1.393   1_565 S
C668   C669    1.438   .     S
C669   O758    1.271   .     A
C669   O750    1.276   .     A
C670   O759    1.268   .     A
C670   O753    1.271   .     A
C671   O742    1.274   .     A
C671   C674    1.460   .     S
C671   O740    1.270   .     A
C672   C673    1.480   .     S
C672   O743    1.291   .     A
C672   O741    1.287   .     A
C673   C677    1.394   .     A
C675   O748    1.384   .     S
C675   C692    1.421   .     A
C676   H736    1.112   .     S
C676   O744    1.416   .     S
C676   H737    1.116   .     S
C676   C896    1.529   1_455 S
C677   C688    1.406   .     A
C677   H735    1.077   .     S
C678   C679    1.528   .     S
C678   H698    1.112   .     S
C678   H738    1.112   .     S
C678   C785    1.529   .     S
C679   H699    1.109   .     S
C679   H700    1.108   .     S
C679   H810    1.104   .     S
C680   H704    1.109   .     S
C680   H703    1.110   .     S
C680   O745    1.415   .     S
C680   H702    1.115   .     S
C681   H705    1.111   .     S
C681   O746    1.418   .     S
C681   C682    1.532   .     S
C682   C683    1.526   .     S
C682   H709    1.111   .     S
C682   H707    1.110   .     S
C683   H711    1.110   .     S
C683   H710    1.111   .     S
C683   H821    1.111   .     S
C684   O747    1.410   .     S
C684   H714    1.113   .     S
C684   H713    1.113   .     S
C684   H715    1.109   .     S
C685   H718    1.109   .     S
C685   H825    1.114   .     S
C685   H826    1.112   .     S
C685   O857    1.412   .     S
C686   H721    1.117   .     S
C686   H720    1.111   .     S
C686   C687    1.534   .     S
C686   O749    1.418   .     S
C687   H723    1.110   .     S
C687   H722    1.112   .     S
C687   C35     1.526   1_565 S
C688   C693    1.428   .     A
C688   C692    1.425   .     A
C689   H724    1.110   .     S
C689   H725    1.111   .     S
C689   H726    1.111   .     S
C690   O751    1.410   .     S
C690   H729    1.114   .     S
C690   H728    1.109   .     S
C690   H727    1.113   .     S
C691   H733    1.110   .     S
C691   O752    1.410   .     S
C691   H731    1.113   .     S
C691   H732    1.113   .     S
C692   C1677   1.413   .     S
C693   C1675   1.416   .     S
C694   C695    1.413   .     A
C694   C1674   1.416   1_554 S
C695   C696    1.402   .     A
C695   O751    1.384   .     S
C696   O744    1.384   .     S
C696   C1673   1.413   1_554 S
H701   C897    1.104   1_455 S
H706   C27     1.113   1_565 S
H708   C774    1.085   .     S
H712   C901    1.111   1_455 S
H716   C903    1.114   1_455 S
H717   C903    1.112   1_455 S
H719   C14     1.087   1_565 S
O739   Zn763   1.935   .     S
O739   Zn762   1.926   .     S
O739   Zn760   1.960   .     S
O739   Zn761   1.930   .     S
O740   Zn761   1.916   .     S
O741   Zn763   1.925   .     S
O742   Zn762   1.918   .     S
O743   Zn760   1.912   .     S
O745   C882    1.393   1_455 S
O748   C903    1.412   1_455 S
O750   Zn760   1.926   .     S
O753   Zn763   1.930   .     S
O754   Zn761   1.932   .     S
O755   Zn762   1.940   .     S
O756   Zn763   1.930   .     S
O757   Zn760   1.923   .     S
O758   Zn761   1.941   .     S
O759   Zn762   1.935   .     S
C764   C774    1.439   .     S
C764   O863    1.263   .     A
C764   O865    1.270   .     A
C765   C802    1.430   .     A
C765   C766    1.396   .     A
C765   O861    1.382   .     S
C766   H843    1.085   .     S
C766   C1749   1.393   .     S
C767   O866    1.279   .     A
C767   O864    1.277   .     A
C767   C773    1.460   .     S
C768   C769    1.415   .     A
C768   C770    1.401   .     A
C768   C1747   1.393   1_554 S
C769   C772    1.423   .     A
C769   C803    1.422   .     A
C770   C771    1.391   .     A
C770   H806    1.084   .     S
C771   C783    1.396   .     A
C771   H839    1.080   .     S
C772   O856    1.385   .     S
C772   C783    1.402   .     A
C773   C883    1.345   .     S
C773   O963    1.393   .     S
C775   O858    1.385   .     S
C775   C784    1.406   .     A
C775   C782    1.409   .     A
C776   C779    1.463   .     S
C776   C123    1.337   1_565 S
C776   O201    1.393   1_565 S
C777   C778    1.438   .     S
C778   O867    1.271   .     A
C778   O859    1.276   .     A
C779   O868    1.268   .     A
C779   O862    1.271   .     A
C780   O851    1.274   .     A
C780   C783    1.460   .     S
C780   O849    1.270   .     A
C781   C782    1.480   .     S
C781   O852    1.291   .     A
C781   O850    1.287   .     A
C782   C786    1.394   .     A
C784   O857    1.384   .     S
C784   C801    1.421   .     A
C785   H845    1.112   .     S
C785   O853    1.416   .     S
C785   H846    1.116   .     S
C786   C797    1.406   .     A
C786   H844    1.077   .     S
C787   C788    1.528   .     S
C787   H807    1.112   .     S
C787   H847    1.112   .     S
C787   C894    1.529   .     S
C788   H808    1.109   .     S
C788   H809    1.108   .     S
C788   H919    1.104   .     S
C789   H813    1.109   .     S
C789   H812    1.110   .     S
C789   O854    1.415   .     S
C789   H811    1.115   .     S
C790   H814    1.111   .     S
C790   O855    1.418   .     S
C790   C791    1.532   .     S
C791   C792    1.526   .     S
C791   H818    1.111   .     S
C791   H816    1.110   .     S
C792   H820    1.110   .     S
C792   H819    1.111   .     S
C792   H930    1.111   .     S
C793   O856    1.410   .     S
C793   H823    1.113   .     S
C793   H822    1.113   .     S
C793   H824    1.109   .     S
C794   H827    1.109   .     S
C794   H934    1.114   .     S
C794   H935    1.112   .     S
C794   O966    1.412   .     S
C795   H830    1.117   .     S
C795   H829    1.111   .     S
C795   C796    1.534   .     S
C795   O858    1.418   .     S
C796   H832    1.110   .     S
C796   H831    1.112   .     S
C796   C144    1.526   1_565 S
C797   C802    1.428   .     A
C797   C801    1.425   .     A
C798   H833    1.110   .     S
C798   H834    1.111   .     S
C798   H835    1.111   .     S
C799   O860    1.410   .     S
C799   H838    1.114   .     S
C799   H837    1.109   .     S
C799   H836    1.113   .     S
C800   H842    1.110   .     S
C800   O861    1.410   .     S
C800   H840    1.113   .     S
C800   H841    1.113   .     S
C801   C1786   1.413   .     S
C802   C1784   1.416   .     S
C803   C804    1.413   .     A
C803   C1783   1.416   1_554 S
C804   C805    1.402   .     A
C804   O860    1.384   .     S
C805   O853    1.384   .     S
C805   C1782   1.413   1_554 S
H815   C136    1.113   1_565 S
H817   C883    1.085   .     S
H828   C123    1.087   1_565 S
O848   Zn872   1.935   .     S
O848   Zn871   1.926   .     S
O848   Zn869   1.960   .     S
O848   Zn870   1.930   .     S
O849   Zn870   1.916   .     S
O850   Zn872   1.925   .     S
O851   Zn871   1.918   .     S
O852   Zn869   1.912   .     S
O859   Zn869   1.926   .     S
O862   Zn872   1.930   .     S
O863   Zn870   1.932   .     S
O864   Zn871   1.940   .     S
O865   Zn872   1.930   .     S
O866   Zn869   1.923   .     S
O867   Zn870   1.941   .     S
O868   Zn871   1.935   .     S
C873   C883    1.439   .     S
C873   O972    1.263   .     A
C873   O974    1.270   .     A
C874   C911    1.430   .     A
C874   C875    1.396   .     A
C874   O970    1.382   .     S
C875   H952    1.085   .     S
C875   C1858   1.393   .     S
C876   O975    1.279   .     A
C876   O973    1.277   .     A
C876   C882    1.460   .     S
C877   C878    1.415   .     A
C877   C879    1.401   .     A
C877   C1856   1.393   1_554 S
C878   C881    1.423   .     A
C878   C912    1.422   .     A
C879   C880    1.391   .     A
C879   H915    1.084   .     S
C880   C892    1.396   .     A
C880   H948    1.080   .     S
C881   O965    1.385   .     S
C881   C892    1.402   .     A
C882   C665    1.345   1_655 S
C882   O745    1.393   1_655 S
C884   O967    1.385   .     S
C884   C893    1.406   .     A
C884   C891    1.409   .     A
C885   C888    1.463   .     S
C885   C232    1.337   1_565 S
C885   O310    1.393   1_565 S
C886   C887    1.438   .     S
C887   O976    1.271   .     A
C887   O968    1.276   .     A
C888   O977    1.268   .     A
C888   O971    1.271   .     A
C889   O960    1.274   .     A
C889   C892    1.460   .     S
C889   O958    1.270   .     A
C890   C891    1.480   .     S
C890   O961    1.291   .     A
C890   O959    1.287   .     A
C891   C895    1.394   .     A
C893   O966    1.384   .     S
C893   C910    1.421   .     A
C894   H954    1.112   .     S
C894   O962    1.416   .     S
C894   H955    1.116   .     S
C895   C906    1.406   .     A
C895   H953    1.077   .     S
C896   C897    1.528   .     S
C896   H916    1.112   .     S
C896   H956    1.112   .     S
C896   C676    1.529   1_655 S
C897   H917    1.109   .     S
C897   H918    1.108   .     S
C897   H701    1.104   1_655 S
C898   H922    1.109   .     S
C898   H921    1.110   .     S
C898   O963    1.415   .     S
C898   H920    1.115   .     S
C899   H923    1.111   .     S
C899   O964    1.418   .     S
C899   C900    1.532   .     S
C900   C901    1.526   .     S
C900   H927    1.111   .     S
C900   H925    1.110   .     S
C901   H929    1.110   .     S
C901   H928    1.111   .     S
C901   H712    1.111   1_655 S
C902   O965    1.410   .     S
C902   H932    1.113   .     S
C902   H931    1.113   .     S
C902   H933    1.109   .     S
C903   H936    1.109   .     S
C903   H716    1.114   1_655 S
C903   H717    1.112   1_655 S
C903   O748    1.412   1_655 S
C904   H939    1.117   .     S
C904   H938    1.111   .     S
C904   C905    1.534   .     S
C904   O967    1.418   .     S
C905   H941    1.110   .     S
C905   H940    1.112   .     S
C905   C253    1.526   1_565 S
C906   C911    1.428   .     A
C906   C910    1.425   .     A
C907   H942    1.110   .     S
C907   H943    1.111   .     S
C907   H944    1.111   .     S
C908   O969    1.410   .     S
C908   H947    1.114   .     S
C908   H946    1.109   .     S
C908   H945    1.113   .     S
C909   H951    1.110   .     S
C909   O970    1.410   .     S
C909   H949    1.113   .     S
C909   H950    1.113   .     S
C910   C1895   1.413   .     S
C911   C1893   1.416   .     S
C912   C913    1.413   .     A
C912   C1892   1.416   1_554 S
C913   C914    1.402   .     A
C913   O969    1.384   .     S
C914   O962    1.384   .     S
C914   C1891   1.413   1_554 S
H924   C245    1.113   1_565 S
H926   C665    1.085   1_655 S
H937   C232    1.087   1_565 S
O957   Zn981   1.935   .     S
O957   Zn980   1.926   .     S
O957   Zn978   1.960   .     S
O957   Zn979   1.930   .     S
O958   Zn979   1.916   .     S
O959   Zn981   1.925   .     S
O960   Zn980   1.918   .     S
O961   Zn978   1.912   .     S
O968   Zn978   1.926   .     S
O971   Zn981   1.930   .     S
O972   Zn979   1.932   .     S
O973   Zn980   1.940   .     S
O974   Zn981   1.930   .     S
O975   Zn978   1.923   .     S
O976   Zn979   1.941   .     S
O977   Zn980   1.935   .     S
C982   C992    1.439   .     S
C982   O1081   1.263   .     A
C982   O1083   1.270   .     A
C983   C1020   1.430   .     A
C983   C984    1.396   .     A
C983   O1079   1.382   .     S
C984   H1061   1.085   .     S
C984   C5      1.393   1_556 S
C985   O1084   1.279   .     A
C985   O1082   1.277   .     A
C985   C991    1.460   .     S
C986   C987    1.415   .     A
C986   C988    1.401   .     A
C987   C990    1.423   .     A
C987   C1021   1.422   .     A
C988   C989    1.391   .     A
C988   H1024   1.084   .     S
C989   C1001   1.396   .     A
C989   H1057   1.080   .     S
C990   O1074   1.385   .     S
C990   C1001   1.402   .     A
C991   C1101   1.345   .     S
C991   O1181   1.393   .     S
C992   C1209   1.345   1_455 S
C992   H1253   1.085   1_455 S
C993   O1076   1.385   .     S
C993   C1002   1.406   .     A
C993   C1000   1.409   .     A
C994   C997    1.463   .     S
C994   C1322   1.337   .     S
C994   O1400   1.393   .     S
C995   C996    1.438   .     S
C995   C1648   1.337   1_545 S
C995   H1700   1.087   1_545 S
C996   O1085   1.271   .     A
C996   O1077   1.276   .     A
C997   O1086   1.268   .     A
C997   O1080   1.271   .     A
C998   O1069   1.274   .     A
C998   C1001   1.460   .     S
C998   O1067   1.270   .     A
C999   C1000   1.480   .     S
C999   O1070   1.291   .     A
C999   O1068   1.287   .     A
C1000  C1004   1.394   .     A
C1002  O1075   1.384   .     S
C1002  C1019   1.421   .     A
C1003  H1063   1.112   .     S
C1003  O1071   1.416   .     S
C1003  H1064   1.116   .     S
C1003  C1223   1.529   1_455 S
C1004  C1015   1.406   .     A
C1004  H1062   1.077   .     S
C1005  C1006   1.528   .     S
C1005  H1025   1.112   .     S
C1005  H1065   1.112   .     S
C1005  C1112   1.529   .     S
C1006  H1026   1.109   .     S
C1006  H1027   1.108   .     S
C1006  H1137   1.104   .     S
C1007  H1031   1.109   .     S
C1007  H1030   1.110   .     S
C1007  O1072   1.415   .     S
C1007  H1029   1.115   .     S
C1008  H1032   1.111   .     S
C1008  O1073   1.418   .     S
C1008  C1009   1.532   .     S
C1008  H1687   1.113   1_545 S
C1009  C1010   1.526   .     S
C1009  H1036   1.111   .     S
C1009  H1034   1.110   .     S
C1010  H1038   1.110   .     S
C1010  H1037   1.111   .     S
C1010  H1148   1.111   .     S
C1011  O1074   1.410   .     S
C1011  H1041   1.113   .     S
C1011  H1040   1.113   .     S
C1011  H1042   1.109   .     S
C1012  H1045   1.109   .     S
C1012  H1152   1.114   .     S
C1012  H1153   1.112   .     S
C1012  O1184   1.412   .     S
C1013  H1048   1.117   .     S
C1013  H1047   1.111   .     S
C1013  C1014   1.534   .     S
C1013  O1076   1.418   .     S
C1014  H1050   1.110   .     S
C1014  H1049   1.112   .     S
C1014  C1343   1.526   .     S
C1015  C1020   1.428   .     A
C1015  C1019   1.425   .     A
C1016  H1051   1.110   .     S
C1016  H1052   1.111   .     S
C1016  H1053   1.111   .     S
C1016  C1668   1.526   1_545 S
C1017  O1078   1.410   .     S
C1017  H1056   1.114   .     S
C1017  H1055   1.109   .     S
C1017  H1054   1.113   .     S
C1018  H1060   1.110   .     S
C1018  O1079   1.410   .     S
C1018  H1058   1.113   .     S
C1018  H1059   1.113   .     S
C1019  C42     1.413   1_556 S
C1020  C40     1.416   1_556 S
C1021  C1022   1.413   .     A
C1022  C1023   1.402   .     A
C1022  O1078   1.384   .     S
C1023  O1071   1.384   .     S
H1028  C1224   1.104   1_455 S
H1033  C1335   1.113   .     S
H1035  C1101   1.085   .     S
H1039  C1228   1.111   1_455 S
H1043  C1230   1.114   1_455 S
H1044  C1230   1.112   1_455 S
H1046  C1322   1.087   .     S
O1066  Zn1090  1.935   .     S
O1066  Zn1089  1.926   .     S
O1066  Zn1087  1.960   .     S
O1066  Zn1088  1.930   .     S
O1067  Zn1088  1.916   .     S
O1068  Zn1090  1.925   .     S
O1069  Zn1089  1.918   .     S
O1070  Zn1087  1.912   .     S
O1072  C1209   1.393   1_455 S
O1073  C1648   1.393   1_545 S
O1075  C1230   1.412   1_455 S
O1077  Zn1087  1.926   .     S
O1080  Zn1090  1.930   .     S
O1081  Zn1088  1.932   .     S
O1082  Zn1089  1.940   .     S
O1083  Zn1090  1.930   .     S
O1084  Zn1087  1.923   .     S
O1085  Zn1088  1.941   .     S
O1086  Zn1089  1.935   .     S
C1091  C1101   1.439   .     S
C1091  O1190   1.263   .     A
C1091  O1192   1.270   .     A
C1092  C1129   1.430   .     A
C1092  C1093   1.396   .     A
C1092  O1188   1.382   .     S
C1093  H1170   1.085   .     S
C1093  C114    1.393   1_556 S
C1094  O1193   1.279   .     A
C1094  O1191   1.277   .     A
C1094  C1100   1.460   .     S
C1095  C1096   1.415   .     A
C1095  C1097   1.401   .     A
C1096  C1099   1.423   .     A
C1096  C1130   1.422   .     A
C1097  C1098   1.391   .     A
C1097  H1133   1.084   .     S
C1098  C1110   1.396   .     A
C1098  H1166   1.080   .     S
C1099  O1183   1.385   .     S
C1099  C1110   1.402   .     A
C1100  C1210   1.345   .     S
C1100  O1290   1.393   .     S
C1102  O1185   1.385   .     S
C1102  C1111   1.406   .     A
C1102  C1109   1.409   .     A
C1103  C1106   1.463   .     S
C1103  C1431   1.337   .     S
C1103  O1509   1.393   .     S
C1104  C1105   1.438   .     S
C1104  C1757   1.337   1_545 S
C1104  H1809   1.087   1_545 S
C1105  O1194   1.271   .     A
C1105  O1186   1.276   .     A
C1106  O1195   1.268   .     A
C1106  O1189   1.271   .     A
C1107  O1178   1.274   .     A
C1107  C1110   1.460   .     S
C1107  O1176   1.270   .     A
C1108  C1109   1.480   .     S
C1108  O1179   1.291   .     A
C1108  O1177   1.287   .     A
C1109  C1113   1.394   .     A
C1111  O1184   1.384   .     S
C1111  C1128   1.421   .     A
C1112  H1172   1.112   .     S
C1112  O1180   1.416   .     S
C1112  H1173   1.116   .     S
C1113  C1124   1.406   .     A
C1113  H1171   1.077   .     S
C1114  C1115   1.528   .     S
C1114  H1134   1.112   .     S
C1114  H1174   1.112   .     S
C1114  C1221   1.529   .     S
C1115  H1135   1.109   .     S
C1115  H1136   1.108   .     S
C1115  H1246   1.104   .     S
C1116  H1140   1.109   .     S
C1116  H1139   1.110   .     S
C1116  O1181   1.415   .     S
C1116  H1138   1.115   .     S
C1117  H1141   1.111   .     S
C1117  O1182   1.418   .     S
C1117  C1118   1.532   .     S
C1117  H1796   1.113   1_545 S
C1118  C1119   1.526   .     S
C1118  H1145   1.111   .     S
C1118  H1143   1.110   .     S
C1119  H1147   1.110   .     S
C1119  H1146   1.111   .     S
C1119  H1257   1.111   .     S
C1120  O1183   1.410   .     S
C1120  H1150   1.113   .     S
C1120  H1149   1.113   .     S
C1120  H1151   1.109   .     S
C1121  H1154   1.109   .     S
C1121  H1261   1.114   .     S
C1121  H1262   1.112   .     S
C1121  O1293   1.412   .     S
C1122  H1157   1.117   .     S
C1122  H1156   1.111   .     S
C1122  C1123   1.534   .     S
C1122  O1185   1.418   .     S
C1123  H1159   1.110   .     S
C1123  H1158   1.112   .     S
C1123  C1452   1.526   .     S
C1124  C1129   1.428   .     A
C1124  C1128   1.425   .     A
C1125  H1160   1.110   .     S
C1125  H1161   1.111   .     S
C1125  H1162   1.111   .     S
C1125  C1777   1.526   1_545 S
C1126  O1187   1.410   .     S
C1126  H1165   1.114   .     S
C1126  H1164   1.109   .     S
C1126  H1163   1.113   .     S
C1127  H1169   1.110   .     S
C1127  O1188   1.410   .     S
C1127  H1167   1.113   .     S
C1127  H1168   1.113   .     S
C1128  C151    1.413   1_556 S
C1129  C149    1.416   1_556 S
C1130  C1131   1.413   .     A
C1131  C1132   1.402   .     A
C1131  O1187   1.384   .     S
C1132  O1180   1.384   .     S
H1142  C1444   1.113   .     S
H1144  C1210   1.085   .     S
H1155  C1431   1.087   .     S
O1175  Zn1199  1.935   .     S
O1175  Zn1198  1.926   .     S
O1175  Zn1196  1.960   .     S
O1175  Zn1197  1.930   .     S
O1176  Zn1197  1.916   .     S
O1177  Zn1199  1.925   .     S
O1178  Zn1198  1.918   .     S
O1179  Zn1196  1.912   .     S
O1182  C1757   1.393   1_545 S
O1186  Zn1196  1.926   .     S
O1189  Zn1199  1.930   .     S
O1190  Zn1197  1.932   .     S
O1191  Zn1198  1.940   .     S
O1192  Zn1199  1.930   .     S
O1193  Zn1196  1.923   .     S
O1194  Zn1197  1.941   .     S
O1195  Zn1198  1.935   .     S
C1200  C1210   1.439   .     S
C1200  O1299   1.263   .     A
C1200  O1301   1.270   .     A
C1201  C1238   1.430   .     A
C1201  C1202   1.396   .     A
C1201  O1297   1.382   .     S
C1202  H1279   1.085   .     S
C1202  C223    1.393   1_556 S
C1203  O1302   1.279   .     A
C1203  O1300   1.277   .     A
C1203  C1209   1.460   .     S
C1204  C1205   1.415   .     A
C1204  C1206   1.401   .     A
C1205  C1208   1.423   .     A
C1205  C1239   1.422   .     A
C1206  C1207   1.391   .     A
C1206  H1242   1.084   .     S
C1207  C1219   1.396   .     A
C1207  H1275   1.080   .     S
C1208  O1292   1.385   .     S
C1208  C1219   1.402   .     A
C1209  C992    1.345   1_655 S
C1209  O1072   1.393   1_655 S
C1211  O1294   1.385   .     S
C1211  C1220   1.406   .     A
C1211  C1218   1.409   .     A
C1212  C1215   1.463   .     S
C1212  C1540   1.337   .     S
C1212  O1618   1.393   .     S
C1213  C1214   1.438   .     S
C1213  C1866   1.337   1_545 S
C1213  H1918   1.087   1_545 S
C1214  O1303   1.271   .     A
C1214  O1295   1.276   .     A
C1215  O1304   1.268   .     A
C1215  O1298   1.271   .     A
C1216  O1287   1.274   .     A
C1216  C1219   1.460   .     S
C1216  O1285   1.270   .     A
C1217  C1218   1.480   .     S
C1217  O1288   1.291   .     A
C1217  O1286   1.287   .     A
C1218  C1222   1.394   .     A
C1220  O1293   1.384   .     S
C1220  C1237   1.421   .     A
C1221  H1281   1.112   .     S
C1221  O1289   1.416   .     S
C1221  H1282   1.116   .     S
C1222  C1233   1.406   .     A
C1222  H1280   1.077   .     S
C1223  C1224   1.528   .     S
C1223  H1243   1.112   .     S
C1223  H1283   1.112   .     S
C1223  C1003   1.529   1_655 S
C1224  H1244   1.109   .     S
C1224  H1245   1.108   .     S
C1224  H1028   1.104   1_655 S
C1225  H1249   1.109   .     S
C1225  H1248   1.110   .     S
C1225  O1290   1.415   .     S
C1225  H1247   1.115   .     S
C1226  H1250   1.111   .     S
C1226  O1291   1.418   .     S
C1226  C1227   1.532   .     S
C1226  H1905   1.113   1_545 S
C1227  C1228   1.526   .     S
C1227  H1254   1.111   .     S
C1227  H1252   1.110   .     S
C1228  H1256   1.110   .     S
C1228  H1255   1.111   .     S
C1228  H1039   1.111   1_655 S
C1229  O1292   1.410   .     S
C1229  H1259   1.113   .     S
C1229  H1258   1.113   .     S
C1229  H1260   1.109   .     S
C1230  H1263   1.109   .     S
C1230  H1043   1.114   1_655 S
C1230  H1044   1.112   1_655 S
C1230  O1075   1.412   1_655 S
C1231  H1266   1.117   .     S
C1231  H1265   1.111   .     S
C1231  C1232   1.534   .     S
C1231  O1294   1.418   .     S
C1232  H1268   1.110   .     S
C1232  H1267   1.112   .     S
C1232  C1561   1.526   .     S
C1233  C1238   1.428   .     A
C1233  C1237   1.425   .     A
C1234  H1269   1.110   .     S
C1234  H1270   1.111   .     S
C1234  H1271   1.111   .     S
C1234  C1886   1.526   1_545 S
C1235  O1296   1.410   .     S
C1235  H1274   1.114   .     S
C1235  H1273   1.109   .     S
C1235  H1272   1.113   .     S
C1236  H1278   1.110   .     S
C1236  O1297   1.410   .     S
C1236  H1276   1.113   .     S
C1236  H1277   1.113   .     S
C1237  C260    1.413   1_556 S
C1238  C258    1.416   1_556 S
C1239  C1240   1.413   .     A
C1240  C1241   1.402   .     A
C1240  O1296   1.384   .     S
C1241  O1289   1.384   .     S
H1251  C1553   1.113   .     S
H1253  C992    1.085   1_655 S
H1264  C1540   1.087   .     S
O1284  Zn1308  1.935   .     S
O1284  Zn1307  1.926   .     S
O1284  Zn1305  1.960   .     S
O1284  Zn1306  1.930   .     S
O1285  Zn1306  1.916   .     S
O1286  Zn1308  1.925   .     S
O1287  Zn1307  1.918   .     S
O1288  Zn1305  1.912   .     S
O1291  C1866   1.393   1_545 S
O1295  Zn1305  1.926   .     S
O1298  Zn1308  1.930   .     S
O1299  Zn1306  1.932   .     S
O1300  Zn1307  1.940   .     S
O1301  Zn1308  1.930   .     S
O1302  Zn1305  1.923   .     S
O1303  Zn1306  1.941   .     S
O1304  Zn1307  1.935   .     S
C1309  C1319   1.439   .     S
C1309  O1408   1.263   .     A
C1309  O1410   1.270   .     A
C1310  C1347   1.430   .     A
C1310  C1311   1.396   .     A
C1310  O1406   1.382   .     S
C1311  H1388   1.085   .     S
C1311  C332    1.393   1_556 S
C1312  O1411   1.279   .     A
C1312  O1409   1.277   .     A
C1312  C1318   1.460   .     S
C1313  C1314   1.415   .     A
C1313  C1315   1.401   .     A
C1314  C1317   1.423   .     A
C1314  C1348   1.422   .     A
C1315  C1316   1.391   .     A
C1315  H1351   1.084   .     S
C1316  C1328   1.396   .     A
C1316  H1384   1.080   .     S
C1317  O1401   1.385   .     S
C1317  C1328   1.402   .     A
C1318  C1428   1.345   .     S
C1318  O1508   1.393   .     S
C1319  C1536   1.345   1_455 S
C1319  H1580   1.085   1_455 S
C1320  O1403   1.385   .     S
C1320  C1329   1.406   .     A
C1320  C1327   1.409   .     A
C1321  C1324   1.463   .     S
C1321  C1649   1.337   .     S
C1321  O1727   1.393   .     S
C1322  C1323   1.438   .     S
C1323  O1412   1.271   .     A
C1323  O1404   1.276   .     A
C1324  O1413   1.268   .     A
C1324  O1407   1.271   .     A
C1325  O1396   1.274   .     A
C1325  C1328   1.460   .     S
C1325  O1394   1.270   .     A
C1326  C1327   1.480   .     S
C1326  O1397   1.291   .     A
C1326  O1395   1.287   .     A
C1327  C1331   1.394   .     A
C1329  O1402   1.384   .     S
C1329  C1346   1.421   .     A
C1330  H1390   1.112   .     S
C1330  O1398   1.416   .     S
C1330  H1391   1.116   .     S
C1330  C1550   1.529   1_455 S
C1331  C1342   1.406   .     A
C1331  H1389   1.077   .     S
C1332  C1333   1.528   .     S
C1332  H1352   1.112   .     S
C1332  H1392   1.112   .     S
C1332  C1439   1.529   .     S
C1333  H1353   1.109   .     S
C1333  H1354   1.108   .     S
C1333  H1464   1.104   .     S
C1334  H1358   1.109   .     S
C1334  H1357   1.110   .     S
C1334  O1399   1.415   .     S
C1334  H1356   1.115   .     S
C1335  H1359   1.111   .     S
C1335  O1400   1.418   .     S
C1335  C1336   1.532   .     S
C1336  C1337   1.526   .     S
C1336  H1363   1.111   .     S
C1336  H1361   1.110   .     S
C1337  H1365   1.110   .     S
C1337  H1364   1.111   .     S
C1337  H1475   1.111   .     S
C1338  O1401   1.410   .     S
C1338  H1368   1.113   .     S
C1338  H1367   1.113   .     S
C1338  H1369   1.109   .     S
C1339  H1372   1.109   .     S
C1339  H1479   1.114   .     S
C1339  H1480   1.112   .     S
C1339  O1511   1.412   .     S
C1340  H1375   1.117   .     S
C1340  H1374   1.111   .     S
C1340  C1341   1.534   .     S
C1340  O1403   1.418   .     S
C1341  H1377   1.110   .     S
C1341  H1376   1.112   .     S
C1341  C1670   1.526   .     S
C1342  C1347   1.428   .     A
C1342  C1346   1.425   .     A
C1343  H1378   1.110   .     S
C1343  H1379   1.111   .     S
C1343  H1380   1.111   .     S
C1344  O1405   1.410   .     S
C1344  H1383   1.114   .     S
C1344  H1382   1.109   .     S
C1344  H1381   1.113   .     S
C1345  H1387   1.110   .     S
C1345  O1406   1.410   .     S
C1345  H1385   1.113   .     S
C1345  H1386   1.113   .     S
C1346  C369    1.413   1_556 S
C1347  C367    1.416   1_556 S
C1348  C1349   1.413   .     A
C1349  C1350   1.402   .     A
C1349  O1405   1.384   .     S
C1350  O1398   1.384   .     S
H1355  C1551   1.104   1_455 S
H1360  C1662   1.113   .     S
H1362  C1428   1.085   .     S
H1366  C1555   1.111   1_455 S
H1370  C1557   1.114   1_455 S
H1371  C1557   1.112   1_455 S
H1373  C1649   1.087   .     S
O1393  Zn1417  1.935   .     S
O1393  Zn1416  1.926   .     S
O1393  Zn1414  1.960   .     S
O1393  Zn1415  1.930   .     S
O1394  Zn1415  1.916   .     S
O1395  Zn1417  1.925   .     S
O1396  Zn1416  1.918   .     S
O1397  Zn1414  1.912   .     S
O1399  C1536   1.393   1_455 S
O1402  C1557   1.412   1_455 S
O1404  Zn1414  1.926   .     S
O1407  Zn1417  1.930   .     S
O1408  Zn1415  1.932   .     S
O1409  Zn1416  1.940   .     S
O1410  Zn1417  1.930   .     S
O1411  Zn1414  1.923   .     S
O1412  Zn1415  1.941   .     S
O1413  Zn1416  1.935   .     S
C1418  C1428   1.439   .     S
C1418  O1517   1.263   .     A
C1418  O1519   1.270   .     A
C1419  C1456   1.430   .     A
C1419  C1420   1.396   .     A
C1419  O1515   1.382   .     S
C1420  H1497   1.085   .     S
C1420  C441    1.393   1_556 S
C1421  O1520   1.279   .     A
C1421  O1518   1.277   .     A
C1421  C1427   1.460   .     S
C1422  C1423   1.415   .     A
C1422  C1424   1.401   .     A
C1423  C1426   1.423   .     A
C1423  C1457   1.422   .     A
C1424  C1425   1.391   .     A
C1424  H1460   1.084   .     S
C1425  C1437   1.396   .     A
C1425  H1493   1.080   .     S
C1426  O1510   1.385   .     S
C1426  C1437   1.402   .     A
C1427  C1537   1.345   .     S
C1427  O1617   1.393   .     S
C1429  O1512   1.385   .     S
C1429  C1438   1.406   .     A
C1429  C1436   1.409   .     A
C1430  C1433   1.463   .     S
C1430  C1758   1.337   .     S
C1430  O1836   1.393   .     S
C1431  C1432   1.438   .     S
C1432  O1521   1.271   .     A
C1432  O1513   1.276   .     A
C1433  O1522   1.268   .     A
C1433  O1516   1.271   .     A
C1434  O1505   1.274   .     A
C1434  C1437   1.460   .     S
C1434  O1503   1.270   .     A
C1435  C1436   1.480   .     S
C1435  O1506   1.291   .     A
C1435  O1504   1.287   .     A
C1436  C1440   1.394   .     A
C1438  O1511   1.384   .     S
C1438  C1455   1.421   .     A
C1439  H1499   1.112   .     S
C1439  O1507   1.416   .     S
C1439  H1500   1.116   .     S
C1440  C1451   1.406   .     A
C1440  H1498   1.077   .     S
C1441  C1442   1.528   .     S
C1441  H1461   1.112   .     S
C1441  H1501   1.112   .     S
C1441  C1548   1.529   .     S
C1442  H1462   1.109   .     S
C1442  H1463   1.108   .     S
C1442  H1573   1.104   .     S
C1443  H1467   1.109   .     S
C1443  H1466   1.110   .     S
C1443  O1508   1.415   .     S
C1443  H1465   1.115   .     S
C1444  H1468   1.111   .     S
C1444  O1509   1.418   .     S
C1444  C1445   1.532   .     S
C1445  C1446   1.526   .     S
C1445  H1472   1.111   .     S
C1445  H1470   1.110   .     S
C1446  H1474   1.110   .     S
C1446  H1473   1.111   .     S
C1446  H1584   1.111   .     S
C1447  O1510   1.410   .     S
C1447  H1477   1.113   .     S
C1447  H1476   1.113   .     S
C1447  H1478   1.109   .     S
C1448  H1481   1.109   .     S
C1448  H1588   1.114   .     S
C1448  H1589   1.112   .     S
C1448  O1620   1.412   .     S
C1449  H1484   1.117   .     S
C1449  H1483   1.111   .     S
C1449  C1450   1.534   .     S
C1449  O1512   1.418   .     S
C1450  H1486   1.110   .     S
C1450  H1485   1.112   .     S
C1450  C1779   1.526   .     S
C1451  C1456   1.428   .     A
C1451  C1455   1.425   .     A
C1452  H1487   1.110   .     S
C1452  H1488   1.111   .     S
C1452  H1489   1.111   .     S
C1453  O1514   1.410   .     S
C1453  H1492   1.114   .     S
C1453  H1491   1.109   .     S
C1453  H1490   1.113   .     S
C1454  H1496   1.110   .     S
C1454  O1515   1.410   .     S
C1454  H1494   1.113   .     S
C1454  H1495   1.113   .     S
C1455  C478    1.413   1_556 S
C1456  C476    1.416   1_556 S
C1457  C1458   1.413   .     A
C1458  C1459   1.402   .     A
C1458  O1514   1.384   .     S
C1459  O1507   1.384   .     S
H1469  C1771   1.113   .     S
H1471  C1537   1.085   .     S
H1482  C1758   1.087   .     S
O1502  Zn1526  1.935   .     S
O1502  Zn1525  1.926   .     S
O1502  Zn1523  1.960   .     S
O1502  Zn1524  1.930   .     S
O1503  Zn1524  1.916   .     S
O1504  Zn1526  1.925   .     S
O1505  Zn1525  1.918   .     S
O1506  Zn1523  1.912   .     S
O1513  Zn1523  1.926   .     S
O1516  Zn1526  1.930   .     S
O1517  Zn1524  1.932   .     S
O1518  Zn1525  1.940   .     S
O1519  Zn1526  1.930   .     S
O1520  Zn1523  1.923   .     S
O1521  Zn1524  1.941   .     S
O1522  Zn1525  1.935   .     S
C1527  C1537   1.439   .     S
C1527  O1626   1.263   .     A
C1527  O1628   1.270   .     A
C1528  C1565   1.430   .     A
C1528  C1529   1.396   .     A
C1528  O1624   1.382   .     S
C1529  H1606   1.085   .     S
C1529  C550    1.393   1_556 S
C1530  O1629   1.279   .     A
C1530  O1627   1.277   .     A
C1530  C1536   1.460   .     S
C1531  C1532   1.415   .     A
C1531  C1533   1.401   .     A
C1532  C1535   1.423   .     A
C1532  C1566   1.422   .     A
C1533  C1534   1.391   .     A
C1533  H1569   1.084   .     S
C1534  C1546   1.396   .     A
C1534  H1602   1.080   .     S
C1535  O1619   1.385   .     S
C1535  C1546   1.402   .     A
C1536  C1319   1.345   1_655 S
C1536  O1399   1.393   1_655 S
C1538  O1621   1.385   .     S
C1538  C1547   1.406   .     A
C1538  C1545   1.409   .     A
C1539  C1542   1.463   .     S
C1539  C1867   1.337   .     S
C1539  O1945   1.393   .     S
C1540  C1541   1.438   .     S
C1541  O1630   1.271   .     A
C1541  O1622   1.276   .     A
C1542  O1631   1.268   .     A
C1542  O1625   1.271   .     A
C1543  O1614   1.274   .     A
C1543  C1546   1.460   .     S
C1543  O1612   1.270   .     A
C1544  C1545   1.480   .     S
C1544  O1615   1.291   .     A
C1544  O1613   1.287   .     A
C1545  C1549   1.394   .     A
C1547  O1620   1.384   .     S
C1547  C1564   1.421   .     A
C1548  H1608   1.112   .     S
C1548  O1616   1.416   .     S
C1548  H1609   1.116   .     S
C1549  C1560   1.406   .     A
C1549  H1607   1.077   .     S
C1550  C1551   1.528   .     S
C1550  H1570   1.112   .     S
C1550  H1610   1.112   .     S
C1550  C1330   1.529   1_655 S
C1551  H1571   1.109   .     S
C1551  H1572   1.108   .     S
C1551  H1355   1.104   1_655 S
C1552  H1576   1.109   .     S
C1552  H1575   1.110   .     S
C1552  O1617   1.415   .     S
C1552  H1574   1.115   .     S
C1553  H1577   1.111   .     S
C1553  O1618   1.418   .     S
C1553  C1554   1.532   .     S
C1554  C1555   1.526   .     S
C1554  H1581   1.111   .     S
C1554  H1579   1.110   .     S
C1555  H1583   1.110   .     S
C1555  H1582   1.111   .     S
C1555  H1366   1.111   1_655 S
C1556  O1619   1.410   .     S
C1556  H1586   1.113   .     S
C1556  H1585   1.113   .     S
C1556  H1587   1.109   .     S
C1557  H1590   1.109   .     S
C1557  H1370   1.114   1_655 S
C1557  H1371   1.112   1_655 S
C1557  O1402   1.412   1_655 S
C1558  H1593   1.117   .     S
C1558  H1592   1.111   .     S
C1558  C1559   1.534   .     S
C1558  O1621   1.418   .     S
C1559  H1595   1.110   .     S
C1559  H1594   1.112   .     S
C1559  C1888   1.526   .     S
C1560  C1565   1.428   .     A
C1560  C1564   1.425   .     A
C1561  H1596   1.110   .     S
C1561  H1597   1.111   .     S
C1561  H1598   1.111   .     S
C1562  O1623   1.410   .     S
C1562  H1601   1.114   .     S
C1562  H1600   1.109   .     S
C1562  H1599   1.113   .     S
C1563  H1605   1.110   .     S
C1563  O1624   1.410   .     S
C1563  H1603   1.113   .     S
C1563  H1604   1.113   .     S
C1564  C587    1.413   1_556 S
C1565  C585    1.416   1_556 S
C1566  C1567   1.413   .     A
C1567  C1568   1.402   .     A
C1567  O1623   1.384   .     S
C1568  O1616   1.384   .     S
H1578  C1880   1.113   .     S
H1580  C1319   1.085   1_655 S
H1591  C1867   1.087   .     S
O1611  Zn1635  1.935   .     S
O1611  Zn1634  1.926   .     S
O1611  Zn1632  1.960   .     S
O1611  Zn1633  1.930   .     S
O1612  Zn1633  1.916   .     S
O1613  Zn1635  1.925   .     S
O1614  Zn1634  1.918   .     S
O1615  Zn1632  1.912   .     S
O1622  Zn1632  1.926   .     S
O1625  Zn1635  1.930   .     S
O1626  Zn1633  1.932   .     S
O1627  Zn1634  1.940   .     S
O1628  Zn1635  1.930   .     S
O1629  Zn1632  1.923   .     S
O1630  Zn1633  1.941   .     S
O1631  Zn1634  1.935   .     S
C1636  C1646   1.439   .     S
C1636  O1735   1.263   .     A
C1636  O1737   1.270   .     A
C1637  C1674   1.430   .     A
C1637  C1638   1.396   .     A
C1637  O1733   1.382   .     S
C1638  H1715   1.085   .     S
C1638  C659    1.393   1_556 S
C1639  O1738   1.279   .     A
C1639  O1736   1.277   .     A
C1639  C1645   1.460   .     S
C1640  C1641   1.415   .     A
C1640  C1642   1.401   .     A
C1641  C1644   1.423   .     A
C1641  C1675   1.422   .     A
C1642  C1643   1.391   .     A
C1642  H1678   1.084   .     S
C1643  C1655   1.396   .     A
C1643  H1711   1.080   .     S
C1644  O1728   1.385   .     S
C1644  C1655   1.402   .     A
C1645  C1755   1.345   .     S
C1645  O1835   1.393   .     S
C1646  C1863   1.345   1_455 S
C1646  H1907   1.085   1_455 S
C1647  O1730   1.385   .     S
C1647  C1656   1.406   .     A
C1647  C1654   1.409   .     A
C1648  C1651   1.463   .     S
C1648  C995    1.337   1_565 S
C1648  O1073   1.393   1_565 S
C1649  C1650   1.438   .     S
C1650  O1739   1.271   .     A
C1650  O1731   1.276   .     A
C1651  O1740   1.268   .     A
C1651  O1734   1.271   .     A
C1652  O1723   1.274   .     A
C1652  C1655   1.460   .     S
C1652  O1721   1.270   .     A
C1653  C1654   1.480   .     S
C1653  O1724   1.291   .     A
C1653  O1722   1.287   .     A
C1654  C1658   1.394   .     A
C1656  O1729   1.384   .     S
C1656  C1673   1.421   .     A
C1657  H1717   1.112   .     S
C1657  O1725   1.416   .     S
C1657  H1718   1.116   .     S
C1657  C1877   1.529   1_455 S
C1658  C1669   1.406   .     A
C1658  H1716   1.077   .     S
C1659  C1660   1.528   .     S
C1659  H1679   1.112   .     S
C1659  H1719   1.112   .     S
C1659  C1766   1.529   .     S
C1660  H1680   1.109   .     S
C1660  H1681   1.108   .     S
C1660  H1791   1.104   .     S
C1661  H1685   1.109   .     S
C1661  H1684   1.110   .     S
C1661  O1726   1.415   .     S
C1661  H1683   1.115   .     S
C1662  H1686   1.111   .     S
C1662  O1727   1.418   .     S
C1662  C1663   1.532   .     S
C1663  C1664   1.526   .     S
C1663  H1690   1.111   .     S
C1663  H1688   1.110   .     S
C1664  H1692   1.110   .     S
C1664  H1691   1.111   .     S
C1664  H1802   1.111   .     S
C1665  O1728   1.410   .     S
C1665  H1695   1.113   .     S
C1665  H1694   1.113   .     S
C1665  H1696   1.109   .     S
C1666  H1699   1.109   .     S
C1666  H1806   1.114   .     S
C1666  H1807   1.112   .     S
C1666  O1838   1.412   .     S
C1667  H1702   1.117   .     S
C1667  H1701   1.111   .     S
C1667  C1668   1.534   .     S
C1667  O1730   1.418   .     S
C1668  H1704   1.110   .     S
C1668  H1703   1.112   .     S
C1668  C1016   1.526   1_565 S
C1669  C1674   1.428   .     A
C1669  C1673   1.425   .     A
C1670  H1705   1.110   .     S
C1670  H1706   1.111   .     S
C1670  H1707   1.111   .     S
C1671  O1732   1.410   .     S
C1671  H1710   1.114   .     S
C1671  H1709   1.109   .     S
C1671  H1708   1.113   .     S
C1672  H1714   1.110   .     S
C1672  O1733   1.410   .     S
C1672  H1712   1.113   .     S
C1672  H1713   1.113   .     S
C1673  C696    1.413   1_556 S
C1674  C694    1.416   1_556 S
C1675  C1676   1.413   .     A
C1676  C1677   1.402   .     A
C1676  O1732   1.384   .     S
C1677  O1725   1.384   .     S
H1682  C1878   1.104   1_455 S
H1687  C1008   1.113   1_565 S
H1689  C1755   1.085   .     S
H1693  C1882   1.111   1_455 S
H1697  C1884   1.114   1_455 S
H1698  C1884   1.112   1_455 S
H1700  C995    1.087   1_565 S
O1720  Zn1744  1.935   .     S
O1720  Zn1743  1.926   .     S
O1720  Zn1741  1.960   .     S
O1720  Zn1742  1.930   .     S
O1721  Zn1742  1.916   .     S
O1722  Zn1744  1.925   .     S
O1723  Zn1743  1.918   .     S
O1724  Zn1741  1.912   .     S
O1726  C1863   1.393   1_455 S
O1729  C1884   1.412   1_455 S
O1731  Zn1741  1.926   .     S
O1734  Zn1744  1.930   .     S
O1735  Zn1742  1.932   .     S
O1736  Zn1743  1.940   .     S
O1737  Zn1744  1.930   .     S
O1738  Zn1741  1.923   .     S
O1739  Zn1742  1.941   .     S
O1740  Zn1743  1.935   .     S
C1745  C1755   1.439   .     S
C1745  O1844   1.263   .     A
C1745  O1846   1.270   .     A
C1746  C1783   1.430   .     A
C1746  C1747   1.396   .     A
C1746  O1842   1.382   .     S
C1747  H1824   1.085   .     S
C1747  C768    1.393   1_556 S
C1748  O1847   1.279   .     A
C1748  O1845   1.277   .     A
C1748  C1754   1.460   .     S
C1749  C1750   1.415   .     A
C1749  C1751   1.401   .     A
C1750  C1753   1.423   .     A
C1750  C1784   1.422   .     A
C1751  C1752   1.391   .     A
C1751  H1787   1.084   .     S
C1752  C1764   1.396   .     A
C1752  H1820   1.080   .     S
C1753  O1837   1.385   .     S
C1753  C1764   1.402   .     A
C1754  C1864   1.345   .     S
C1754  O1944   1.393   .     S
C1756  O1839   1.385   .     S
C1756  C1765   1.406   .     A
C1756  C1763   1.409   .     A
C1757  C1760   1.463   .     S
C1757  C1104   1.337   1_565 S
C1757  O1182   1.393   1_565 S
C1758  C1759   1.438   .     S
C1759  O1848   1.271   .     A
C1759  O1840   1.276   .     A
C1760  O1849   1.268   .     A
C1760  O1843   1.271   .     A
C1761  O1832   1.274   .     A
C1761  C1764   1.460   .     S
C1761  O1830   1.270   .     A
C1762  C1763   1.480   .     S
C1762  O1833   1.291   .     A
C1762  O1831   1.287   .     A
C1763  C1767   1.394   .     A
C1765  O1838   1.384   .     S
C1765  C1782   1.421   .     A
C1766  H1826   1.112   .     S
C1766  O1834   1.416   .     S
C1766  H1827   1.116   .     S
C1767  C1778   1.406   .     A
C1767  H1825   1.077   .     S
C1768  C1769   1.528   .     S
C1768  H1788   1.112   .     S
C1768  H1828   1.112   .     S
C1768  C1875   1.529   .     S
C1769  H1789   1.109   .     S
C1769  H1790   1.108   .     S
C1769  H1900   1.104   .     S
C1770  H1794   1.109   .     S
C1770  H1793   1.110   .     S
C1770  O1835   1.415   .     S
C1770  H1792   1.115   .     S
C1771  H1795   1.111   .     S
C1771  O1836   1.418   .     S
C1771  C1772   1.532   .     S
C1772  C1773   1.526   .     S
C1772  H1799   1.111   .     S
C1772  H1797   1.110   .     S
C1773  H1801   1.110   .     S
C1773  H1800   1.111   .     S
C1773  H1911   1.111   .     S
C1774  O1837   1.410   .     S
C1774  H1804   1.113   .     S
C1774  H1803   1.113   .     S
C1774  H1805   1.109   .     S
C1775  H1808   1.109   .     S
C1775  H1915   1.114   .     S
C1775  H1916   1.112   .     S
C1775  O1947   1.412   .     S
C1776  H1811   1.117   .     S
C1776  H1810   1.111   .     S
C1776  C1777   1.534   .     S
C1776  O1839   1.418   .     S
C1777  H1813   1.110   .     S
C1777  H1812   1.112   .     S
C1777  C1125   1.526   1_565 S
C1778  C1783   1.428   .     A
C1778  C1782   1.425   .     A
C1779  H1814   1.110   .     S
C1779  H1815   1.111   .     S
C1779  H1816   1.111   .     S
C1780  O1841   1.410   .     S
C1780  H1819   1.114   .     S
C1780  H1818   1.109   .     S
C1780  H1817   1.113   .     S
C1781  H1823   1.110   .     S
C1781  O1842   1.410   .     S
C1781  H1821   1.113   .     S
C1781  H1822   1.113   .     S
C1782  C805    1.413   1_556 S
C1783  C803    1.416   1_556 S
C1784  C1785   1.413   .     A
C1785  C1786   1.402   .     A
C1785  O1841   1.384   .     S
C1786  O1834   1.384   .     S
H1796  C1117   1.113   1_565 S
H1798  C1864   1.085   .     S
H1809  C1104   1.087   1_565 S
O1829  Zn1853  1.935   .     S
O1829  Zn1852  1.926   .     S
O1829  Zn1850  1.960   .     S
O1829  Zn1851  1.930   .     S
O1830  Zn1851  1.916   .     S
O1831  Zn1853  1.925   .     S
O1832  Zn1852  1.918   .     S
O1833  Zn1850  1.912   .     S
O1840  Zn1850  1.926   .     S
O1843  Zn1853  1.930   .     S
O1844  Zn1851  1.932   .     S
O1845  Zn1852  1.940   .     S
O1846  Zn1853  1.930   .     S
O1847  Zn1850  1.923   .     S
O1848  Zn1851  1.941   .     S
O1849  Zn1852  1.935   .     S
C1854  C1864   1.439   .     S
C1854  O1953   1.263   .     A
C1854  O1955   1.270   .     A
C1855  C1892   1.430   .     A
C1855  C1856   1.396   .     A
C1855  O1951   1.382   .     S
C1856  H1933   1.085   .     S
C1856  C877    1.393   1_556 S
C1857  O1956   1.279   .     A
C1857  O1954   1.277   .     A
C1857  C1863   1.460   .     S
C1858  C1859   1.415   .     A
C1858  C1860   1.401   .     A
C1859  C1862   1.423   .     A
C1859  C1893   1.422   .     A
C1860  C1861   1.391   .     A
C1860  H1896   1.084   .     S
C1861  C1873   1.396   .     A
C1861  H1929   1.080   .     S
C1862  O1946   1.385   .     S
C1862  C1873   1.402   .     A
C1863  C1646   1.345   1_655 S
C1863  O1726   1.393   1_655 S
C1865  O1948   1.385   .     S
C1865  C1874   1.406   .     A
C1865  C1872   1.409   .     A
C1866  C1869   1.463   .     S
C1866  C1213   1.337   1_565 S
C1866  O1291   1.393   1_565 S
C1867  C1868   1.438   .     S
C1868  O1957   1.271   .     A
C1868  O1949   1.276   .     A
C1869  O1958   1.268   .     A
C1869  O1952   1.271   .     A
C1870  O1941   1.274   .     A
C1870  C1873   1.460   .     S
C1870  O1939   1.270   .     A
C1871  C1872   1.480   .     S
C1871  O1942   1.291   .     A
C1871  O1940   1.287   .     A
C1872  C1876   1.394   .     A
C1874  O1947   1.384   .     S
C1874  C1891   1.421   .     A
C1875  H1935   1.112   .     S
C1875  O1943   1.416   .     S
C1875  H1936   1.116   .     S
C1876  C1887   1.406   .     A
C1876  H1934   1.077   .     S
C1877  C1878   1.528   .     S
C1877  H1897   1.112   .     S
C1877  H1937   1.112   .     S
C1877  C1657   1.529   1_655 S
C1878  H1898   1.109   .     S
C1878  H1899   1.108   .     S
C1878  H1682   1.104   1_655 S
C1879  H1903   1.109   .     S
C1879  H1902   1.110   .     S
C1879  O1944   1.415   .     S
C1879  H1901   1.115   .     S
C1880  H1904   1.111   .     S
C1880  O1945   1.418   .     S
C1880  C1881   1.532   .     S
C1881  C1882   1.526   .     S
C1881  H1908   1.111   .     S
C1881  H1906   1.110   .     S
C1882  H1910   1.110   .     S
C1882  H1909   1.111   .     S
C1882  H1693   1.111   1_655 S
C1883  O1946   1.410   .     S
C1883  H1913   1.113   .     S
C1883  H1912   1.113   .     S
C1883  H1914   1.109   .     S
C1884  H1917   1.109   .     S
C1884  H1697   1.114   1_655 S
C1884  H1698   1.112   1_655 S
C1884  O1729   1.412   1_655 S
C1885  H1920   1.117   .     S
C1885  H1919   1.111   .     S
C1885  C1886   1.534   .     S
C1885  O1948   1.418   .     S
C1886  H1922   1.110   .     S
C1886  H1921   1.112   .     S
C1886  C1234   1.526   1_565 S
C1887  C1892   1.428   .     A
C1887  C1891   1.425   .     A
C1888  H1923   1.110   .     S
C1888  H1924   1.111   .     S
C1888  H1925   1.111   .     S
C1889  O1950   1.410   .     S
C1889  H1928   1.114   .     S
C1889  H1927   1.109   .     S
C1889  H1926   1.113   .     S
C1890  H1932   1.110   .     S
C1890  O1951   1.410   .     S
C1890  H1930   1.113   .     S
C1890  H1931   1.113   .     S
C1891  C914    1.413   1_556 S
C1892  C912    1.416   1_556 S
C1893  C1894   1.413   .     A
C1894  C1895   1.402   .     A
C1894  O1950   1.384   .     S
C1895  O1943   1.384   .     S
H1905  C1226   1.113   1_565 S
H1907  C1646   1.085   1_655 S
H1918  C1213   1.087   1_565 S
O1938  Zn1962  1.935   .     S
O1938  Zn1961  1.926   .     S
O1938  Zn1959  1.960   .     S
O1938  Zn1960  1.930   .     S
O1939  Zn1960  1.916   .     S
O1940  Zn1962  1.925   .     S
O1941  Zn1961  1.918   .     S
O1942  Zn1959  1.912   .     S
O1949  Zn1959  1.926   .     S
O1952  Zn1962  1.930   .     S
O1953  Zn1960  1.932   .     S
O1954  Zn1961  1.940   .     S
O1955  Zn1962  1.930   .     S
O1956  Zn1959  1.923   .     S
O1957  Zn1960  1.941   .     S
O1958  Zn1961  1.935   .     S
