data_str_m1_o10_o18_pcu_sym.238
_audit_creation_date              2020-01-03
_audit_creation_method            'Materials Studio'
_symmetry_space_group_name_H-M    'P1'
_symmetry_Int_Tables_number       1
_symmetry_cell_setting            triclinic
loop_
_symmetry_equiv_pos_as_xyz
  x,y,z
_cell_length_a                    32.5560
_cell_length_b                    32.5215
_cell_length_c                    35.8666
_cell_angle_alpha                 98.1241
_cell_angle_beta                  72.9490
_cell_angle_gamma                 98.5613
loop_
_atom_site_label
_atom_site_type_symbol
_atom_site_fract_x
_atom_site_fract_y
_atom_site_fract_z
_atom_site_U_iso_or_equiv
_atom_site_adp_type
_atom_site_occupancy
C1     C     0.05251   0.16001   0.25870   0.00000  Uiso   1.00
C2     C     0.20824   0.14071   0.45923   0.00000  Uiso   1.00
C3     C     0.22928   0.12101   0.47897   0.00000  Uiso   1.00
C4     C     0.28105   0.17357   0.24119   0.00000  Uiso   1.00
C5     C     0.21847   0.12643   0.02002   0.00000  Uiso   1.00
C6     C     0.18644   0.15299   0.04137   0.00000  Uiso   1.00
C7     C     0.23942   0.10614   0.04023   0.00000  Uiso   1.00
C8     C     0.22924   0.11186   0.08089   0.00000  Uiso   1.00
C9     C     0.17594   0.15705   0.08267   0.00000  Uiso   1.00
C10    C     0.32707   0.17615   0.23751   0.00000  Uiso   1.00
C11    C     0.00710   0.15775   0.26218   0.00000  Uiso   1.00
C12    C     0.10996   0.22698   0.41983   0.00000  Uiso   1.00
C13    C     0.18086   0.32216   0.23808   0.00000  Uiso   1.00
C14    C     0.15157   0.01210   0.26210   0.00000  Uiso   1.00
C15    C     0.15594   0.05614   0.25888   0.00000  Uiso   1.00
C16    C     0.17685   0.27767   0.24135   0.00000  Uiso   1.00
C17    C     0.18834   0.14523   0.14417   0.00000  Uiso   1.00
C18    C     0.14551   0.18780   0.35608   0.00000  Uiso   1.00
C19    C     0.13750   0.19732   0.39876   0.00000  Uiso   1.00
C20    C     0.19749   0.13717   0.10192   0.00000  Uiso   1.00
C21    C     0.10320   0.23567   0.46016   0.00000  Uiso   1.00
C22    C     0.15832   0.17669   0.41842   0.00000  Uiso   1.00
C23    C     0.15337   0.18603   0.45895   0.00000  Uiso   1.00
C24    C     0.12446   0.21536   0.47985   0.00000  Uiso   1.00
C25    C     0.17574   0.16667   0.47928   0.00000  Uiso   1.00
C26    C     0.16603   0.17439   0.02086   0.00000  Uiso   1.00
C27    C     0.13689   0.20394   0.04044   0.00000  Uiso   1.00
C28    C     0.11693   0.22419   0.02020   0.00000  Uiso   1.00
Cl29   Cl    0.26946   0.08961   0.45037   0.00000  Uiso   1.00
H30    H     0.09509   0.24679   0.03640   0.00000  Uiso   1.00
H31    H     0.09346   0.24329   0.40522   0.00000  Uiso   1.00
H32    H     0.17754   0.15280   0.40139   0.00000  Uiso   1.00
H33    H     0.12941   0.21315   0.07148   0.00000  Uiso   1.00
H34    H     0.21933   0.13587   0.42776   0.00000  Uiso   1.00
H35    H     0.26407   0.08603   0.02493   0.00000  Uiso   1.00
H36    H     0.01685   0.19303   0.21464   0.00000  Uiso   1.00
H37    H     0.31797   0.14096   0.28542   0.00000  Uiso   1.00
H38    H     0.20791   0.00276   0.21597   0.00000  Uiso   1.00
H39    H     0.12417   0.33228   0.28433   0.00000  Uiso   1.00
H40    H     0.15120   0.17538   0.10104   0.00000  Uiso   1.00
H41    H     0.24621   0.09665   0.09596   0.00000  Uiso   1.00
H42    H     0.08135   0.25838   0.47601   0.00000  Uiso   1.00
O43    O     0.16667   0.16667   0.25000   0.00000  Uiso   1.00
O44    O     0.15693   0.12393   0.16625   0.00000  Uiso   1.00
O45    O     0.12687   0.20646   0.33749   0.00000  Uiso   1.00
O46    O     0.21088   0.17493   0.15877   0.00000  Uiso   1.00
O47    O     0.17198   0.16135   0.33749   0.00000  Uiso   1.00
O48    O     0.17849   0.08101   0.27821   0.00000  Uiso   1.00
O49    O     0.14581   0.26136   0.26767   0.00000  Uiso   1.00
O50    O     0.07452   0.13251   0.23607   0.00000  Uiso   1.00
O51    O     0.26785   0.19179   0.21806   0.00000  Uiso   1.00
O52    O     0.06990   0.18960   0.27820   0.00000  Uiso   1.00
O53    O     0.25440   0.15277   0.26768   0.00000  Uiso   1.00
O54    O     0.13800   0.06903   0.23607   0.00000  Uiso   1.00
O55    O     0.20437   0.25527   0.21806   0.00000  Uiso   1.00
Zn56   Zn    0.19244   0.14090   0.28278   0.00000  Uiso   1.00
Zn57   Zn    0.13459   0.12378   0.22258   0.00000  Uiso   1.00
Zn58   Zn    0.21166   0.19664   0.21188   0.00000  Uiso   1.00
Zn59   Zn    0.12798   0.20535   0.28277   0.00000  Uiso   1.00
C60    C     0.38585   0.16001   0.25870   0.00000  Uiso   1.00
C61    C     0.54158   0.14071   0.45923   0.00000  Uiso   1.00
C62    C     0.56261   0.12101   0.47897   0.00000  Uiso   1.00
C63    C     0.61438   0.17357   0.24119   0.00000  Uiso   1.00
C64    C     0.55180   0.12643   0.02002   0.00000  Uiso   1.00
C65    C     0.51977   0.15299   0.04137   0.00000  Uiso   1.00
C66    C     0.57275   0.10614   0.04023   0.00000  Uiso   1.00
C67    C     0.56257   0.11186   0.08089   0.00000  Uiso   1.00
C68    C     0.50928   0.15705   0.08267   0.00000  Uiso   1.00
C69    C     0.66041   0.17615   0.23751   0.00000  Uiso   1.00
C70    C     0.34044   0.15775   0.26218   0.00000  Uiso   1.00
C71    C     0.44329   0.22698   0.41983   0.00000  Uiso   1.00
C72    C     0.51419   0.32216   0.23808   0.00000  Uiso   1.00
C73    C     0.48491   0.01210   0.26210   0.00000  Uiso   1.00
C74    C     0.48928   0.05614   0.25888   0.00000  Uiso   1.00
C75    C     0.51018   0.27767   0.24135   0.00000  Uiso   1.00
C76    C     0.52167   0.14523   0.14417   0.00000  Uiso   1.00
C77    C     0.47884   0.18780   0.35608   0.00000  Uiso   1.00
C78    C     0.47084   0.19732   0.39876   0.00000  Uiso   1.00
C79    C     0.53082   0.13717   0.10192   0.00000  Uiso   1.00
C80    C     0.43653   0.23567   0.46016   0.00000  Uiso   1.00
C81    C     0.49165   0.17669   0.41842   0.00000  Uiso   1.00
C82    C     0.48670   0.18603   0.45895   0.00000  Uiso   1.00
C83    C     0.45779   0.21536   0.47985   0.00000  Uiso   1.00
C84    C     0.50908   0.16667   0.47928   0.00000  Uiso   1.00
C85    C     0.49936   0.17439   0.02086   0.00000  Uiso   1.00
C86    C     0.47022   0.20394   0.04044   0.00000  Uiso   1.00
C87    C     0.45026   0.22419   0.02020   0.00000  Uiso   1.00
Cl88   Cl    0.60280   0.08961   0.45037   0.00000  Uiso   1.00
H89    H     0.42843   0.24679   0.03640   0.00000  Uiso   1.00
H90    H     0.42679   0.24329   0.40522   0.00000  Uiso   1.00
H91    H     0.51087   0.15280   0.40139   0.00000  Uiso   1.00
H92    H     0.46274   0.21315   0.07148   0.00000  Uiso   1.00
H93    H     0.55266   0.13587   0.42776   0.00000  Uiso   1.00
H94    H     0.59740   0.08603   0.02493   0.00000  Uiso   1.00
H95    H     0.35018   0.19303   0.21464   0.00000  Uiso   1.00
H96    H     0.65131   0.14096   0.28542   0.00000  Uiso   1.00
H97    H     0.54125   0.00276   0.21597   0.00000  Uiso   1.00
H98    H     0.45750   0.33228   0.28433   0.00000  Uiso   1.00
H99    H     0.48453   0.17538   0.10104   0.00000  Uiso   1.00
H100   H     0.57954   0.09665   0.09596   0.00000  Uiso   1.00
H101   H     0.41469   0.25838   0.47601   0.00000  Uiso   1.00
O102   O     0.50000   0.16667   0.25000   0.00000  Uiso   1.00
O103   O     0.49027   0.12393   0.16625   0.00000  Uiso   1.00
O104   O     0.46020   0.20646   0.33749   0.00000  Uiso   1.00
O105   O     0.54421   0.17493   0.15877   0.00000  Uiso   1.00
O106   O     0.50532   0.16135   0.33749   0.00000  Uiso   1.00
O107   O     0.51182   0.08101   0.27821   0.00000  Uiso   1.00
O108   O     0.47914   0.26136   0.26767   0.00000  Uiso   1.00
O109   O     0.40785   0.13251   0.23607   0.00000  Uiso   1.00
O110   O     0.60119   0.19179   0.21806   0.00000  Uiso   1.00
O111   O     0.40323   0.18960   0.27820   0.00000  Uiso   1.00
O112   O     0.58773   0.15277   0.26768   0.00000  Uiso   1.00
O113   O     0.47133   0.06903   0.23607   0.00000  Uiso   1.00
O114   O     0.53771   0.25527   0.21806   0.00000  Uiso   1.00
Zn115  Zn    0.52577   0.14090   0.28278   0.00000  Uiso   1.00
Zn116  Zn    0.46792   0.12378   0.22258   0.00000  Uiso   1.00
Zn117  Zn    0.54500   0.19664   0.21188   0.00000  Uiso   1.00
Zn118  Zn    0.46131   0.20535   0.28277   0.00000  Uiso   1.00
C119   C     0.71918   0.16001   0.25870   0.00000  Uiso   1.00
C120   C     0.87491   0.14071   0.45923   0.00000  Uiso   1.00
C121   C     0.89595   0.12101   0.47897   0.00000  Uiso   1.00
C122   C     0.94772   0.17357   0.24119   0.00000  Uiso   1.00
C123   C     0.88513   0.12643   0.02002   0.00000  Uiso   1.00
C124   C     0.85311   0.15299   0.04137   0.00000  Uiso   1.00
C125   C     0.90608   0.10614   0.04023   0.00000  Uiso   1.00
C126   C     0.89591   0.11186   0.08089   0.00000  Uiso   1.00
C127   C     0.84261   0.15705   0.08267   0.00000  Uiso   1.00
C128   C     0.99374   0.17615   0.23751   0.00000  Uiso   1.00
C129   C     0.67377   0.15775   0.26218   0.00000  Uiso   1.00
C130   C     0.77662   0.22698   0.41983   0.00000  Uiso   1.00
C131   C     0.84753   0.32216   0.23808   0.00000  Uiso   1.00
C132   C     0.81824   0.01210   0.26210   0.00000  Uiso   1.00
C133   C     0.82261   0.05614   0.25888   0.00000  Uiso   1.00
C134   C     0.84352   0.27767   0.24135   0.00000  Uiso   1.00
C135   C     0.85501   0.14523   0.14417   0.00000  Uiso   1.00
C136   C     0.81217   0.18780   0.35608   0.00000  Uiso   1.00
C137   C     0.80417   0.19732   0.39876   0.00000  Uiso   1.00
C138   C     0.86416   0.13717   0.10192   0.00000  Uiso   1.00
C139   C     0.76987   0.23567   0.46016   0.00000  Uiso   1.00
C140   C     0.82499   0.17669   0.41842   0.00000  Uiso   1.00
C141   C     0.82004   0.18603   0.45895   0.00000  Uiso   1.00
C142   C     0.79113   0.21536   0.47985   0.00000  Uiso   1.00
C143   C     0.84241   0.16667   0.47928   0.00000  Uiso   1.00
C144   C     0.83269   0.17439   0.02086   0.00000  Uiso   1.00
C145   C     0.80356   0.20394   0.04044   0.00000  Uiso   1.00
C146   C     0.78359   0.22419   0.02020   0.00000  Uiso   1.00
Cl147  Cl    0.93613   0.08961   0.45037   0.00000  Uiso   1.00
H148   H     0.76176   0.24679   0.03640   0.00000  Uiso   1.00
H149   H     0.76013   0.24329   0.40522   0.00000  Uiso   1.00
H150   H     0.84421   0.15280   0.40139   0.00000  Uiso   1.00
H151   H     0.79607   0.21315   0.07148   0.00000  Uiso   1.00
H152   H     0.88600   0.13587   0.42776   0.00000  Uiso   1.00
H153   H     0.93073   0.08603   0.02493   0.00000  Uiso   1.00
H154   H     0.68352   0.19303   0.21464   0.00000  Uiso   1.00
H155   H     0.98464   0.14096   0.28542   0.00000  Uiso   1.00
H156   H     0.87458   0.00276   0.21597   0.00000  Uiso   1.00
H157   H     0.79083   0.33228   0.28433   0.00000  Uiso   1.00
H158   H     0.81786   0.17538   0.10104   0.00000  Uiso   1.00
H159   H     0.91287   0.09665   0.09596   0.00000  Uiso   1.00
H160   H     0.74802   0.25838   0.47601   0.00000  Uiso   1.00
O161   O     0.83333   0.16667   0.25000   0.00000  Uiso   1.00
O162   O     0.82360   0.12393   0.16625   0.00000  Uiso   1.00
O163   O     0.79354   0.20646   0.33749   0.00000  Uiso   1.00
O164   O     0.87755   0.17493   0.15877   0.00000  Uiso   1.00
O165   O     0.83865   0.16135   0.33749   0.00000  Uiso   1.00
O166   O     0.84515   0.08101   0.27821   0.00000  Uiso   1.00
O167   O     0.81247   0.26136   0.26767   0.00000  Uiso   1.00
O168   O     0.74119   0.13251   0.23607   0.00000  Uiso   1.00
O169   O     0.93452   0.19179   0.21806   0.00000  Uiso   1.00
O170   O     0.73656   0.18960   0.27820   0.00000  Uiso   1.00
O171   O     0.92106   0.15277   0.26768   0.00000  Uiso   1.00
O172   O     0.80467   0.06903   0.23607   0.00000  Uiso   1.00
O173   O     0.87104   0.25527   0.21806   0.00000  Uiso   1.00
Zn174  Zn    0.85910   0.14090   0.28278   0.00000  Uiso   1.00
Zn175  Zn    0.80125   0.12378   0.22258   0.00000  Uiso   1.00
Zn176  Zn    0.87833   0.19664   0.21188   0.00000  Uiso   1.00
Zn177  Zn    0.79465   0.20535   0.28277   0.00000  Uiso   1.00
C178   C     0.05251   0.49334   0.25870   0.00000  Uiso   1.00
C179   C     0.20824   0.47404   0.45923   0.00000  Uiso   1.00
C180   C     0.22928   0.45434   0.47897   0.00000  Uiso   1.00
C181   C     0.28105   0.50691   0.24119   0.00000  Uiso   1.00
C182   C     0.21847   0.45977   0.02002   0.00000  Uiso   1.00
C183   C     0.18644   0.48632   0.04137   0.00000  Uiso   1.00
C184   C     0.23942   0.43948   0.04023   0.00000  Uiso   1.00
C185   C     0.22924   0.44520   0.08089   0.00000  Uiso   1.00
C186   C     0.17594   0.49038   0.08267   0.00000  Uiso   1.00
C187   C     0.32707   0.50948   0.23751   0.00000  Uiso   1.00
C188   C     0.00710   0.49108   0.26218   0.00000  Uiso   1.00
C189   C     0.10996   0.56031   0.41983   0.00000  Uiso   1.00
C190   C     0.18086   0.65549   0.23808   0.00000  Uiso   1.00
C191   C     0.15157   0.34544   0.26210   0.00000  Uiso   1.00
C192   C     0.15594   0.38948   0.25888   0.00000  Uiso   1.00
C193   C     0.17685   0.61100   0.24135   0.00000  Uiso   1.00
C194   C     0.18834   0.47856   0.14417   0.00000  Uiso   1.00
C195   C     0.14551   0.52113   0.35608   0.00000  Uiso   1.00
C196   C     0.13750   0.53066   0.39876   0.00000  Uiso   1.00
C197   C     0.19749   0.47050   0.10192   0.00000  Uiso   1.00
C198   C     0.10320   0.56901   0.46016   0.00000  Uiso   1.00
C199   C     0.15832   0.51003   0.41842   0.00000  Uiso   1.00
C200   C     0.15337   0.51936   0.45895   0.00000  Uiso   1.00
C201   C     0.12446   0.54870   0.47985   0.00000  Uiso   1.00
C202   C     0.17574   0.50000   0.47928   0.00000  Uiso   1.00
C203   C     0.16603   0.50773   0.02086   0.00000  Uiso   1.00
C204   C     0.13689   0.53727   0.04044   0.00000  Uiso   1.00
C205   C     0.11693   0.55752   0.02020   0.00000  Uiso   1.00
Cl206  Cl    0.26946   0.42295   0.45037   0.00000  Uiso   1.00
H207   H     0.09509   0.58013   0.03640   0.00000  Uiso   1.00
H208   H     0.09346   0.57662   0.40522   0.00000  Uiso   1.00
H209   H     0.17754   0.48614   0.40139   0.00000  Uiso   1.00
H210   H     0.12941   0.54649   0.07148   0.00000  Uiso   1.00
H211   H     0.21933   0.46920   0.42776   0.00000  Uiso   1.00
H212   H     0.26407   0.41936   0.02493   0.00000  Uiso   1.00
H213   H     0.01685   0.52636   0.21464   0.00000  Uiso   1.00
H214   H     0.31797   0.47430   0.28542   0.00000  Uiso   1.00
H215   H     0.20791   0.33609   0.21597   0.00000  Uiso   1.00
H216   H     0.12417   0.66561   0.28433   0.00000  Uiso   1.00
H217   H     0.15120   0.50872   0.10104   0.00000  Uiso   1.00
H218   H     0.24621   0.42999   0.09596   0.00000  Uiso   1.00
H219   H     0.08135   0.59171   0.47601   0.00000  Uiso   1.00
O220   O     0.16667   0.50000   0.25000   0.00000  Uiso   1.00
O221   O     0.15693   0.45726   0.16625   0.00000  Uiso   1.00
O222   O     0.12687   0.53979   0.33749   0.00000  Uiso   1.00
O223   O     0.21088   0.50826   0.15877   0.00000  Uiso   1.00
O224   O     0.17198   0.49468   0.33749   0.00000  Uiso   1.00
O225   O     0.17849   0.41434   0.27821   0.00000  Uiso   1.00
O226   O     0.14581   0.59469   0.26767   0.00000  Uiso   1.00
O227   O     0.07452   0.46584   0.23607   0.00000  Uiso   1.00
O228   O     0.26785   0.52512   0.21806   0.00000  Uiso   1.00
O229   O     0.06990   0.52293   0.27820   0.00000  Uiso   1.00
O230   O     0.25440   0.48610   0.26768   0.00000  Uiso   1.00
O231   O     0.13800   0.40236   0.23607   0.00000  Uiso   1.00
O232   O     0.20437   0.58860   0.21806   0.00000  Uiso   1.00
Zn233  Zn    0.19244   0.47423   0.28278   0.00000  Uiso   1.00
Zn234  Zn    0.13459   0.45711   0.22258   0.00000  Uiso   1.00
Zn235  Zn    0.21166   0.52997   0.21188   0.00000  Uiso   1.00
Zn236  Zn    0.12798   0.53868   0.28277   0.00000  Uiso   1.00
C237   C     0.38585   0.49334   0.25870   0.00000  Uiso   1.00
C238   C     0.54158   0.47404   0.45923   0.00000  Uiso   1.00
C239   C     0.56261   0.45434   0.47897   0.00000  Uiso   1.00
C240   C     0.61438   0.50691   0.24119   0.00000  Uiso   1.00
C241   C     0.55180   0.45977   0.02002   0.00000  Uiso   1.00
C242   C     0.51977   0.48632   0.04137   0.00000  Uiso   1.00
C243   C     0.57275   0.43948   0.04023   0.00000  Uiso   1.00
C244   C     0.56257   0.44520   0.08089   0.00000  Uiso   1.00
C245   C     0.50928   0.49038   0.08267   0.00000  Uiso   1.00
C246   C     0.66041   0.50948   0.23751   0.00000  Uiso   1.00
C247   C     0.34044   0.49108   0.26218   0.00000  Uiso   1.00
C248   C     0.44329   0.56031   0.41983   0.00000  Uiso   1.00
C249   C     0.51419   0.65549   0.23808   0.00000  Uiso   1.00
C250   C     0.48491   0.34544   0.26210   0.00000  Uiso   1.00
C251   C     0.48928   0.38948   0.25888   0.00000  Uiso   1.00
C252   C     0.51018   0.61100   0.24135   0.00000  Uiso   1.00
C253   C     0.52167   0.47856   0.14417   0.00000  Uiso   1.00
C254   C     0.47884   0.52113   0.35608   0.00000  Uiso   1.00
C255   C     0.47084   0.53066   0.39876   0.00000  Uiso   1.00
C256   C     0.53082   0.47050   0.10192   0.00000  Uiso   1.00
C257   C     0.43653   0.56901   0.46016   0.00000  Uiso   1.00
C258   C     0.49165   0.51003   0.41842   0.00000  Uiso   1.00
C259   C     0.48670   0.51936   0.45895   0.00000  Uiso   1.00
C260   C     0.45779   0.54870   0.47985   0.00000  Uiso   1.00
C261   C     0.50908   0.50000   0.47928   0.00000  Uiso   1.00
C262   C     0.49936   0.50773   0.02086   0.00000  Uiso   1.00
C263   C     0.47022   0.53727   0.04044   0.00000  Uiso   1.00
C264   C     0.45026   0.55752   0.02020   0.00000  Uiso   1.00
Cl265  Cl    0.60280   0.42295   0.45037   0.00000  Uiso   1.00
H266   H     0.42843   0.58013   0.03640   0.00000  Uiso   1.00
H267   H     0.42679   0.57662   0.40522   0.00000  Uiso   1.00
H268   H     0.51087   0.48614   0.40139   0.00000  Uiso   1.00
H269   H     0.46274   0.54649   0.07148   0.00000  Uiso   1.00
H270   H     0.55266   0.46920   0.42776   0.00000  Uiso   1.00
H271   H     0.59740   0.41936   0.02493   0.00000  Uiso   1.00
H272   H     0.35018   0.52636   0.21464   0.00000  Uiso   1.00
H273   H     0.65131   0.47430   0.28542   0.00000  Uiso   1.00
H274   H     0.54125   0.33609   0.21597   0.00000  Uiso   1.00
H275   H     0.45750   0.66561   0.28433   0.00000  Uiso   1.00
H276   H     0.48453   0.50872   0.10104   0.00000  Uiso   1.00
H277   H     0.57954   0.42999   0.09596   0.00000  Uiso   1.00
H278   H     0.41469   0.59171   0.47601   0.00000  Uiso   1.00
O279   O     0.50000   0.50000   0.25000   0.00000  Uiso   1.00
O280   O     0.49027   0.45726   0.16625   0.00000  Uiso   1.00
O281   O     0.46020   0.53979   0.33749   0.00000  Uiso   1.00
O282   O     0.54421   0.50826   0.15877   0.00000  Uiso   1.00
O283   O     0.50532   0.49468   0.33749   0.00000  Uiso   1.00
O284   O     0.51182   0.41434   0.27821   0.00000  Uiso   1.00
O285   O     0.47914   0.59469   0.26767   0.00000  Uiso   1.00
O286   O     0.40785   0.46584   0.23607   0.00000  Uiso   1.00
O287   O     0.60119   0.52512   0.21806   0.00000  Uiso   1.00
O288   O     0.40323   0.52293   0.27820   0.00000  Uiso   1.00
O289   O     0.58773   0.48610   0.26768   0.00000  Uiso   1.00
O290   O     0.47133   0.40236   0.23607   0.00000  Uiso   1.00
O291   O     0.53771   0.58860   0.21806   0.00000  Uiso   1.00
Zn292  Zn    0.52577   0.47423   0.28278   0.00000  Uiso   1.00
Zn293  Zn    0.46792   0.45711   0.22258   0.00000  Uiso   1.00
Zn294  Zn    0.54500   0.52997   0.21188   0.00000  Uiso   1.00
Zn295  Zn    0.46131   0.53868   0.28277   0.00000  Uiso   1.00
C296   C     0.71918   0.49334   0.25870   0.00000  Uiso   1.00
C297   C     0.87491   0.47404   0.45923   0.00000  Uiso   1.00
C298   C     0.89595   0.45434   0.47897   0.00000  Uiso   1.00
C299   C     0.94772   0.50691   0.24119   0.00000  Uiso   1.00
C300   C     0.88513   0.45977   0.02002   0.00000  Uiso   1.00
C301   C     0.85311   0.48632   0.04137   0.00000  Uiso   1.00
C302   C     0.90608   0.43948   0.04023   0.00000  Uiso   1.00
C303   C     0.89591   0.44520   0.08089   0.00000  Uiso   1.00
C304   C     0.84261   0.49038   0.08267   0.00000  Uiso   1.00
C305   C     0.99374   0.50948   0.23751   0.00000  Uiso   1.00
C306   C     0.67377   0.49108   0.26218   0.00000  Uiso   1.00
C307   C     0.77662   0.56031   0.41983   0.00000  Uiso   1.00
C308   C     0.84753   0.65549   0.23808   0.00000  Uiso   1.00
C309   C     0.81824   0.34544   0.26210   0.00000  Uiso   1.00
C310   C     0.82261   0.38948   0.25888   0.00000  Uiso   1.00
C311   C     0.84352   0.61100   0.24135   0.00000  Uiso   1.00
C312   C     0.85501   0.47856   0.14417   0.00000  Uiso   1.00
C313   C     0.81217   0.52113   0.35608   0.00000  Uiso   1.00
C314   C     0.80417   0.53066   0.39876   0.00000  Uiso   1.00
C315   C     0.86416   0.47050   0.10192   0.00000  Uiso   1.00
C316   C     0.76987   0.56901   0.46016   0.00000  Uiso   1.00
C317   C     0.82499   0.51003   0.41842   0.00000  Uiso   1.00
C318   C     0.82004   0.51936   0.45895   0.00000  Uiso   1.00
C319   C     0.79113   0.54870   0.47985   0.00000  Uiso   1.00
C320   C     0.84241   0.50000   0.47928   0.00000  Uiso   1.00
C321   C     0.83269   0.50773   0.02086   0.00000  Uiso   1.00
C322   C     0.80356   0.53727   0.04044   0.00000  Uiso   1.00
C323   C     0.78359   0.55752   0.02020   0.00000  Uiso   1.00
Cl324  Cl    0.93613   0.42295   0.45037   0.00000  Uiso   1.00
H325   H     0.76176   0.58013   0.03640   0.00000  Uiso   1.00
H326   H     0.76013   0.57662   0.40522   0.00000  Uiso   1.00
H327   H     0.84421   0.48614   0.40139   0.00000  Uiso   1.00
H328   H     0.79607   0.54649   0.07148   0.00000  Uiso   1.00
H329   H     0.88600   0.46920   0.42776   0.00000  Uiso   1.00
H330   H     0.93073   0.41936   0.02493   0.00000  Uiso   1.00
H331   H     0.68352   0.52636   0.21464   0.00000  Uiso   1.00
H332   H     0.98464   0.47430   0.28542   0.00000  Uiso   1.00
H333   H     0.87458   0.33609   0.21597   0.00000  Uiso   1.00
H334   H     0.79083   0.66561   0.28433   0.00000  Uiso   1.00
H335   H     0.81786   0.50872   0.10104   0.00000  Uiso   1.00
H336   H     0.91287   0.42999   0.09596   0.00000  Uiso   1.00
H337   H     0.74802   0.59171   0.47601   0.00000  Uiso   1.00
O338   O     0.83333   0.50000   0.25000   0.00000  Uiso   1.00
O339   O     0.82360   0.45726   0.16625   0.00000  Uiso   1.00
O340   O     0.79354   0.53979   0.33749   0.00000  Uiso   1.00
O341   O     0.87755   0.50826   0.15877   0.00000  Uiso   1.00
O342   O     0.83865   0.49468   0.33749   0.00000  Uiso   1.00
O343   O     0.84515   0.41434   0.27821   0.00000  Uiso   1.00
O344   O     0.81247   0.59469   0.26767   0.00000  Uiso   1.00
O345   O     0.74119   0.46584   0.23607   0.00000  Uiso   1.00
O346   O     0.93452   0.52512   0.21806   0.00000  Uiso   1.00
O347   O     0.73656   0.52293   0.27820   0.00000  Uiso   1.00
O348   O     0.92106   0.48610   0.26768   0.00000  Uiso   1.00
O349   O     0.80467   0.40236   0.23607   0.00000  Uiso   1.00
O350   O     0.87104   0.58860   0.21806   0.00000  Uiso   1.00
Zn351  Zn    0.85910   0.47423   0.28278   0.00000  Uiso   1.00
Zn352  Zn    0.80125   0.45711   0.22258   0.00000  Uiso   1.00
Zn353  Zn    0.87833   0.52997   0.21188   0.00000  Uiso   1.00
Zn354  Zn    0.79465   0.53868   0.28277   0.00000  Uiso   1.00
C355   C     0.05251   0.82668   0.25870   0.00000  Uiso   1.00
C356   C     0.20824   0.80738   0.45923   0.00000  Uiso   1.00
C357   C     0.22928   0.78767   0.47897   0.00000  Uiso   1.00
C358   C     0.28105   0.84024   0.24119   0.00000  Uiso   1.00
C359   C     0.21847   0.79310   0.02002   0.00000  Uiso   1.00
C360   C     0.18644   0.81966   0.04137   0.00000  Uiso   1.00
C361   C     0.23942   0.77281   0.04023   0.00000  Uiso   1.00
C362   C     0.22924   0.77853   0.08089   0.00000  Uiso   1.00
C363   C     0.17594   0.82371   0.08267   0.00000  Uiso   1.00
C364   C     0.32707   0.84281   0.23751   0.00000  Uiso   1.00
C365   C     0.00710   0.82442   0.26218   0.00000  Uiso   1.00
C366   C     0.10996   0.89365   0.41983   0.00000  Uiso   1.00
C367   C     0.18086   0.98883   0.23808   0.00000  Uiso   1.00
C368   C     0.15157   0.67877   0.26210   0.00000  Uiso   1.00
C369   C     0.15594   0.72281   0.25888   0.00000  Uiso   1.00
C370   C     0.17685   0.94434   0.24135   0.00000  Uiso   1.00
C371   C     0.18834   0.81189   0.14417   0.00000  Uiso   1.00
C372   C     0.14551   0.85447   0.35608   0.00000  Uiso   1.00
C373   C     0.13750   0.86399   0.39876   0.00000  Uiso   1.00
C374   C     0.19749   0.80383   0.10192   0.00000  Uiso   1.00
C375   C     0.10320   0.90234   0.46016   0.00000  Uiso   1.00
C376   C     0.15832   0.84336   0.41842   0.00000  Uiso   1.00
C377   C     0.15337   0.85270   0.45895   0.00000  Uiso   1.00
C378   C     0.12446   0.88203   0.47985   0.00000  Uiso   1.00
C379   C     0.17574   0.83334   0.47928   0.00000  Uiso   1.00
C380   C     0.16603   0.84106   0.02086   0.00000  Uiso   1.00
C381   C     0.13689   0.87061   0.04044   0.00000  Uiso   1.00
C382   C     0.11693   0.89086   0.02020   0.00000  Uiso   1.00
Cl383  Cl    0.26946   0.75628   0.45037   0.00000  Uiso   1.00
H384   H     0.09509   0.91346   0.03640   0.00000  Uiso   1.00
H385   H     0.09346   0.90995   0.40522   0.00000  Uiso   1.00
H386   H     0.17754   0.81947   0.40139   0.00000  Uiso   1.00
H387   H     0.12941   0.87982   0.07148   0.00000  Uiso   1.00
H388   H     0.21933   0.80254   0.42776   0.00000  Uiso   1.00
H389   H     0.26407   0.75269   0.02493   0.00000  Uiso   1.00
H390   H     0.01685   0.85970   0.21464   0.00000  Uiso   1.00
H391   H     0.31797   0.80763   0.28542   0.00000  Uiso   1.00
H392   H     0.20791   0.66943   0.21597   0.00000  Uiso   1.00
H393   H     0.12417   0.99894   0.28433   0.00000  Uiso   1.00
H394   H     0.15120   0.84205   0.10104   0.00000  Uiso   1.00
H395   H     0.24621   0.76332   0.09596   0.00000  Uiso   1.00
H396   H     0.08135   0.92505   0.47601   0.00000  Uiso   1.00
O397   O     0.16667   0.83333   0.25000   0.00000  Uiso   1.00
O398   O     0.15693   0.79060   0.16625   0.00000  Uiso   1.00
O399   O     0.12687   0.87313   0.33749   0.00000  Uiso   1.00
O400   O     0.21088   0.84159   0.15877   0.00000  Uiso   1.00
O401   O     0.17198   0.82802   0.33749   0.00000  Uiso   1.00
O402   O     0.17849   0.74768   0.27821   0.00000  Uiso   1.00
O403   O     0.14581   0.92803   0.26767   0.00000  Uiso   1.00
O404   O     0.07452   0.79917   0.23607   0.00000  Uiso   1.00
O405   O     0.26785   0.85845   0.21806   0.00000  Uiso   1.00
O406   O     0.06990   0.85627   0.27820   0.00000  Uiso   1.00
O407   O     0.25440   0.81944   0.26768   0.00000  Uiso   1.00
O408   O     0.13800   0.73570   0.23607   0.00000  Uiso   1.00
O409   O     0.20437   0.92193   0.21806   0.00000  Uiso   1.00
Zn410  Zn    0.19244   0.80756   0.28278   0.00000  Uiso   1.00
Zn411  Zn    0.13459   0.79044   0.22258   0.00000  Uiso   1.00
Zn412  Zn    0.21166   0.86331   0.21188   0.00000  Uiso   1.00
Zn413  Zn    0.12798   0.87202   0.28277   0.00000  Uiso   1.00
C414   C     0.38585   0.82668   0.25870   0.00000  Uiso   1.00
C415   C     0.54158   0.80738   0.45923   0.00000  Uiso   1.00
C416   C     0.56261   0.78767   0.47897   0.00000  Uiso   1.00
C417   C     0.61438   0.84024   0.24119   0.00000  Uiso   1.00
C418   C     0.55180   0.79310   0.02002   0.00000  Uiso   1.00
C419   C     0.51977   0.81966   0.04137   0.00000  Uiso   1.00
C420   C     0.57275   0.77281   0.04023   0.00000  Uiso   1.00
C421   C     0.56257   0.77853   0.08089   0.00000  Uiso   1.00
C422   C     0.50928   0.82371   0.08267   0.00000  Uiso   1.00
C423   C     0.66041   0.84281   0.23751   0.00000  Uiso   1.00
C424   C     0.34044   0.82442   0.26218   0.00000  Uiso   1.00
C425   C     0.44329   0.89365   0.41983   0.00000  Uiso   1.00
C426   C     0.51419   0.98883   0.23808   0.00000  Uiso   1.00
C427   C     0.48491   0.67877   0.26210   0.00000  Uiso   1.00
C428   C     0.48928   0.72281   0.25888   0.00000  Uiso   1.00
C429   C     0.51018   0.94434   0.24135   0.00000  Uiso   1.00
C430   C     0.52167   0.81189   0.14417   0.00000  Uiso   1.00
C431   C     0.47884   0.85447   0.35608   0.00000  Uiso   1.00
C432   C     0.47084   0.86399   0.39876   0.00000  Uiso   1.00
C433   C     0.53082   0.80383   0.10192   0.00000  Uiso   1.00
C434   C     0.43653   0.90234   0.46016   0.00000  Uiso   1.00
C435   C     0.49165   0.84336   0.41842   0.00000  Uiso   1.00
C436   C     0.48670   0.85270   0.45895   0.00000  Uiso   1.00
C437   C     0.45779   0.88203   0.47985   0.00000  Uiso   1.00
C438   C     0.50908   0.83334   0.47928   0.00000  Uiso   1.00
C439   C     0.49936   0.84106   0.02086   0.00000  Uiso   1.00
C440   C     0.47022   0.87061   0.04044   0.00000  Uiso   1.00
C441   C     0.45026   0.89086   0.02020   0.00000  Uiso   1.00
Cl442  Cl    0.60280   0.75628   0.45037   0.00000  Uiso   1.00
H443   H     0.42843   0.91346   0.03640   0.00000  Uiso   1.00
H444   H     0.42679   0.90995   0.40522   0.00000  Uiso   1.00
H445   H     0.51087   0.81947   0.40139   0.00000  Uiso   1.00
H446   H     0.46274   0.87982   0.07148   0.00000  Uiso   1.00
H447   H     0.55266   0.80254   0.42776   0.00000  Uiso   1.00
H448   H     0.59740   0.75269   0.02493   0.00000  Uiso   1.00
H449   H     0.35018   0.85970   0.21464   0.00000  Uiso   1.00
H450   H     0.65131   0.80763   0.28542   0.00000  Uiso   1.00
H451   H     0.54125   0.66943   0.21597   0.00000  Uiso   1.00
H452   H     0.45750   0.99894   0.28433   0.00000  Uiso   1.00
H453   H     0.48453   0.84205   0.10104   0.00000  Uiso   1.00
H454   H     0.57954   0.76332   0.09596   0.00000  Uiso   1.00
H455   H     0.41469   0.92505   0.47601   0.00000  Uiso   1.00
O456   O     0.50000   0.83333   0.25000   0.00000  Uiso   1.00
O457   O     0.49027   0.79060   0.16625   0.00000  Uiso   1.00
O458   O     0.46020   0.87313   0.33749   0.00000  Uiso   1.00
O459   O     0.54421   0.84159   0.15877   0.00000  Uiso   1.00
O460   O     0.50532   0.82802   0.33749   0.00000  Uiso   1.00
O461   O     0.51182   0.74768   0.27821   0.00000  Uiso   1.00
O462   O     0.47914   0.92803   0.26767   0.00000  Uiso   1.00
O463   O     0.40785   0.79917   0.23607   0.00000  Uiso   1.00
O464   O     0.60119   0.85845   0.21806   0.00000  Uiso   1.00
O465   O     0.40323   0.85627   0.27820   0.00000  Uiso   1.00
O466   O     0.58773   0.81944   0.26768   0.00000  Uiso   1.00
O467   O     0.47133   0.73570   0.23607   0.00000  Uiso   1.00
O468   O     0.53771   0.92193   0.21806   0.00000  Uiso   1.00
Zn469  Zn    0.52577   0.80756   0.28278   0.00000  Uiso   1.00
Zn470  Zn    0.46792   0.79044   0.22258   0.00000  Uiso   1.00
Zn471  Zn    0.54500   0.86331   0.21188   0.00000  Uiso   1.00
Zn472  Zn    0.46131   0.87202   0.28277   0.00000  Uiso   1.00
C473   C     0.71918   0.82668   0.25870   0.00000  Uiso   1.00
C474   C     0.87491   0.80738   0.45923   0.00000  Uiso   1.00
C475   C     0.89595   0.78767   0.47897   0.00000  Uiso   1.00
C476   C     0.94772   0.84024   0.24119   0.00000  Uiso   1.00
C477   C     0.88513   0.79310   0.02002   0.00000  Uiso   1.00
C478   C     0.85311   0.81966   0.04137   0.00000  Uiso   1.00
C479   C     0.90608   0.77281   0.04023   0.00000  Uiso   1.00
C480   C     0.89591   0.77853   0.08089   0.00000  Uiso   1.00
C481   C     0.84261   0.82371   0.08267   0.00000  Uiso   1.00
C482   C     0.99374   0.84281   0.23751   0.00000  Uiso   1.00
C483   C     0.67377   0.82442   0.26218   0.00000  Uiso   1.00
C484   C     0.77662   0.89365   0.41983   0.00000  Uiso   1.00
C485   C     0.84753   0.98883   0.23808   0.00000  Uiso   1.00
C486   C     0.81824   0.67877   0.26210   0.00000  Uiso   1.00
C487   C     0.82261   0.72281   0.25888   0.00000  Uiso   1.00
C488   C     0.84352   0.94434   0.24135   0.00000  Uiso   1.00
C489   C     0.85501   0.81189   0.14417   0.00000  Uiso   1.00
C490   C     0.81217   0.85447   0.35608   0.00000  Uiso   1.00
C491   C     0.80417   0.86399   0.39876   0.00000  Uiso   1.00
C492   C     0.86416   0.80383   0.10192   0.00000  Uiso   1.00
C493   C     0.76987   0.90234   0.46016   0.00000  Uiso   1.00
C494   C     0.82499   0.84336   0.41842   0.00000  Uiso   1.00
C495   C     0.82004   0.85270   0.45895   0.00000  Uiso   1.00
C496   C     0.79113   0.88203   0.47985   0.00000  Uiso   1.00
C497   C     0.84241   0.83334   0.47928   0.00000  Uiso   1.00
C498   C     0.83269   0.84106   0.02086   0.00000  Uiso   1.00
C499   C     0.80356   0.87061   0.04044   0.00000  Uiso   1.00
C500   C     0.78359   0.89086   0.02020   0.00000  Uiso   1.00
Cl501  Cl    0.93613   0.75628   0.45037   0.00000  Uiso   1.00
H502   H     0.76176   0.91346   0.03640   0.00000  Uiso   1.00
H503   H     0.76013   0.90995   0.40522   0.00000  Uiso   1.00
H504   H     0.84421   0.81947   0.40139   0.00000  Uiso   1.00
H505   H     0.79607   0.87982   0.07148   0.00000  Uiso   1.00
H506   H     0.88600   0.80254   0.42776   0.00000  Uiso   1.00
H507   H     0.93073   0.75269   0.02493   0.00000  Uiso   1.00
H508   H     0.68352   0.85970   0.21464   0.00000  Uiso   1.00
H509   H     0.98464   0.80763   0.28542   0.00000  Uiso   1.00
H510   H     0.87458   0.66943   0.21597   0.00000  Uiso   1.00
H511   H     0.79083   0.99894   0.28433   0.00000  Uiso   1.00
H512   H     0.81786   0.84205   0.10104   0.00000  Uiso   1.00
H513   H     0.91287   0.76332   0.09596   0.00000  Uiso   1.00
H514   H     0.74802   0.92505   0.47601   0.00000  Uiso   1.00
O515   O     0.83333   0.83333   0.25000   0.00000  Uiso   1.00
O516   O     0.82360   0.79060   0.16625   0.00000  Uiso   1.00
O517   O     0.79354   0.87313   0.33749   0.00000  Uiso   1.00
O518   O     0.87755   0.84159   0.15877   0.00000  Uiso   1.00
O519   O     0.83865   0.82802   0.33749   0.00000  Uiso   1.00
O520   O     0.84515   0.74768   0.27821   0.00000  Uiso   1.00
O521   O     0.81247   0.92803   0.26767   0.00000  Uiso   1.00
O522   O     0.74119   0.79917   0.23607   0.00000  Uiso   1.00
O523   O     0.93452   0.85845   0.21806   0.00000  Uiso   1.00
O524   O     0.73656   0.85627   0.27820   0.00000  Uiso   1.00
O525   O     0.92106   0.81944   0.26768   0.00000  Uiso   1.00
O526   O     0.80467   0.73570   0.23607   0.00000  Uiso   1.00
O527   O     0.87104   0.92193   0.21806   0.00000  Uiso   1.00
Zn528  Zn    0.85910   0.80756   0.28278   0.00000  Uiso   1.00
Zn529  Zn    0.80125   0.79044   0.22258   0.00000  Uiso   1.00
Zn530  Zn    0.87833   0.86331   0.21188   0.00000  Uiso   1.00
Zn531  Zn    0.79465   0.87202   0.28277   0.00000  Uiso   1.00
C532   C     0.05251   0.16001   0.75870   0.00000  Uiso   1.00
C533   C     0.20824   0.14071   0.95923   0.00000  Uiso   1.00
C534   C     0.22928   0.12101   0.97897   0.00000  Uiso   1.00
C535   C     0.28105   0.17357   0.74119   0.00000  Uiso   1.00
C536   C     0.21847   0.12643   0.52002   0.00000  Uiso   1.00
C537   C     0.18644   0.15299   0.54137   0.00000  Uiso   1.00
C538   C     0.23942   0.10614   0.54023   0.00000  Uiso   1.00
C539   C     0.22924   0.11186   0.58089   0.00000  Uiso   1.00
C540   C     0.17594   0.15705   0.58267   0.00000  Uiso   1.00
C541   C     0.32707   0.17615   0.73751   0.00000  Uiso   1.00
C542   C     0.00710   0.15775   0.76218   0.00000  Uiso   1.00
C543   C     0.10996   0.22698   0.91983   0.00000  Uiso   1.00
C544   C     0.18086   0.32216   0.73808   0.00000  Uiso   1.00
C545   C     0.15157   0.01210   0.76210   0.00000  Uiso   1.00
C546   C     0.15594   0.05614   0.75888   0.00000  Uiso   1.00
C547   C     0.17685   0.27767   0.74135   0.00000  Uiso   1.00
C548   C     0.18834   0.14523   0.64417   0.00000  Uiso   1.00
C549   C     0.14551   0.18780   0.85608   0.00000  Uiso   1.00
C550   C     0.13750   0.19732   0.89876   0.00000  Uiso   1.00
C551   C     0.19749   0.13717   0.60192   0.00000  Uiso   1.00
C552   C     0.10320   0.23567   0.96016   0.00000  Uiso   1.00
C553   C     0.15832   0.17669   0.91842   0.00000  Uiso   1.00
C554   C     0.15337   0.18603   0.95895   0.00000  Uiso   1.00
C555   C     0.12446   0.21536   0.97985   0.00000  Uiso   1.00
C556   C     0.17574   0.16667   0.97928   0.00000  Uiso   1.00
C557   C     0.16603   0.17439   0.52086   0.00000  Uiso   1.00
C558   C     0.13689   0.20394   0.54044   0.00000  Uiso   1.00
C559   C     0.11693   0.22419   0.52020   0.00000  Uiso   1.00
Cl560  Cl    0.26946   0.08961   0.95037   0.00000  Uiso   1.00
H561   H     0.09509   0.24679   0.53640   0.00000  Uiso   1.00
H562   H     0.09346   0.24329   0.90522   0.00000  Uiso   1.00
H563   H     0.17754   0.15280   0.90139   0.00000  Uiso   1.00
H564   H     0.12941   0.21315   0.57148   0.00000  Uiso   1.00
H565   H     0.21933   0.13587   0.92776   0.00000  Uiso   1.00
H566   H     0.26407   0.08603   0.52493   0.00000  Uiso   1.00
H567   H     0.01685   0.19303   0.71464   0.00000  Uiso   1.00
H568   H     0.31797   0.14096   0.78542   0.00000  Uiso   1.00
H569   H     0.20791   0.00276   0.71597   0.00000  Uiso   1.00
H570   H     0.12417   0.33228   0.78433   0.00000  Uiso   1.00
H571   H     0.15120   0.17538   0.60104   0.00000  Uiso   1.00
H572   H     0.24621   0.09665   0.59596   0.00000  Uiso   1.00
H573   H     0.08135   0.25838   0.97601   0.00000  Uiso   1.00
O574   O     0.16667   0.16667   0.75000   0.00000  Uiso   1.00
O575   O     0.15693   0.12393   0.66625   0.00000  Uiso   1.00
O576   O     0.12687   0.20646   0.83749   0.00000  Uiso   1.00
O577   O     0.21088   0.17493   0.65877   0.00000  Uiso   1.00
O578   O     0.17198   0.16135   0.83749   0.00000  Uiso   1.00
O579   O     0.17849   0.08101   0.77821   0.00000  Uiso   1.00
O580   O     0.14581   0.26136   0.76767   0.00000  Uiso   1.00
O581   O     0.07452   0.13251   0.73607   0.00000  Uiso   1.00
O582   O     0.26785   0.19179   0.71806   0.00000  Uiso   1.00
O583   O     0.06990   0.18960   0.77820   0.00000  Uiso   1.00
O584   O     0.25440   0.15277   0.76768   0.00000  Uiso   1.00
O585   O     0.13800   0.06903   0.73607   0.00000  Uiso   1.00
O586   O     0.20437   0.25527   0.71806   0.00000  Uiso   1.00
Zn587  Zn    0.19244   0.14090   0.78278   0.00000  Uiso   1.00
Zn588  Zn    0.13459   0.12378   0.72258   0.00000  Uiso   1.00
Zn589  Zn    0.21166   0.19664   0.71188   0.00000  Uiso   1.00
Zn590  Zn    0.12798   0.20535   0.78277   0.00000  Uiso   1.00
C591   C     0.38585   0.16001   0.75870   0.00000  Uiso   1.00
C592   C     0.54158   0.14071   0.95923   0.00000  Uiso   1.00
C593   C     0.56261   0.12101   0.97897   0.00000  Uiso   1.00
C594   C     0.61438   0.17357   0.74119   0.00000  Uiso   1.00
C595   C     0.55180   0.12643   0.52002   0.00000  Uiso   1.00
C596   C     0.51977   0.15299   0.54137   0.00000  Uiso   1.00
C597   C     0.57275   0.10614   0.54023   0.00000  Uiso   1.00
C598   C     0.56257   0.11186   0.58089   0.00000  Uiso   1.00
C599   C     0.50928   0.15705   0.58267   0.00000  Uiso   1.00
C600   C     0.66041   0.17615   0.73751   0.00000  Uiso   1.00
C601   C     0.34044   0.15775   0.76218   0.00000  Uiso   1.00
C602   C     0.44329   0.22698   0.91983   0.00000  Uiso   1.00
C603   C     0.51419   0.32216   0.73808   0.00000  Uiso   1.00
C604   C     0.48491   0.01210   0.76210   0.00000  Uiso   1.00
C605   C     0.48928   0.05614   0.75888   0.00000  Uiso   1.00
C606   C     0.51018   0.27767   0.74135   0.00000  Uiso   1.00
C607   C     0.52167   0.14523   0.64417   0.00000  Uiso   1.00
C608   C     0.47884   0.18780   0.85608   0.00000  Uiso   1.00
C609   C     0.47084   0.19732   0.89876   0.00000  Uiso   1.00
C610   C     0.53082   0.13717   0.60192   0.00000  Uiso   1.00
C611   C     0.43653   0.23567   0.96016   0.00000  Uiso   1.00
C612   C     0.49165   0.17669   0.91842   0.00000  Uiso   1.00
C613   C     0.48670   0.18603   0.95895   0.00000  Uiso   1.00
C614   C     0.45779   0.21536   0.97985   0.00000  Uiso   1.00
C615   C     0.50908   0.16667   0.97928   0.00000  Uiso   1.00
C616   C     0.49936   0.17439   0.52086   0.00000  Uiso   1.00
C617   C     0.47022   0.20394   0.54044   0.00000  Uiso   1.00
C618   C     0.45026   0.22419   0.52020   0.00000  Uiso   1.00
Cl619  Cl    0.60280   0.08961   0.95037   0.00000  Uiso   1.00
H620   H     0.42843   0.24679   0.53640   0.00000  Uiso   1.00
H621   H     0.42679   0.24329   0.90522   0.00000  Uiso   1.00
H622   H     0.51087   0.15280   0.90139   0.00000  Uiso   1.00
H623   H     0.46274   0.21315   0.57148   0.00000  Uiso   1.00
H624   H     0.55266   0.13587   0.92776   0.00000  Uiso   1.00
H625   H     0.59740   0.08603   0.52493   0.00000  Uiso   1.00
H626   H     0.35018   0.19303   0.71464   0.00000  Uiso   1.00
H627   H     0.65131   0.14096   0.78542   0.00000  Uiso   1.00
H628   H     0.54125   0.00276   0.71597   0.00000  Uiso   1.00
H629   H     0.45750   0.33228   0.78433   0.00000  Uiso   1.00
H630   H     0.48453   0.17538   0.60104   0.00000  Uiso   1.00
H631   H     0.57954   0.09665   0.59596   0.00000  Uiso   1.00
H632   H     0.41469   0.25838   0.97601   0.00000  Uiso   1.00
O633   O     0.50000   0.16667   0.75000   0.00000  Uiso   1.00
O634   O     0.49027   0.12393   0.66625   0.00000  Uiso   1.00
O635   O     0.46020   0.20646   0.83749   0.00000  Uiso   1.00
O636   O     0.54421   0.17493   0.65877   0.00000  Uiso   1.00
O637   O     0.50532   0.16135   0.83749   0.00000  Uiso   1.00
O638   O     0.51182   0.08101   0.77821   0.00000  Uiso   1.00
O639   O     0.47914   0.26136   0.76767   0.00000  Uiso   1.00
O640   O     0.40785   0.13251   0.73607   0.00000  Uiso   1.00
O641   O     0.60119   0.19179   0.71806   0.00000  Uiso   1.00
O642   O     0.40323   0.18960   0.77820   0.00000  Uiso   1.00
O643   O     0.58773   0.15277   0.76768   0.00000  Uiso   1.00
O644   O     0.47133   0.06903   0.73607   0.00000  Uiso   1.00
O645   O     0.53771   0.25527   0.71806   0.00000  Uiso   1.00
Zn646  Zn    0.52577   0.14090   0.78278   0.00000  Uiso   1.00
Zn647  Zn    0.46792   0.12378   0.72258   0.00000  Uiso   1.00
Zn648  Zn    0.54500   0.19664   0.71188   0.00000  Uiso   1.00
Zn649  Zn    0.46131   0.20535   0.78277   0.00000  Uiso   1.00
C650   C     0.71918   0.16001   0.75870   0.00000  Uiso   1.00
C651   C     0.87491   0.14071   0.95923   0.00000  Uiso   1.00
C652   C     0.89595   0.12101   0.97897   0.00000  Uiso   1.00
C653   C     0.94772   0.17357   0.74119   0.00000  Uiso   1.00
C654   C     0.88513   0.12643   0.52002   0.00000  Uiso   1.00
C655   C     0.85311   0.15299   0.54137   0.00000  Uiso   1.00
C656   C     0.90608   0.10614   0.54023   0.00000  Uiso   1.00
C657   C     0.89591   0.11186   0.58089   0.00000  Uiso   1.00
C658   C     0.84261   0.15705   0.58267   0.00000  Uiso   1.00
C659   C     0.99374   0.17615   0.73751   0.00000  Uiso   1.00
C660   C     0.67377   0.15775   0.76218   0.00000  Uiso   1.00
C661   C     0.77662   0.22698   0.91983   0.00000  Uiso   1.00
C662   C     0.84753   0.32216   0.73808   0.00000  Uiso   1.00
C663   C     0.81824   0.01210   0.76210   0.00000  Uiso   1.00
C664   C     0.82261   0.05614   0.75888   0.00000  Uiso   1.00
C665   C     0.84352   0.27767   0.74135   0.00000  Uiso   1.00
C666   C     0.85501   0.14523   0.64417   0.00000  Uiso   1.00
C667   C     0.81217   0.18780   0.85608   0.00000  Uiso   1.00
C668   C     0.80417   0.19732   0.89876   0.00000  Uiso   1.00
C669   C     0.86416   0.13717   0.60192   0.00000  Uiso   1.00
C670   C     0.76987   0.23567   0.96016   0.00000  Uiso   1.00
C671   C     0.82499   0.17669   0.91842   0.00000  Uiso   1.00
C672   C     0.82004   0.18603   0.95895   0.00000  Uiso   1.00
C673   C     0.79113   0.21536   0.97985   0.00000  Uiso   1.00
C674   C     0.84241   0.16667   0.97928   0.00000  Uiso   1.00
C675   C     0.83269   0.17439   0.52086   0.00000  Uiso   1.00
C676   C     0.80356   0.20394   0.54044   0.00000  Uiso   1.00
C677   C     0.78359   0.22419   0.52020   0.00000  Uiso   1.00
Cl678  Cl    0.93613   0.08961   0.95037   0.00000  Uiso   1.00
H679   H     0.76176   0.24679   0.53640   0.00000  Uiso   1.00
H680   H     0.76013   0.24329   0.90522   0.00000  Uiso   1.00
H681   H     0.84421   0.15280   0.90139   0.00000  Uiso   1.00
H682   H     0.79607   0.21315   0.57148   0.00000  Uiso   1.00
H683   H     0.88600   0.13587   0.92776   0.00000  Uiso   1.00
H684   H     0.93073   0.08603   0.52493   0.00000  Uiso   1.00
H685   H     0.68352   0.19303   0.71464   0.00000  Uiso   1.00
H686   H     0.98464   0.14096   0.78542   0.00000  Uiso   1.00
H687   H     0.87458   0.00276   0.71597   0.00000  Uiso   1.00
H688   H     0.79083   0.33228   0.78433   0.00000  Uiso   1.00
H689   H     0.81786   0.17538   0.60104   0.00000  Uiso   1.00
H690   H     0.91287   0.09665   0.59596   0.00000  Uiso   1.00
H691   H     0.74802   0.25838   0.97601   0.00000  Uiso   1.00
O692   O     0.83333   0.16667   0.75000   0.00000  Uiso   1.00
O693   O     0.82360   0.12393   0.66625   0.00000  Uiso   1.00
O694   O     0.79354   0.20646   0.83749   0.00000  Uiso   1.00
O695   O     0.87755   0.17493   0.65877   0.00000  Uiso   1.00
O696   O     0.83865   0.16135   0.83749   0.00000  Uiso   1.00
O697   O     0.84515   0.08101   0.77821   0.00000  Uiso   1.00
O698   O     0.81247   0.26136   0.76767   0.00000  Uiso   1.00
O699   O     0.74119   0.13251   0.73607   0.00000  Uiso   1.00
O700   O     0.93452   0.19179   0.71806   0.00000  Uiso   1.00
O701   O     0.73656   0.18960   0.77820   0.00000  Uiso   1.00
O702   O     0.92106   0.15277   0.76768   0.00000  Uiso   1.00
O703   O     0.80467   0.06903   0.73607   0.00000  Uiso   1.00
O704   O     0.87104   0.25527   0.71806   0.00000  Uiso   1.00
Zn705  Zn    0.85910   0.14090   0.78278   0.00000  Uiso   1.00
Zn706  Zn    0.80125   0.12378   0.72258   0.00000  Uiso   1.00
Zn707  Zn    0.87833   0.19664   0.71188   0.00000  Uiso   1.00
Zn708  Zn    0.79465   0.20535   0.78277   0.00000  Uiso   1.00
C709   C     0.05251   0.49334   0.75870   0.00000  Uiso   1.00
C710   C     0.20824   0.47404   0.95923   0.00000  Uiso   1.00
C711   C     0.22928   0.45434   0.97897   0.00000  Uiso   1.00
C712   C     0.28105   0.50691   0.74119   0.00000  Uiso   1.00
C713   C     0.21847   0.45977   0.52002   0.00000  Uiso   1.00
C714   C     0.18644   0.48632   0.54137   0.00000  Uiso   1.00
C715   C     0.23942   0.43948   0.54023   0.00000  Uiso   1.00
C716   C     0.22924   0.44520   0.58089   0.00000  Uiso   1.00
C717   C     0.17594   0.49038   0.58267   0.00000  Uiso   1.00
C718   C     0.32707   0.50948   0.73751   0.00000  Uiso   1.00
C719   C     0.00710   0.49108   0.76218   0.00000  Uiso   1.00
C720   C     0.10996   0.56031   0.91983   0.00000  Uiso   1.00
C721   C     0.18086   0.65549   0.73808   0.00000  Uiso   1.00
C722   C     0.15157   0.34544   0.76210   0.00000  Uiso   1.00
C723   C     0.15594   0.38948   0.75888   0.00000  Uiso   1.00
C724   C     0.17685   0.61100   0.74135   0.00000  Uiso   1.00
C725   C     0.18834   0.47856   0.64417   0.00000  Uiso   1.00
C726   C     0.14551   0.52113   0.85608   0.00000  Uiso   1.00
C727   C     0.13750   0.53066   0.89876   0.00000  Uiso   1.00
C728   C     0.19749   0.47050   0.60192   0.00000  Uiso   1.00
C729   C     0.10320   0.56901   0.96016   0.00000  Uiso   1.00
C730   C     0.15832   0.51003   0.91842   0.00000  Uiso   1.00
C731   C     0.15337   0.51936   0.95895   0.00000  Uiso   1.00
C732   C     0.12446   0.54870   0.97985   0.00000  Uiso   1.00
C733   C     0.17574   0.50000   0.97928   0.00000  Uiso   1.00
C734   C     0.16603   0.50773   0.52086   0.00000  Uiso   1.00
C735   C     0.13689   0.53727   0.54044   0.00000  Uiso   1.00
C736   C     0.11693   0.55752   0.52020   0.00000  Uiso   1.00
Cl737  Cl    0.26946   0.42295   0.95037   0.00000  Uiso   1.00
H738   H     0.09509   0.58013   0.53640   0.00000  Uiso   1.00
H739   H     0.09346   0.57662   0.90522   0.00000  Uiso   1.00
H740   H     0.17754   0.48614   0.90139   0.00000  Uiso   1.00
H741   H     0.12941   0.54649   0.57148   0.00000  Uiso   1.00
H742   H     0.21933   0.46920   0.92776   0.00000  Uiso   1.00
H743   H     0.26407   0.41936   0.52493   0.00000  Uiso   1.00
H744   H     0.01685   0.52636   0.71464   0.00000  Uiso   1.00
H745   H     0.31797   0.47430   0.78542   0.00000  Uiso   1.00
H746   H     0.20791   0.33609   0.71597   0.00000  Uiso   1.00
H747   H     0.12417   0.66561   0.78433   0.00000  Uiso   1.00
H748   H     0.15120   0.50872   0.60104   0.00000  Uiso   1.00
H749   H     0.24621   0.42999   0.59596   0.00000  Uiso   1.00
H750   H     0.08135   0.59171   0.97601   0.00000  Uiso   1.00
O751   O     0.16667   0.50000   0.75000   0.00000  Uiso   1.00
O752   O     0.15693   0.45726   0.66625   0.00000  Uiso   1.00
O753   O     0.12687   0.53979   0.83749   0.00000  Uiso   1.00
O754   O     0.21088   0.50826   0.65877   0.00000  Uiso   1.00
O755   O     0.17198   0.49468   0.83749   0.00000  Uiso   1.00
O756   O     0.17849   0.41434   0.77821   0.00000  Uiso   1.00
O757   O     0.14581   0.59469   0.76767   0.00000  Uiso   1.00
O758   O     0.07452   0.46584   0.73607   0.00000  Uiso   1.00
O759   O     0.26785   0.52512   0.71806   0.00000  Uiso   1.00
O760   O     0.06990   0.52293   0.77820   0.00000  Uiso   1.00
O761   O     0.25440   0.48610   0.76768   0.00000  Uiso   1.00
O762   O     0.13800   0.40236   0.73607   0.00000  Uiso   1.00
O763   O     0.20437   0.58860   0.71806   0.00000  Uiso   1.00
Zn764  Zn    0.19244   0.47423   0.78278   0.00000  Uiso   1.00
Zn765  Zn    0.13459   0.45711   0.72258   0.00000  Uiso   1.00
Zn766  Zn    0.21166   0.52997   0.71188   0.00000  Uiso   1.00
Zn767  Zn    0.12798   0.53868   0.78277   0.00000  Uiso   1.00
C768   C     0.38585   0.49334   0.75870   0.00000  Uiso   1.00
C769   C     0.54158   0.47404   0.95923   0.00000  Uiso   1.00
C770   C     0.56261   0.45434   0.97897   0.00000  Uiso   1.00
C771   C     0.61438   0.50691   0.74119   0.00000  Uiso   1.00
C772   C     0.55180   0.45977   0.52002   0.00000  Uiso   1.00
C773   C     0.51977   0.48632   0.54137   0.00000  Uiso   1.00
C774   C     0.57275   0.43948   0.54023   0.00000  Uiso   1.00
C775   C     0.56257   0.44520   0.58089   0.00000  Uiso   1.00
C776   C     0.50928   0.49038   0.58267   0.00000  Uiso   1.00
C777   C     0.66041   0.50948   0.73751   0.00000  Uiso   1.00
C778   C     0.34044   0.49108   0.76218   0.00000  Uiso   1.00
C779   C     0.44329   0.56031   0.91983   0.00000  Uiso   1.00
C780   C     0.51419   0.65549   0.73808   0.00000  Uiso   1.00
C781   C     0.48491   0.34544   0.76210   0.00000  Uiso   1.00
C782   C     0.48928   0.38948   0.75888   0.00000  Uiso   1.00
C783   C     0.51018   0.61100   0.74135   0.00000  Uiso   1.00
C784   C     0.52167   0.47856   0.64417   0.00000  Uiso   1.00
C785   C     0.47884   0.52113   0.85608   0.00000  Uiso   1.00
C786   C     0.47084   0.53066   0.89876   0.00000  Uiso   1.00
C787   C     0.53082   0.47050   0.60192   0.00000  Uiso   1.00
C788   C     0.43653   0.56901   0.96016   0.00000  Uiso   1.00
C789   C     0.49165   0.51003   0.91842   0.00000  Uiso   1.00
C790   C     0.48670   0.51936   0.95895   0.00000  Uiso   1.00
C791   C     0.45779   0.54870   0.97985   0.00000  Uiso   1.00
C792   C     0.50908   0.50000   0.97928   0.00000  Uiso   1.00
C793   C     0.49936   0.50773   0.52086   0.00000  Uiso   1.00
C794   C     0.47022   0.53727   0.54044   0.00000  Uiso   1.00
C795   C     0.45026   0.55752   0.52020   0.00000  Uiso   1.00
Cl796  Cl    0.60280   0.42295   0.95037   0.00000  Uiso   1.00
H797   H     0.42843   0.58013   0.53640   0.00000  Uiso   1.00
H798   H     0.42679   0.57662   0.90522   0.00000  Uiso   1.00
H799   H     0.51087   0.48614   0.90139   0.00000  Uiso   1.00
H800   H     0.46274   0.54649   0.57148   0.00000  Uiso   1.00
H801   H     0.55266   0.46920   0.92776   0.00000  Uiso   1.00
H802   H     0.59740   0.41936   0.52493   0.00000  Uiso   1.00
H803   H     0.35018   0.52636   0.71464   0.00000  Uiso   1.00
H804   H     0.65131   0.47430   0.78542   0.00000  Uiso   1.00
H805   H     0.54125   0.33609   0.71597   0.00000  Uiso   1.00
H806   H     0.45750   0.66561   0.78433   0.00000  Uiso   1.00
H807   H     0.48453   0.50872   0.60104   0.00000  Uiso   1.00
H808   H     0.57954   0.42999   0.59596   0.00000  Uiso   1.00
H809   H     0.41469   0.59171   0.97601   0.00000  Uiso   1.00
O810   O     0.50000   0.50000   0.75000   0.00000  Uiso   1.00
O811   O     0.49027   0.45726   0.66625   0.00000  Uiso   1.00
O812   O     0.46020   0.53979   0.83749   0.00000  Uiso   1.00
O813   O     0.54421   0.50826   0.65877   0.00000  Uiso   1.00
O814   O     0.50532   0.49468   0.83749   0.00000  Uiso   1.00
O815   O     0.51182   0.41434   0.77821   0.00000  Uiso   1.00
O816   O     0.47914   0.59469   0.76767   0.00000  Uiso   1.00
O817   O     0.40785   0.46584   0.73607   0.00000  Uiso   1.00
O818   O     0.60119   0.52512   0.71806   0.00000  Uiso   1.00
O819   O     0.40323   0.52293   0.77820   0.00000  Uiso   1.00
O820   O     0.58773   0.48610   0.76768   0.00000  Uiso   1.00
O821   O     0.47133   0.40236   0.73607   0.00000  Uiso   1.00
O822   O     0.53771   0.58860   0.71806   0.00000  Uiso   1.00
Zn823  Zn    0.52577   0.47423   0.78278   0.00000  Uiso   1.00
Zn824  Zn    0.46792   0.45711   0.72258   0.00000  Uiso   1.00
Zn825  Zn    0.54500   0.52997   0.71188   0.00000  Uiso   1.00
Zn826  Zn    0.46131   0.53868   0.78277   0.00000  Uiso   1.00
C827   C     0.71918   0.49334   0.75870   0.00000  Uiso   1.00
C828   C     0.87491   0.47404   0.95923   0.00000  Uiso   1.00
C829   C     0.89595   0.45434   0.97897   0.00000  Uiso   1.00
C830   C     0.94772   0.50691   0.74119   0.00000  Uiso   1.00
C831   C     0.88513   0.45977   0.52002   0.00000  Uiso   1.00
C832   C     0.85311   0.48632   0.54137   0.00000  Uiso   1.00
C833   C     0.90608   0.43948   0.54023   0.00000  Uiso   1.00
C834   C     0.89591   0.44520   0.58089   0.00000  Uiso   1.00
C835   C     0.84261   0.49038   0.58267   0.00000  Uiso   1.00
C836   C     0.99374   0.50948   0.73751   0.00000  Uiso   1.00
C837   C     0.67377   0.49108   0.76218   0.00000  Uiso   1.00
C838   C     0.77662   0.56031   0.91983   0.00000  Uiso   1.00
C839   C     0.84753   0.65549   0.73808   0.00000  Uiso   1.00
C840   C     0.81824   0.34544   0.76210   0.00000  Uiso   1.00
C841   C     0.82261   0.38948   0.75888   0.00000  Uiso   1.00
C842   C     0.84352   0.61100   0.74135   0.00000  Uiso   1.00
C843   C     0.85501   0.47856   0.64417   0.00000  Uiso   1.00
C844   C     0.81217   0.52113   0.85608   0.00000  Uiso   1.00
C845   C     0.80417   0.53066   0.89876   0.00000  Uiso   1.00
C846   C     0.86416   0.47050   0.60192   0.00000  Uiso   1.00
C847   C     0.76987   0.56901   0.96016   0.00000  Uiso   1.00
C848   C     0.82499   0.51003   0.91842   0.00000  Uiso   1.00
C849   C     0.82004   0.51936   0.95895   0.00000  Uiso   1.00
C850   C     0.79113   0.54870   0.97985   0.00000  Uiso   1.00
C851   C     0.84241   0.50000   0.97928   0.00000  Uiso   1.00
C852   C     0.83269   0.50773   0.52086   0.00000  Uiso   1.00
C853   C     0.80356   0.53727   0.54044   0.00000  Uiso   1.00
C854   C     0.78359   0.55752   0.52020   0.00000  Uiso   1.00
Cl855  Cl    0.93613   0.42295   0.95037   0.00000  Uiso   1.00
H856   H     0.76176   0.58013   0.53640   0.00000  Uiso   1.00
H857   H     0.76013   0.57662   0.90522   0.00000  Uiso   1.00
H858   H     0.84421   0.48614   0.90139   0.00000  Uiso   1.00
H859   H     0.79607   0.54649   0.57148   0.00000  Uiso   1.00
H860   H     0.88600   0.46920   0.92776   0.00000  Uiso   1.00
H861   H     0.93073   0.41936   0.52493   0.00000  Uiso   1.00
H862   H     0.68352   0.52636   0.71464   0.00000  Uiso   1.00
H863   H     0.98464   0.47430   0.78542   0.00000  Uiso   1.00
H864   H     0.87458   0.33609   0.71597   0.00000  Uiso   1.00
H865   H     0.79083   0.66561   0.78433   0.00000  Uiso   1.00
H866   H     0.81786   0.50872   0.60104   0.00000  Uiso   1.00
H867   H     0.91287   0.42999   0.59596   0.00000  Uiso   1.00
H868   H     0.74802   0.59171   0.97601   0.00000  Uiso   1.00
O869   O     0.83333   0.50000   0.75000   0.00000  Uiso   1.00
O870   O     0.82360   0.45726   0.66625   0.00000  Uiso   1.00
O871   O     0.79354   0.53979   0.83749   0.00000  Uiso   1.00
O872   O     0.87755   0.50826   0.65877   0.00000  Uiso   1.00
O873   O     0.83865   0.49468   0.83749   0.00000  Uiso   1.00
O874   O     0.84515   0.41434   0.77821   0.00000  Uiso   1.00
O875   O     0.81247   0.59469   0.76767   0.00000  Uiso   1.00
O876   O     0.74119   0.46584   0.73607   0.00000  Uiso   1.00
O877   O     0.93452   0.52512   0.71806   0.00000  Uiso   1.00
O878   O     0.73656   0.52293   0.77820   0.00000  Uiso   1.00
O879   O     0.92106   0.48610   0.76768   0.00000  Uiso   1.00
O880   O     0.80467   0.40236   0.73607   0.00000  Uiso   1.00
O881   O     0.87104   0.58860   0.71806   0.00000  Uiso   1.00
Zn882  Zn    0.85910   0.47423   0.78278   0.00000  Uiso   1.00
Zn883  Zn    0.80125   0.45711   0.72258   0.00000  Uiso   1.00
Zn884  Zn    0.87833   0.52997   0.71188   0.00000  Uiso   1.00
Zn885  Zn    0.79465   0.53868   0.78277   0.00000  Uiso   1.00
C886   C     0.05251   0.82668   0.75870   0.00000  Uiso   1.00
C887   C     0.20824   0.80738   0.95923   0.00000  Uiso   1.00
C888   C     0.22928   0.78767   0.97897   0.00000  Uiso   1.00
C889   C     0.28105   0.84024   0.74119   0.00000  Uiso   1.00
C890   C     0.21847   0.79310   0.52002   0.00000  Uiso   1.00
C891   C     0.18644   0.81966   0.54137   0.00000  Uiso   1.00
C892   C     0.23942   0.77281   0.54023   0.00000  Uiso   1.00
C893   C     0.22924   0.77853   0.58089   0.00000  Uiso   1.00
C894   C     0.17594   0.82371   0.58267   0.00000  Uiso   1.00
C895   C     0.32707   0.84281   0.73751   0.00000  Uiso   1.00
C896   C     0.00710   0.82442   0.76218   0.00000  Uiso   1.00
C897   C     0.10996   0.89365   0.91983   0.00000  Uiso   1.00
C898   C     0.18086   0.98883   0.73808   0.00000  Uiso   1.00
C899   C     0.15157   0.67877   0.76210   0.00000  Uiso   1.00
C900   C     0.15594   0.72281   0.75888   0.00000  Uiso   1.00
C901   C     0.17685   0.94434   0.74135   0.00000  Uiso   1.00
C902   C     0.18834   0.81189   0.64417   0.00000  Uiso   1.00
C903   C     0.14551   0.85447   0.85608   0.00000  Uiso   1.00
C904   C     0.13750   0.86399   0.89876   0.00000  Uiso   1.00
C905   C     0.19749   0.80383   0.60192   0.00000  Uiso   1.00
C906   C     0.10320   0.90234   0.96016   0.00000  Uiso   1.00
C907   C     0.15832   0.84336   0.91842   0.00000  Uiso   1.00
C908   C     0.15337   0.85270   0.95895   0.00000  Uiso   1.00
C909   C     0.12446   0.88203   0.97985   0.00000  Uiso   1.00
C910   C     0.17574   0.83334   0.97928   0.00000  Uiso   1.00
C911   C     0.16603   0.84106   0.52086   0.00000  Uiso   1.00
C912   C     0.13689   0.87061   0.54044   0.00000  Uiso   1.00
C913   C     0.11693   0.89086   0.52020   0.00000  Uiso   1.00
Cl914  Cl    0.26946   0.75628   0.95037   0.00000  Uiso   1.00
H915   H     0.09509   0.91346   0.53640   0.00000  Uiso   1.00
H916   H     0.09346   0.90995   0.90522   0.00000  Uiso   1.00
H917   H     0.17754   0.81947   0.90139   0.00000  Uiso   1.00
H918   H     0.12941   0.87982   0.57148   0.00000  Uiso   1.00
H919   H     0.21933   0.80254   0.92776   0.00000  Uiso   1.00
H920   H     0.26407   0.75269   0.52493   0.00000  Uiso   1.00
H921   H     0.01685   0.85970   0.71464   0.00000  Uiso   1.00
H922   H     0.31797   0.80763   0.78542   0.00000  Uiso   1.00
H923   H     0.20791   0.66943   0.71597   0.00000  Uiso   1.00
H924   H     0.12417   0.99894   0.78433   0.00000  Uiso   1.00
H925   H     0.15120   0.84205   0.60104   0.00000  Uiso   1.00
H926   H     0.24621   0.76332   0.59596   0.00000  Uiso   1.00
H927   H     0.08135   0.92505   0.97601   0.00000  Uiso   1.00
O928   O     0.16667   0.83333   0.75000   0.00000  Uiso   1.00
O929   O     0.15693   0.79060   0.66625   0.00000  Uiso   1.00
O930   O     0.12687   0.87313   0.83749   0.00000  Uiso   1.00
O931   O     0.21088   0.84159   0.65877   0.00000  Uiso   1.00
O932   O     0.17198   0.82802   0.83749   0.00000  Uiso   1.00
O933   O     0.17849   0.74768   0.77821   0.00000  Uiso   1.00
O934   O     0.14581   0.92803   0.76767   0.00000  Uiso   1.00
O935   O     0.07452   0.79917   0.73607   0.00000  Uiso   1.00
O936   O     0.26785   0.85845   0.71806   0.00000  Uiso   1.00
O937   O     0.06990   0.85627   0.77820   0.00000  Uiso   1.00
O938   O     0.25440   0.81944   0.76768   0.00000  Uiso   1.00
O939   O     0.13800   0.73570   0.73607   0.00000  Uiso   1.00
O940   O     0.20437   0.92193   0.71806   0.00000  Uiso   1.00
Zn941  Zn    0.19244   0.80756   0.78278   0.00000  Uiso   1.00
Zn942  Zn    0.13459   0.79044   0.72258   0.00000  Uiso   1.00
Zn943  Zn    0.21166   0.86331   0.71188   0.00000  Uiso   1.00
Zn944  Zn    0.12798   0.87202   0.78277   0.00000  Uiso   1.00
C945   C     0.38585   0.82668   0.75870   0.00000  Uiso   1.00
C946   C     0.54158   0.80738   0.95923   0.00000  Uiso   1.00
C947   C     0.56261   0.78767   0.97897   0.00000  Uiso   1.00
C948   C     0.61438   0.84024   0.74119   0.00000  Uiso   1.00
C949   C     0.55180   0.79310   0.52002   0.00000  Uiso   1.00
C950   C     0.51977   0.81966   0.54137   0.00000  Uiso   1.00
C951   C     0.57275   0.77281   0.54023   0.00000  Uiso   1.00
C952   C     0.56257   0.77853   0.58089   0.00000  Uiso   1.00
C953   C     0.50928   0.82371   0.58267   0.00000  Uiso   1.00
C954   C     0.66041   0.84281   0.73751   0.00000  Uiso   1.00
C955   C     0.34044   0.82442   0.76218   0.00000  Uiso   1.00
C956   C     0.44329   0.89365   0.91983   0.00000  Uiso   1.00
C957   C     0.51419   0.98883   0.73808   0.00000  Uiso   1.00
C958   C     0.48491   0.67877   0.76210   0.00000  Uiso   1.00
C959   C     0.48928   0.72281   0.75888   0.00000  Uiso   1.00
C960   C     0.51018   0.94434   0.74135   0.00000  Uiso   1.00
C961   C     0.52167   0.81189   0.64417   0.00000  Uiso   1.00
C962   C     0.47884   0.85447   0.85608   0.00000  Uiso   1.00
C963   C     0.47084   0.86399   0.89876   0.00000  Uiso   1.00
C964   C     0.53082   0.80383   0.60192   0.00000  Uiso   1.00
C965   C     0.43653   0.90234   0.96016   0.00000  Uiso   1.00
C966   C     0.49165   0.84336   0.91842   0.00000  Uiso   1.00
C967   C     0.48670   0.85270   0.95895   0.00000  Uiso   1.00
C968   C     0.45779   0.88203   0.97985   0.00000  Uiso   1.00
C969   C     0.50908   0.83334   0.97928   0.00000  Uiso   1.00
C970   C     0.49936   0.84106   0.52086   0.00000  Uiso   1.00
C971   C     0.47022   0.87061   0.54044   0.00000  Uiso   1.00
C972   C     0.45026   0.89086   0.52020   0.00000  Uiso   1.00
Cl973  Cl    0.60280   0.75628   0.95037   0.00000  Uiso   1.00
H974   H     0.42843   0.91346   0.53640   0.00000  Uiso   1.00
H975   H     0.42679   0.90995   0.90522   0.00000  Uiso   1.00
H976   H     0.51087   0.81947   0.90139   0.00000  Uiso   1.00
H977   H     0.46274   0.87982   0.57148   0.00000  Uiso   1.00
H978   H     0.55266   0.80254   0.92776   0.00000  Uiso   1.00
H979   H     0.59740   0.75269   0.52493   0.00000  Uiso   1.00
H980   H     0.35018   0.85970   0.71464   0.00000  Uiso   1.00
H981   H     0.65131   0.80763   0.78542   0.00000  Uiso   1.00
H982   H     0.54125   0.66943   0.71597   0.00000  Uiso   1.00
H983   H     0.45750   0.99894   0.78433   0.00000  Uiso   1.00
H984   H     0.48453   0.84205   0.60104   0.00000  Uiso   1.00
H985   H     0.57954   0.76332   0.59596   0.00000  Uiso   1.00
H986   H     0.41469   0.92505   0.97601   0.00000  Uiso   1.00
O987   O     0.50000   0.83333   0.75000   0.00000  Uiso   1.00
O988   O     0.49027   0.79060   0.66625   0.00000  Uiso   1.00
O989   O     0.46020   0.87313   0.83749   0.00000  Uiso   1.00
O990   O     0.54421   0.84159   0.65877   0.00000  Uiso   1.00
O991   O     0.50532   0.82802   0.83749   0.00000  Uiso   1.00
O992   O     0.51182   0.74768   0.77821   0.00000  Uiso   1.00
O993   O     0.47914   0.92803   0.76767   0.00000  Uiso   1.00
O994   O     0.40785   0.79917   0.73607   0.00000  Uiso   1.00
O995   O     0.60119   0.85845   0.71806   0.00000  Uiso   1.00
O996   O     0.40323   0.85627   0.77820   0.00000  Uiso   1.00
O997   O     0.58773   0.81944   0.76768   0.00000  Uiso   1.00
O998   O     0.47133   0.73570   0.73607   0.00000  Uiso   1.00
O999   O     0.53771   0.92193   0.71806   0.00000  Uiso   1.00
Zn1000 Zn    0.52577   0.80756   0.78278   0.00000  Uiso   1.00
Zn1001 Zn    0.46792   0.79044   0.72258   0.00000  Uiso   1.00
Zn1002 Zn    0.54500   0.86331   0.71188   0.00000  Uiso   1.00
Zn1003 Zn    0.46131   0.87202   0.78277   0.00000  Uiso   1.00
C1004  C     0.71918   0.82668   0.75870   0.00000  Uiso   1.00
C1005  C     0.87491   0.80738   0.95923   0.00000  Uiso   1.00
C1006  C     0.89595   0.78767   0.97897   0.00000  Uiso   1.00
C1007  C     0.94772   0.84024   0.74119   0.00000  Uiso   1.00
C1008  C     0.88513   0.79310   0.52002   0.00000  Uiso   1.00
C1009  C     0.85311   0.81966   0.54137   0.00000  Uiso   1.00
C1010  C     0.90608   0.77281   0.54023   0.00000  Uiso   1.00
C1011  C     0.89591   0.77853   0.58089   0.00000  Uiso   1.00
C1012  C     0.84261   0.82371   0.58267   0.00000  Uiso   1.00
C1013  C     0.99374   0.84281   0.73751   0.00000  Uiso   1.00
C1014  C     0.67377   0.82442   0.76218   0.00000  Uiso   1.00
C1015  C     0.77662   0.89365   0.91983   0.00000  Uiso   1.00
C1016  C     0.84753   0.98883   0.73808   0.00000  Uiso   1.00
C1017  C     0.81824   0.67877   0.76210   0.00000  Uiso   1.00
C1018  C     0.82261   0.72281   0.75888   0.00000  Uiso   1.00
C1019  C     0.84352   0.94434   0.74135   0.00000  Uiso   1.00
C1020  C     0.85501   0.81189   0.64417   0.00000  Uiso   1.00
C1021  C     0.81217   0.85447   0.85608   0.00000  Uiso   1.00
C1022  C     0.80417   0.86399   0.89876   0.00000  Uiso   1.00
C1023  C     0.86416   0.80383   0.60192   0.00000  Uiso   1.00
C1024  C     0.76987   0.90234   0.96016   0.00000  Uiso   1.00
C1025  C     0.82499   0.84336   0.91842   0.00000  Uiso   1.00
C1026  C     0.82004   0.85270   0.95895   0.00000  Uiso   1.00
C1027  C     0.79113   0.88203   0.97985   0.00000  Uiso   1.00
C1028  C     0.84241   0.83334   0.97928   0.00000  Uiso   1.00
C1029  C     0.83269   0.84106   0.52086   0.00000  Uiso   1.00
C1030  C     0.80356   0.87061   0.54044   0.00000  Uiso   1.00
C1031  C     0.78359   0.89086   0.52020   0.00000  Uiso   1.00
Cl1032 Cl    0.93613   0.75628   0.95037   0.00000  Uiso   1.00
H1033  H     0.76176   0.91346   0.53640   0.00000  Uiso   1.00
H1034  H     0.76013   0.90995   0.90522   0.00000  Uiso   1.00
H1035  H     0.84421   0.81947   0.90139   0.00000  Uiso   1.00
H1036  H     0.79607   0.87982   0.57148   0.00000  Uiso   1.00
H1037  H     0.88600   0.80254   0.92776   0.00000  Uiso   1.00
H1038  H     0.93073   0.75269   0.52493   0.00000  Uiso   1.00
H1039  H     0.68352   0.85970   0.71464   0.00000  Uiso   1.00
H1040  H     0.98464   0.80763   0.78542   0.00000  Uiso   1.00
H1041  H     0.87458   0.66943   0.71597   0.00000  Uiso   1.00
H1042  H     0.79083   0.99894   0.78433   0.00000  Uiso   1.00
H1043  H     0.81786   0.84205   0.60104   0.00000  Uiso   1.00
H1044  H     0.91287   0.76332   0.59596   0.00000  Uiso   1.00
H1045  H     0.74802   0.92505   0.97601   0.00000  Uiso   1.00
O1046  O     0.83333   0.83333   0.75000   0.00000  Uiso   1.00
O1047  O     0.82360   0.79060   0.66625   0.00000  Uiso   1.00
O1048  O     0.79354   0.87313   0.83749   0.00000  Uiso   1.00
O1049  O     0.87755   0.84159   0.65877   0.00000  Uiso   1.00
O1050  O     0.83865   0.82802   0.83749   0.00000  Uiso   1.00
O1051  O     0.84515   0.74768   0.77821   0.00000  Uiso   1.00
O1052  O     0.81247   0.92803   0.76767   0.00000  Uiso   1.00
O1053  O     0.74119   0.79917   0.73607   0.00000  Uiso   1.00
O1054  O     0.93452   0.85845   0.71806   0.00000  Uiso   1.00
O1055  O     0.73656   0.85627   0.77820   0.00000  Uiso   1.00
O1056  O     0.92106   0.81944   0.76768   0.00000  Uiso   1.00
O1057  O     0.80467   0.73570   0.73607   0.00000  Uiso   1.00
O1058  O     0.87104   0.92193   0.71806   0.00000  Uiso   1.00
Zn1059 Zn    0.85910   0.80756   0.78278   0.00000  Uiso   1.00
Zn1060 Zn    0.80125   0.79044   0.72258   0.00000  Uiso   1.00
Zn1061 Zn    0.87833   0.86331   0.71188   0.00000  Uiso   1.00
Zn1062 Zn    0.79465   0.87202   0.78277   0.00000  Uiso   1.00
loop_
_geom_bond_atom_site_label_1
_geom_bond_atom_site_label_2
_geom_bond_distance
_geom_bond_site_symmetry_2
_ccdc_geom_bond_type
C1     O50     1.271   .     A
C1     C11     1.438   .     S
C1     O52     1.271   .     A
C2     H34     1.076   .     S
C2     C3      1.387   .     A
C2     C25     1.413   .     A
C3     Cl29    1.767   .     S
C3     C536    1.401   .     S
C4     O53     1.279   .     A
C4     O51     1.283   .     A
C4     C10     1.456   .     S
C5     C7      1.409   .     A
C5     C6      1.426   .     A
C5     C534    1.401   1_554 S
C6     C9      1.411   .     A
C6     C26     1.427   .     A
C7     C8      1.389   .     A
C7     H35     1.082   .     S
C8     C20     1.391   .     A
C8     H41     1.084   .     S
C9     C20     1.390   .     A
C9     H40     1.077   .     S
C10    C70     1.335   .     S
C10    H95     1.087   .     S
C11    C128    1.335   1_455 S
C11    H155    1.086   1_455 S
C12    C21     1.392   .     A
C12    C19     1.400   .     A
C12    H31     1.083   .     S
C13    C16     1.452   .     S
C13    C191    1.332   .     S
C13    H215    1.088   .     S
C14    C15     1.436   .     S
C14    C367    1.332   1_545 S
C14    H393    1.086   1_545 S
C15    O54     1.279   .     A
C15    O48     1.279   .     A
C16    O55     1.271   .     A
C16    O49     1.271   .     A
C17    O44     1.273   .     A
C17    O46     1.272   .     A
C17    C20     1.449   .     S
C18    O47     1.284   .     A
C18    O45     1.282   .     A
C18    C19     1.471   .     S
C19    C22     1.399   .     A
C21    C24     1.403   .     A
C21    H42     1.084   .     S
C22    H32     1.075   .     S
C22    C23     1.408   .     A
C23    C24     1.418   .     A
C23    C25     1.427   .     A
C24    C559    1.390   .     S
C25    C557    1.424   .     S
C26    C27     1.417   .     A
C26    C556    1.424   1_554 S
C27    H33     1.076   .     S
C27    C28     1.387   .     A
C28    H30     1.084   .     S
C28    C555    1.390   1_554 S
H36    C128    1.087   1_455 S
H37    C70     1.086   .     S
H38    C367    1.088   1_545 S
H39    C191    1.086   .     S
O43    Zn59    1.933   .     S
O43    Zn56    1.963   .     S
O43    Zn57    1.945   .     S
O43    Zn58    1.935   .     S
O44    Zn57    1.937   .     S
O45    Zn59    1.948   .     S
O46    Zn58    1.942   .     S
O47    Zn56    1.932   .     S
O48    Zn56    1.928   .     S
O49    Zn59    1.931   .     S
O50    Zn57    1.926   .     S
O51    Zn58    1.937   .     S
O52    Zn59    1.933   .     S
O53    Zn56    1.923   .     S
O54    Zn57    1.937   .     S
O55    Zn58    1.930   .     S
C60    O109    1.271   .     A
C60    C70     1.438   .     S
C60    O111    1.271   .     A
C61    H93     1.076   .     S
C61    C62     1.387   .     A
C61    C84     1.413   .     A
C62    Cl88    1.767   .     S
C62    C595    1.401   .     S
C63    O112    1.279   .     A
C63    O110    1.283   .     A
C63    C69     1.456   .     S
C64    C66     1.409   .     A
C64    C65     1.426   .     A
C64    C593    1.401   1_554 S
C65    C68     1.411   .     A
C65    C85     1.427   .     A
C66    C67     1.389   .     A
C66    H94     1.082   .     S
C67    C79     1.391   .     A
C67    H100    1.084   .     S
C68    C79     1.390   .     A
C68    H99     1.077   .     S
C69    C129    1.335   .     S
C69    H154    1.087   .     S
C71    C80     1.392   .     A
C71    C78     1.400   .     A
C71    H90     1.083   .     S
C72    C75     1.452   .     S
C72    C250    1.332   .     S
C72    H274    1.088   .     S
C73    C74     1.436   .     S
C73    C426    1.332   1_545 S
C73    H452    1.086   1_545 S
C74    O113    1.279   .     A
C74    O107    1.279   .     A
C75    O114    1.271   .     A
C75    O108    1.271   .     A
C76    O103    1.273   .     A
C76    O105    1.272   .     A
C76    C79     1.449   .     S
C77    O106    1.284   .     A
C77    O104    1.282   .     A
C77    C78     1.471   .     S
C78    C81     1.399   .     A
C80    C83     1.403   .     A
C80    H101    1.084   .     S
C81    H91     1.075   .     S
C81    C82     1.408   .     A
C82    C83     1.418   .     A
C82    C84     1.427   .     A
C83    C618    1.390   .     S
C84    C616    1.424   .     S
C85    C86     1.417   .     A
C85    C615    1.424   1_554 S
C86    H92     1.076   .     S
C86    C87     1.387   .     A
C87    H89     1.084   .     S
C87    C614    1.390   1_554 S
H96    C129    1.086   .     S
H97    C426    1.088   1_545 S
H98    C250    1.086   .     S
O102   Zn118   1.933   .     S
O102   Zn115   1.963   .     S
O102   Zn116   1.945   .     S
O102   Zn117   1.935   .     S
O103   Zn116   1.937   .     S
O104   Zn118   1.948   .     S
O105   Zn117   1.942   .     S
O106   Zn115   1.932   .     S
O107   Zn115   1.928   .     S
O108   Zn118   1.931   .     S
O109   Zn116   1.926   .     S
O110   Zn117   1.937   .     S
O111   Zn118   1.933   .     S
O112   Zn115   1.923   .     S
O113   Zn116   1.937   .     S
O114   Zn117   1.930   .     S
C119   O168    1.271   .     A
C119   C129    1.438   .     S
C119   O170    1.271   .     A
C120   H152    1.076   .     S
C120   C121    1.387   .     A
C120   C143    1.413   .     A
C121   Cl147   1.767   .     S
C121   C654    1.401   .     S
C122   O171    1.279   .     A
C122   O169    1.283   .     A
C122   C128    1.456   .     S
C123   C125    1.409   .     A
C123   C124    1.426   .     A
C123   C652    1.401   1_554 S
C124   C127    1.411   .     A
C124   C144    1.427   .     A
C125   C126    1.389   .     A
C125   H153    1.082   .     S
C126   C138    1.391   .     A
C126   H159    1.084   .     S
C127   C138    1.390   .     A
C127   H158    1.077   .     S
C128   C11     1.335   1_655 S
C128   H36     1.087   1_655 S
C130   C139    1.392   .     A
C130   C137    1.400   .     A
C130   H149    1.083   .     S
C131   C134    1.452   .     S
C131   C309    1.332   .     S
C131   H333    1.088   .     S
C132   C133    1.436   .     S
C132   C485    1.332   1_545 S
C132   H511    1.086   1_545 S
C133   O172    1.279   .     A
C133   O166    1.279   .     A
C134   O173    1.271   .     A
C134   O167    1.271   .     A
C135   O162    1.273   .     A
C135   O164    1.272   .     A
C135   C138    1.449   .     S
C136   O165    1.284   .     A
C136   O163    1.282   .     A
C136   C137    1.471   .     S
C137   C140    1.399   .     A
C139   C142    1.403   .     A
C139   H160    1.084   .     S
C140   H150    1.075   .     S
C140   C141    1.408   .     A
C141   C142    1.418   .     A
C141   C143    1.427   .     A
C142   C677    1.390   .     S
C143   C675    1.424   .     S
C144   C145    1.417   .     A
C144   C674    1.424   1_554 S
C145   H151    1.076   .     S
C145   C146    1.387   .     A
C146   H148    1.084   .     S
C146   C673    1.390   1_554 S
H155   C11     1.086   1_655 S
H156   C485    1.088   1_545 S
H157   C309    1.086   .     S
O161   Zn177   1.933   .     S
O161   Zn174   1.963   .     S
O161   Zn175   1.945   .     S
O161   Zn176   1.935   .     S
O162   Zn175   1.937   .     S
O163   Zn177   1.948   .     S
O164   Zn176   1.942   .     S
O165   Zn174   1.932   .     S
O166   Zn174   1.928   .     S
O167   Zn177   1.931   .     S
O168   Zn175   1.926   .     S
O169   Zn176   1.937   .     S
O170   Zn177   1.933   .     S
O171   Zn174   1.923   .     S
O172   Zn175   1.937   .     S
O173   Zn176   1.930   .     S
C178   O227    1.271   .     A
C178   C188    1.438   .     S
C178   O229    1.271   .     A
C179   H211    1.076   .     S
C179   C180    1.387   .     A
C179   C202    1.413   .     A
C180   Cl206   1.767   .     S
C180   C713    1.401   .     S
C181   O230    1.279   .     A
C181   O228    1.283   .     A
C181   C187    1.456   .     S
C182   C184    1.409   .     A
C182   C183    1.426   .     A
C182   C711    1.401   1_554 S
C183   C186    1.411   .     A
C183   C203    1.427   .     A
C184   C185    1.389   .     A
C184   H212    1.082   .     S
C185   C197    1.391   .     A
C185   H218    1.084   .     S
C186   C197    1.390   .     A
C186   H217    1.077   .     S
C187   C247    1.335   .     S
C187   H272    1.087   .     S
C188   C305    1.335   1_455 S
C188   H332    1.086   1_455 S
C189   C198    1.392   .     A
C189   C196    1.400   .     A
C189   H208    1.083   .     S
C190   C193    1.452   .     S
C190   C368    1.332   .     S
C190   H392    1.088   .     S
C191   C192    1.436   .     S
C192   O231    1.279   .     A
C192   O225    1.279   .     A
C193   O232    1.271   .     A
C193   O226    1.271   .     A
C194   O221    1.273   .     A
C194   O223    1.272   .     A
C194   C197    1.449   .     S
C195   O224    1.284   .     A
C195   O222    1.282   .     A
C195   C196    1.471   .     S
C196   C199    1.399   .     A
C198   C201    1.403   .     A
C198   H219    1.084   .     S
C199   H209    1.075   .     S
C199   C200    1.408   .     A
C200   C201    1.418   .     A
C200   C202    1.427   .     A
C201   C736    1.390   .     S
C202   C734    1.424   .     S
C203   C204    1.417   .     A
C203   C733    1.424   1_554 S
C204   H210    1.076   .     S
C204   C205    1.387   .     A
C205   H207    1.084   .     S
C205   C732    1.390   1_554 S
H213   C305    1.087   1_455 S
H214   C247    1.086   .     S
H216   C368    1.086   .     S
O220   Zn236   1.933   .     S
O220   Zn233   1.963   .     S
O220   Zn234   1.945   .     S
O220   Zn235   1.935   .     S
O221   Zn234   1.937   .     S
O222   Zn236   1.948   .     S
O223   Zn235   1.942   .     S
O224   Zn233   1.932   .     S
O225   Zn233   1.928   .     S
O226   Zn236   1.931   .     S
O227   Zn234   1.926   .     S
O228   Zn235   1.937   .     S
O229   Zn236   1.933   .     S
O230   Zn233   1.923   .     S
O231   Zn234   1.937   .     S
O232   Zn235   1.930   .     S
C237   O286    1.271   .     A
C237   C247    1.438   .     S
C237   O288    1.271   .     A
C238   H270    1.076   .     S
C238   C239    1.387   .     A
C238   C261    1.413   .     A
C239   Cl265   1.767   .     S
C239   C772    1.401   .     S
C240   O289    1.279   .     A
C240   O287    1.283   .     A
C240   C246    1.456   .     S
C241   C243    1.409   .     A
C241   C242    1.426   .     A
C241   C770    1.401   1_554 S
C242   C245    1.411   .     A
C242   C262    1.427   .     A
C243   C244    1.389   .     A
C243   H271    1.082   .     S
C244   C256    1.391   .     A
C244   H277    1.084   .     S
C245   C256    1.390   .     A
C245   H276    1.077   .     S
C246   C306    1.335   .     S
C246   H331    1.087   .     S
C248   C257    1.392   .     A
C248   C255    1.400   .     A
C248   H267    1.083   .     S
C249   C252    1.452   .     S
C249   C427    1.332   .     S
C249   H451    1.088   .     S
C250   C251    1.436   .     S
C251   O290    1.279   .     A
C251   O284    1.279   .     A
C252   O291    1.271   .     A
C252   O285    1.271   .     A
C253   O280    1.273   .     A
C253   O282    1.272   .     A
C253   C256    1.449   .     S
C254   O283    1.284   .     A
C254   O281    1.282   .     A
C254   C255    1.471   .     S
C255   C258    1.399   .     A
C257   C260    1.403   .     A
C257   H278    1.084   .     S
C258   H268    1.075   .     S
C258   C259    1.408   .     A
C259   C260    1.418   .     A
C259   C261    1.427   .     A
C260   C795    1.390   .     S
C261   C793    1.424   .     S
C262   C263    1.417   .     A
C262   C792    1.424   1_554 S
C263   H269    1.076   .     S
C263   C264    1.387   .     A
C264   H266    1.084   .     S
C264   C791    1.390   1_554 S
H273   C306    1.086   .     S
H275   C427    1.086   .     S
O279   Zn295   1.933   .     S
O279   Zn292   1.963   .     S
O279   Zn293   1.945   .     S
O279   Zn294   1.935   .     S
O280   Zn293   1.937   .     S
O281   Zn295   1.948   .     S
O282   Zn294   1.942   .     S
O283   Zn292   1.932   .     S
O284   Zn292   1.928   .     S
O285   Zn295   1.931   .     S
O286   Zn293   1.926   .     S
O287   Zn294   1.937   .     S
O288   Zn295   1.933   .     S
O289   Zn292   1.923   .     S
O290   Zn293   1.937   .     S
O291   Zn294   1.930   .     S
C296   O345    1.271   .     A
C296   C306    1.438   .     S
C296   O347    1.271   .     A
C297   H329    1.076   .     S
C297   C298    1.387   .     A
C297   C320    1.413   .     A
C298   Cl324   1.767   .     S
C298   C831    1.401   .     S
C299   O348    1.279   .     A
C299   O346    1.283   .     A
C299   C305    1.456   .     S
C300   C302    1.409   .     A
C300   C301    1.426   .     A
C300   C829    1.401   1_554 S
C301   C304    1.411   .     A
C301   C321    1.427   .     A
C302   C303    1.389   .     A
C302   H330    1.082   .     S
C303   C315    1.391   .     A
C303   H336    1.084   .     S
C304   C315    1.390   .     A
C304   H335    1.077   .     S
C305   C188    1.335   1_655 S
C305   H213    1.087   1_655 S
C307   C316    1.392   .     A
C307   C314    1.400   .     A
C307   H326    1.083   .     S
C308   C311    1.452   .     S
C308   C486    1.332   .     S
C308   H510    1.088   .     S
C309   C310    1.436   .     S
C310   O349    1.279   .     A
C310   O343    1.279   .     A
C311   O350    1.271   .     A
C311   O344    1.271   .     A
C312   O339    1.273   .     A
C312   O341    1.272   .     A
C312   C315    1.449   .     S
C313   O342    1.284   .     A
C313   O340    1.282   .     A
C313   C314    1.471   .     S
C314   C317    1.399   .     A
C316   C319    1.403   .     A
C316   H337    1.084   .     S
C317   H327    1.075   .     S
C317   C318    1.408   .     A
C318   C319    1.418   .     A
C318   C320    1.427   .     A
C319   C854    1.390   .     S
C320   C852    1.424   .     S
C321   C322    1.417   .     A
C321   C851    1.424   1_554 S
C322   H328    1.076   .     S
C322   C323    1.387   .     A
C323   H325    1.084   .     S
C323   C850    1.390   1_554 S
H332   C188    1.086   1_655 S
H334   C486    1.086   .     S
O338   Zn354   1.933   .     S
O338   Zn351   1.963   .     S
O338   Zn352   1.945   .     S
O338   Zn353   1.935   .     S
O339   Zn352   1.937   .     S
O340   Zn354   1.948   .     S
O341   Zn353   1.942   .     S
O342   Zn351   1.932   .     S
O343   Zn351   1.928   .     S
O344   Zn354   1.931   .     S
O345   Zn352   1.926   .     S
O346   Zn353   1.937   .     S
O347   Zn354   1.933   .     S
O348   Zn351   1.923   .     S
O349   Zn352   1.937   .     S
O350   Zn353   1.930   .     S
C355   O404    1.271   .     A
C355   C365    1.438   .     S
C355   O406    1.271   .     A
C356   H388    1.076   .     S
C356   C357    1.387   .     A
C356   C379    1.413   .     A
C357   Cl383   1.767   .     S
C357   C890    1.401   .     S
C358   O407    1.279   .     A
C358   O405    1.283   .     A
C358   C364    1.456   .     S
C359   C361    1.409   .     A
C359   C360    1.426   .     A
C359   C888    1.401   1_554 S
C360   C363    1.411   .     A
C360   C380    1.427   .     A
C361   C362    1.389   .     A
C361   H389    1.082   .     S
C362   C374    1.391   .     A
C362   H395    1.084   .     S
C363   C374    1.390   .     A
C363   H394    1.077   .     S
C364   C424    1.335   .     S
C364   H449    1.087   .     S
C365   C482    1.335   1_455 S
C365   H509    1.086   1_455 S
C366   C375    1.392   .     A
C366   C373    1.400   .     A
C366   H385    1.083   .     S
C367   C370    1.452   .     S
C367   C14     1.332   1_565 S
C367   H38     1.088   1_565 S
C368   C369    1.436   .     S
C369   O408    1.279   .     A
C369   O402    1.279   .     A
C370   O409    1.271   .     A
C370   O403    1.271   .     A
C371   O398    1.273   .     A
C371   O400    1.272   .     A
C371   C374    1.449   .     S
C372   O401    1.284   .     A
C372   O399    1.282   .     A
C372   C373    1.471   .     S
C373   C376    1.399   .     A
C375   C378    1.403   .     A
C375   H396    1.084   .     S
C376   H386    1.075   .     S
C376   C377    1.408   .     A
C377   C378    1.418   .     A
C377   C379    1.427   .     A
C378   C913    1.390   .     S
C379   C911    1.424   .     S
C380   C381    1.417   .     A
C380   C910    1.424   1_554 S
C381   H387    1.076   .     S
C381   C382    1.387   .     A
C382   H384    1.084   .     S
C382   C909    1.390   1_554 S
H390   C482    1.087   1_455 S
H391   C424    1.086   .     S
H393   C14     1.086   1_565 S
O397   Zn413   1.933   .     S
O397   Zn410   1.963   .     S
O397   Zn411   1.945   .     S
O397   Zn412   1.935   .     S
O398   Zn411   1.937   .     S
O399   Zn413   1.948   .     S
O400   Zn412   1.942   .     S
O401   Zn410   1.932   .     S
O402   Zn410   1.928   .     S
O403   Zn413   1.931   .     S
O404   Zn411   1.926   .     S
O405   Zn412   1.937   .     S
O406   Zn413   1.933   .     S
O407   Zn410   1.923   .     S
O408   Zn411   1.937   .     S
O409   Zn412   1.930   .     S
C414   O463    1.271   .     A
C414   C424    1.438   .     S
C414   O465    1.271   .     A
C415   H447    1.076   .     S
C415   C416    1.387   .     A
C415   C438    1.413   .     A
C416   Cl442   1.767   .     S
C416   C949    1.401   .     S
C417   O466    1.279   .     A
C417   O464    1.283   .     A
C417   C423    1.456   .     S
C418   C420    1.409   .     A
C418   C419    1.426   .     A
C418   C947    1.401   1_554 S
C419   C422    1.411   .     A
C419   C439    1.427   .     A
C420   C421    1.389   .     A
C420   H448    1.082   .     S
C421   C433    1.391   .     A
C421   H454    1.084   .     S
C422   C433    1.390   .     A
C422   H453    1.077   .     S
C423   C483    1.335   .     S
C423   H508    1.087   .     S
C425   C434    1.392   .     A
C425   C432    1.400   .     A
C425   H444    1.083   .     S
C426   C429    1.452   .     S
C426   C73     1.332   1_565 S
C426   H97     1.088   1_565 S
C427   C428    1.436   .     S
C428   O467    1.279   .     A
C428   O461    1.279   .     A
C429   O468    1.271   .     A
C429   O462    1.271   .     A
C430   O457    1.273   .     A
C430   O459    1.272   .     A
C430   C433    1.449   .     S
C431   O460    1.284   .     A
C431   O458    1.282   .     A
C431   C432    1.471   .     S
C432   C435    1.399   .     A
C434   C437    1.403   .     A
C434   H455    1.084   .     S
C435   H445    1.075   .     S
C435   C436    1.408   .     A
C436   C437    1.418   .     A
C436   C438    1.427   .     A
C437   C972    1.390   .     S
C438   C970    1.424   .     S
C439   C440    1.417   .     A
C439   C969    1.424   1_554 S
C440   H446    1.076   .     S
C440   C441    1.387   .     A
C441   H443    1.084   .     S
C441   C968    1.390   1_554 S
H450   C483    1.086   .     S
H452   C73     1.086   1_565 S
O456   Zn472   1.933   .     S
O456   Zn469   1.963   .     S
O456   Zn470   1.945   .     S
O456   Zn471   1.935   .     S
O457   Zn470   1.937   .     S
O458   Zn472   1.948   .     S
O459   Zn471   1.942   .     S
O460   Zn469   1.932   .     S
O461   Zn469   1.928   .     S
O462   Zn472   1.931   .     S
O463   Zn470   1.926   .     S
O464   Zn471   1.937   .     S
O465   Zn472   1.933   .     S
O466   Zn469   1.923   .     S
O467   Zn470   1.937   .     S
O468   Zn471   1.930   .     S
C473   O522    1.271   .     A
C473   C483    1.438   .     S
C473   O524    1.271   .     A
C474   H506    1.076   .     S
C474   C475    1.387   .     A
C474   C497    1.413   .     A
C475   Cl501   1.767   .     S
C475   C1008   1.401   .     S
C476   O525    1.279   .     A
C476   O523    1.283   .     A
C476   C482    1.456   .     S
C477   C479    1.409   .     A
C477   C478    1.426   .     A
C477   C1006   1.401   1_554 S
C478   C481    1.411   .     A
C478   C498    1.427   .     A
C479   C480    1.389   .     A
C479   H507    1.082   .     S
C480   C492    1.391   .     A
C480   H513    1.084   .     S
C481   C492    1.390   .     A
C481   H512    1.077   .     S
C482   C365    1.335   1_655 S
C482   H390    1.087   1_655 S
C484   C493    1.392   .     A
C484   C491    1.400   .     A
C484   H503    1.083   .     S
C485   C488    1.452   .     S
C485   C132    1.332   1_565 S
C485   H156    1.088   1_565 S
C486   C487    1.436   .     S
C487   O526    1.279   .     A
C487   O520    1.279   .     A
C488   O527    1.271   .     A
C488   O521    1.271   .     A
C489   O516    1.273   .     A
C489   O518    1.272   .     A
C489   C492    1.449   .     S
C490   O519    1.284   .     A
C490   O517    1.282   .     A
C490   C491    1.471   .     S
C491   C494    1.399   .     A
C493   C496    1.403   .     A
C493   H514    1.084   .     S
C494   H504    1.075   .     S
C494   C495    1.408   .     A
C495   C496    1.418   .     A
C495   C497    1.427   .     A
C496   C1031   1.390   .     S
C497   C1029   1.424   .     S
C498   C499    1.417   .     A
C498   C1028   1.424   1_554 S
C499   H505    1.076   .     S
C499   C500    1.387   .     A
C500   H502    1.084   .     S
C500   C1027   1.390   1_554 S
H509   C365    1.086   1_655 S
H511   C132    1.086   1_565 S
O515   Zn531   1.933   .     S
O515   Zn528   1.963   .     S
O515   Zn529   1.945   .     S
O515   Zn530   1.935   .     S
O516   Zn529   1.937   .     S
O517   Zn531   1.948   .     S
O518   Zn530   1.942   .     S
O519   Zn528   1.932   .     S
O520   Zn528   1.928   .     S
O521   Zn531   1.931   .     S
O522   Zn529   1.926   .     S
O523   Zn530   1.937   .     S
O524   Zn531   1.933   .     S
O525   Zn528   1.923   .     S
O526   Zn529   1.937   .     S
O527   Zn530   1.930   .     S
C532   O581    1.271   .     A
C532   C542    1.438   .     S
C532   O583    1.271   .     A
C533   H565    1.076   .     S
C533   C534    1.387   .     A
C533   C556    1.413   .     A
C534   Cl560   1.767   .     S
C534   C5      1.401   1_556 S
C535   O584    1.279   .     A
C535   O582    1.283   .     A
C535   C541    1.456   .     S
C536   C538    1.409   .     A
C536   C537    1.426   .     A
C537   C540    1.411   .     A
C537   C557    1.427   .     A
C538   C539    1.389   .     A
C538   H566    1.082   .     S
C539   C551    1.391   .     A
C539   H572    1.084   .     S
C540   C551    1.390   .     A
C540   H571    1.077   .     S
C541   C601    1.335   .     S
C541   H626    1.087   .     S
C542   C659    1.335   1_455 S
C542   H686    1.086   1_455 S
C543   C552    1.392   .     A
C543   C550    1.400   .     A
C543   H562    1.083   .     S
C544   C547    1.452   .     S
C544   C722    1.332   .     S
C544   H746    1.088   .     S
C545   C546    1.436   .     S
C545   C898    1.332   1_545 S
C545   H924    1.086   1_545 S
C546   O585    1.279   .     A
C546   O579    1.279   .     A
C547   O586    1.271   .     A
C547   O580    1.271   .     A
C548   O575    1.273   .     A
C548   O577    1.272   .     A
C548   C551    1.449   .     S
C549   O578    1.284   .     A
C549   O576    1.282   .     A
C549   C550    1.471   .     S
C550   C553    1.399   .     A
C552   C555    1.403   .     A
C552   H573    1.084   .     S
C553   H563    1.075   .     S
C553   C554    1.408   .     A
C554   C555    1.418   .     A
C554   C556    1.427   .     A
C555   C28     1.390   1_556 S
C556   C26     1.424   1_556 S
C557   C558    1.417   .     A
C558   H564    1.076   .     S
C558   C559    1.387   .     A
C559   H561    1.084   .     S
H567   C659    1.087   1_455 S
H568   C601    1.086   .     S
H569   C898    1.088   1_545 S
H570   C722    1.086   .     S
O574   Zn590   1.933   .     S
O574   Zn587   1.963   .     S
O574   Zn588   1.945   .     S
O574   Zn589   1.935   .     S
O575   Zn588   1.937   .     S
O576   Zn590   1.948   .     S
O577   Zn589   1.942   .     S
O578   Zn587   1.932   .     S
O579   Zn587   1.928   .     S
O580   Zn590   1.931   .     S
O581   Zn588   1.926   .     S
O582   Zn589   1.937   .     S
O583   Zn590   1.933   .     S
O584   Zn587   1.923   .     S
O585   Zn588   1.937   .     S
O586   Zn589   1.930   .     S
C591   O640    1.271   .     A
C591   C601    1.438   .     S
C591   O642    1.271   .     A
C592   H624    1.076   .     S
C592   C593    1.387   .     A
C592   C615    1.413   .     A
C593   Cl619   1.767   .     S
C593   C64     1.401   1_556 S
C594   O643    1.279   .     A
C594   O641    1.283   .     A
C594   C600    1.456   .     S
C595   C597    1.409   .     A
C595   C596    1.426   .     A
C596   C599    1.411   .     A
C596   C616    1.427   .     A
C597   C598    1.389   .     A
C597   H625    1.082   .     S
C598   C610    1.391   .     A
C598   H631    1.084   .     S
C599   C610    1.390   .     A
C599   H630    1.077   .     S
C600   C660    1.335   .     S
C600   H685    1.087   .     S
C602   C611    1.392   .     A
C602   C609    1.400   .     A
C602   H621    1.083   .     S
C603   C606    1.452   .     S
C603   C781    1.332   .     S
C603   H805    1.088   .     S
C604   C605    1.436   .     S
C604   C957    1.332   1_545 S
C604   H983    1.086   1_545 S
C605   O644    1.279   .     A
C605   O638    1.279   .     A
C606   O645    1.271   .     A
C606   O639    1.271   .     A
C607   O634    1.273   .     A
C607   O636    1.272   .     A
C607   C610    1.449   .     S
C608   O637    1.284   .     A
C608   O635    1.282   .     A
C608   C609    1.471   .     S
C609   C612    1.399   .     A
C611   C614    1.403   .     A
C611   H632    1.084   .     S
C612   H622    1.075   .     S
C612   C613    1.408   .     A
C613   C614    1.418   .     A
C613   C615    1.427   .     A
C614   C87     1.390   1_556 S
C615   C85     1.424   1_556 S
C616   C617    1.417   .     A
C617   H623    1.076   .     S
C617   C618    1.387   .     A
C618   H620    1.084   .     S
H627   C660    1.086   .     S
H628   C957    1.088   1_545 S
H629   C781    1.086   .     S
O633   Zn649   1.933   .     S
O633   Zn646   1.963   .     S
O633   Zn647   1.945   .     S
O633   Zn648   1.935   .     S
O634   Zn647   1.937   .     S
O635   Zn649   1.948   .     S
O636   Zn648   1.942   .     S
O637   Zn646   1.932   .     S
O638   Zn646   1.928   .     S
O639   Zn649   1.931   .     S
O640   Zn647   1.926   .     S
O641   Zn648   1.937   .     S
O642   Zn649   1.933   .     S
O643   Zn646   1.923   .     S
O644   Zn647   1.937   .     S
O645   Zn648   1.930   .     S
C650   O699    1.271   .     A
C650   C660    1.438   .     S
C650   O701    1.271   .     A
C651   H683    1.076   .     S
C651   C652    1.387   .     A
C651   C674    1.413   .     A
C652   Cl678   1.767   .     S
C652   C123    1.401   1_556 S
C653   O702    1.279   .     A
C653   O700    1.283   .     A
C653   C659    1.456   .     S
C654   C656    1.409   .     A
C654   C655    1.426   .     A
C655   C658    1.411   .     A
C655   C675    1.427   .     A
C656   C657    1.389   .     A
C656   H684    1.082   .     S
C657   C669    1.391   .     A
C657   H690    1.084   .     S
C658   C669    1.390   .     A
C658   H689    1.077   .     S
C659   C542    1.335   1_655 S
C659   H567    1.087   1_655 S
C661   C670    1.392   .     A
C661   C668    1.400   .     A
C661   H680    1.083   .     S
C662   C665    1.452   .     S
C662   C840    1.332   .     S
C662   H864    1.088   .     S
C663   C664    1.436   .     S
C663   C1016   1.332   1_545 S
C663   H1042   1.086   1_545 S
C664   O703    1.279   .     A
C664   O697    1.279   .     A
C665   O704    1.271   .     A
C665   O698    1.271   .     A
C666   O693    1.273   .     A
C666   O695    1.272   .     A
C666   C669    1.449   .     S
C667   O696    1.284   .     A
C667   O694    1.282   .     A
C667   C668    1.471   .     S
C668   C671    1.399   .     A
C670   C673    1.403   .     A
C670   H691    1.084   .     S
C671   H681    1.075   .     S
C671   C672    1.408   .     A
C672   C673    1.418   .     A
C672   C674    1.427   .     A
C673   C146    1.390   1_556 S
C674   C144    1.424   1_556 S
C675   C676    1.417   .     A
C676   H682    1.076   .     S
C676   C677    1.387   .     A
C677   H679    1.084   .     S
H686   C542    1.086   1_655 S
H687   C1016   1.088   1_545 S
H688   C840    1.086   .     S
O692   Zn708   1.933   .     S
O692   Zn705   1.963   .     S
O692   Zn706   1.945   .     S
O692   Zn707   1.935   .     S
O693   Zn706   1.937   .     S
O694   Zn708   1.948   .     S
O695   Zn707   1.942   .     S
O696   Zn705   1.932   .     S
O697   Zn705   1.928   .     S
O698   Zn708   1.931   .     S
O699   Zn706   1.926   .     S
O700   Zn707   1.937   .     S
O701   Zn708   1.933   .     S
O702   Zn705   1.923   .     S
O703   Zn706   1.937   .     S
O704   Zn707   1.930   .     S
C709   O758    1.271   .     A
C709   C719    1.438   .     S
C709   O760    1.271   .     A
C710   H742    1.076   .     S
C710   C711    1.387   .     A
C710   C733    1.413   .     A
C711   Cl737   1.767   .     S
C711   C182    1.401   1_556 S
C712   O761    1.279   .     A
C712   O759    1.283   .     A
C712   C718    1.456   .     S
C713   C715    1.409   .     A
C713   C714    1.426   .     A
C714   C717    1.411   .     A
C714   C734    1.427   .     A
C715   C716    1.389   .     A
C715   H743    1.082   .     S
C716   C728    1.391   .     A
C716   H749    1.084   .     S
C717   C728    1.390   .     A
C717   H748    1.077   .     S
C718   C778    1.335   .     S
C718   H803    1.087   .     S
C719   C836    1.335   1_455 S
C719   H863    1.086   1_455 S
C720   C729    1.392   .     A
C720   C727    1.400   .     A
C720   H739    1.083   .     S
C721   C724    1.452   .     S
C721   C899    1.332   .     S
C721   H923    1.088   .     S
C722   C723    1.436   .     S
C723   O762    1.279   .     A
C723   O756    1.279   .     A
C724   O763    1.271   .     A
C724   O757    1.271   .     A
C725   O752    1.273   .     A
C725   O754    1.272   .     A
C725   C728    1.449   .     S
C726   O755    1.284   .     A
C726   O753    1.282   .     A
C726   C727    1.471   .     S
C727   C730    1.399   .     A
C729   C732    1.403   .     A
C729   H750    1.084   .     S
C730   H740    1.075   .     S
C730   C731    1.408   .     A
C731   C732    1.418   .     A
C731   C733    1.427   .     A
C732   C205    1.390   1_556 S
C733   C203    1.424   1_556 S
C734   C735    1.417   .     A
C735   H741    1.076   .     S
C735   C736    1.387   .     A
C736   H738    1.084   .     S
H744   C836    1.087   1_455 S
H745   C778    1.086   .     S
H747   C899    1.086   .     S
O751   Zn767   1.933   .     S
O751   Zn764   1.963   .     S
O751   Zn765   1.945   .     S
O751   Zn766   1.935   .     S
O752   Zn765   1.937   .     S
O753   Zn767   1.948   .     S
O754   Zn766   1.942   .     S
O755   Zn764   1.932   .     S
O756   Zn764   1.928   .     S
O757   Zn767   1.931   .     S
O758   Zn765   1.926   .     S
O759   Zn766   1.937   .     S
O760   Zn767   1.933   .     S
O761   Zn764   1.923   .     S
O762   Zn765   1.937   .     S
O763   Zn766   1.930   .     S
C768   O817    1.271   .     A
C768   C778    1.438   .     S
C768   O819    1.271   .     A
C769   H801    1.076   .     S
C769   C770    1.387   .     A
C769   C792    1.413   .     A
C770   Cl796   1.767   .     S
C770   C241    1.401   1_556 S
C771   O820    1.279   .     A
C771   O818    1.283   .     A
C771   C777    1.456   .     S
C772   C774    1.409   .     A
C772   C773    1.426   .     A
C773   C776    1.411   .     A
C773   C793    1.427   .     A
C774   C775    1.389   .     A
C774   H802    1.082   .     S
C775   C787    1.391   .     A
C775   H808    1.084   .     S
C776   C787    1.390   .     A
C776   H807    1.077   .     S
C777   C837    1.335   .     S
C777   H862    1.087   .     S
C779   C788    1.392   .     A
C779   C786    1.400   .     A
C779   H798    1.083   .     S
C780   C783    1.452   .     S
C780   C958    1.332   .     S
C780   H982    1.088   .     S
C781   C782    1.436   .     S
C782   O821    1.279   .     A
C782   O815    1.279   .     A
C783   O822    1.271   .     A
C783   O816    1.271   .     A
C784   O811    1.273   .     A
C784   O813    1.272   .     A
C784   C787    1.449   .     S
C785   O814    1.284   .     A
C785   O812    1.282   .     A
C785   C786    1.471   .     S
C786   C789    1.399   .     A
C788   C791    1.403   .     A
C788   H809    1.084   .     S
C789   H799    1.075   .     S
C789   C790    1.408   .     A
C790   C791    1.418   .     A
C790   C792    1.427   .     A
C791   C264    1.390   1_556 S
C792   C262    1.424   1_556 S
C793   C794    1.417   .     A
C794   H800    1.076   .     S
C794   C795    1.387   .     A
C795   H797    1.084   .     S
H804   C837    1.086   .     S
H806   C958    1.086   .     S
O810   Zn826   1.933   .     S
O810   Zn823   1.963   .     S
O810   Zn824   1.945   .     S
O810   Zn825   1.935   .     S
O811   Zn824   1.937   .     S
O812   Zn826   1.948   .     S
O813   Zn825   1.942   .     S
O814   Zn823   1.932   .     S
O815   Zn823   1.928   .     S
O816   Zn826   1.931   .     S
O817   Zn824   1.926   .     S
O818   Zn825   1.937   .     S
O819   Zn826   1.933   .     S
O820   Zn823   1.923   .     S
O821   Zn824   1.937   .     S
O822   Zn825   1.930   .     S
C827   O876    1.271   .     A
C827   C837    1.438   .     S
C827   O878    1.271   .     A
C828   H860    1.076   .     S
C828   C829    1.387   .     A
C828   C851    1.413   .     A
C829   Cl855   1.767   .     S
C829   C300    1.401   1_556 S
C830   O879    1.279   .     A
C830   O877    1.283   .     A
C830   C836    1.456   .     S
C831   C833    1.409   .     A
C831   C832    1.426   .     A
C832   C835    1.411   .     A
C832   C852    1.427   .     A
C833   C834    1.389   .     A
C833   H861    1.082   .     S
C834   C846    1.391   .     A
C834   H867    1.084   .     S
C835   C846    1.390   .     A
C835   H866    1.077   .     S
C836   C719    1.335   1_655 S
C836   H744    1.087   1_655 S
C838   C847    1.392   .     A
C838   C845    1.400   .     A
C838   H857    1.083   .     S
C839   C842    1.452   .     S
C839   C1017   1.332   .     S
C839   H1041   1.088   .     S
C840   C841    1.436   .     S
C841   O880    1.279   .     A
C841   O874    1.279   .     A
C842   O881    1.271   .     A
C842   O875    1.271   .     A
C843   O870    1.273   .     A
C843   O872    1.272   .     A
C843   C846    1.449   .     S
C844   O873    1.284   .     A
C844   O871    1.282   .     A
C844   C845    1.471   .     S
C845   C848    1.399   .     A
C847   C850    1.403   .     A
C847   H868    1.084   .     S
C848   H858    1.075   .     S
C848   C849    1.408   .     A
C849   C850    1.418   .     A
C849   C851    1.427   .     A
C850   C323    1.390   1_556 S
C851   C321    1.424   1_556 S
C852   C853    1.417   .     A
C853   H859    1.076   .     S
C853   C854    1.387   .     A
C854   H856    1.084   .     S
H863   C719    1.086   1_655 S
H865   C1017   1.086   .     S
O869   Zn885   1.933   .     S
O869   Zn882   1.963   .     S
O869   Zn883   1.945   .     S
O869   Zn884   1.935   .     S
O870   Zn883   1.937   .     S
O871   Zn885   1.948   .     S
O872   Zn884   1.942   .     S
O873   Zn882   1.932   .     S
O874   Zn882   1.928   .     S
O875   Zn885   1.931   .     S
O876   Zn883   1.926   .     S
O877   Zn884   1.937   .     S
O878   Zn885   1.933   .     S
O879   Zn882   1.923   .     S
O880   Zn883   1.937   .     S
O881   Zn884   1.930   .     S
C886   O935    1.271   .     A
C886   C896    1.438   .     S
C886   O937    1.271   .     A
C887   H919    1.076   .     S
C887   C888    1.387   .     A
C887   C910    1.413   .     A
C888   Cl914   1.767   .     S
C888   C359    1.401   1_556 S
C889   O938    1.279   .     A
C889   O936    1.283   .     A
C889   C895    1.456   .     S
C890   C892    1.409   .     A
C890   C891    1.426   .     A
C891   C894    1.411   .     A
C891   C911    1.427   .     A
C892   C893    1.389   .     A
C892   H920    1.082   .     S
C893   C905    1.391   .     A
C893   H926    1.084   .     S
C894   C905    1.390   .     A
C894   H925    1.077   .     S
C895   C955    1.335   .     S
C895   H980    1.087   .     S
C896   C1013   1.335   1_455 S
C896   H1040   1.086   1_455 S
C897   C906    1.392   .     A
C897   C904    1.400   .     A
C897   H916    1.083   .     S
C898   C901    1.452   .     S
C898   C545    1.332   1_565 S
C898   H569    1.088   1_565 S
C899   C900    1.436   .     S
C900   O939    1.279   .     A
C900   O933    1.279   .     A
C901   O940    1.271   .     A
C901   O934    1.271   .     A
C902   O929    1.273   .     A
C902   O931    1.272   .     A
C902   C905    1.449   .     S
C903   O932    1.284   .     A
C903   O930    1.282   .     A
C903   C904    1.471   .     S
C904   C907    1.399   .     A
C906   C909    1.403   .     A
C906   H927    1.084   .     S
C907   H917    1.075   .     S
C907   C908    1.408   .     A
C908   C909    1.418   .     A
C908   C910    1.427   .     A
C909   C382    1.390   1_556 S
C910   C380    1.424   1_556 S
C911   C912    1.417   .     A
C912   H918    1.076   .     S
C912   C913    1.387   .     A
C913   H915    1.084   .     S
H921   C1013   1.087   1_455 S
H922   C955    1.086   .     S
H924   C545    1.086   1_565 S
O928   Zn944   1.933   .     S
O928   Zn941   1.963   .     S
O928   Zn942   1.945   .     S
O928   Zn943   1.935   .     S
O929   Zn942   1.937   .     S
O930   Zn944   1.948   .     S
O931   Zn943   1.942   .     S
O932   Zn941   1.932   .     S
O933   Zn941   1.928   .     S
O934   Zn944   1.931   .     S
O935   Zn942   1.926   .     S
O936   Zn943   1.937   .     S
O937   Zn944   1.933   .     S
O938   Zn941   1.923   .     S
O939   Zn942   1.937   .     S
O940   Zn943   1.930   .     S
C945   O994    1.271   .     A
C945   C955    1.438   .     S
C945   O996    1.271   .     A
C946   H978    1.076   .     S
C946   C947    1.387   .     A
C946   C969    1.413   .     A
C947   Cl973   1.767   .     S
C947   C418    1.401   1_556 S
C948   O997    1.279   .     A
C948   O995    1.283   .     A
C948   C954    1.456   .     S
C949   C951    1.409   .     A
C949   C950    1.426   .     A
C950   C953    1.411   .     A
C950   C970    1.427   .     A
C951   C952    1.389   .     A
C951   H979    1.082   .     S
C952   C964    1.391   .     A
C952   H985    1.084   .     S
C953   C964    1.390   .     A
C953   H984    1.077   .     S
C954   C1014   1.335   .     S
C954   H1039   1.087   .     S
C956   C965    1.392   .     A
C956   C963    1.400   .     A
C956   H975    1.083   .     S
C957   C960    1.452   .     S
C957   C604    1.332   1_565 S
C957   H628    1.088   1_565 S
C958   C959    1.436   .     S
C959   O998    1.279   .     A
C959   O992    1.279   .     A
C960   O999    1.271   .     A
C960   O993    1.271   .     A
C961   O988    1.273   .     A
C961   O990    1.272   .     A
C961   C964    1.449   .     S
C962   O991    1.284   .     A
C962   O989    1.282   .     A
C962   C963    1.471   .     S
C963   C966    1.399   .     A
C965   C968    1.403   .     A
C965   H986    1.084   .     S
C966   H976    1.075   .     S
C966   C967    1.408   .     A
C967   C968    1.418   .     A
C967   C969    1.427   .     A
C968   C441    1.390   1_556 S
C969   C439    1.424   1_556 S
C970   C971    1.417   .     A
C971   H977    1.076   .     S
C971   C972    1.387   .     A
C972   H974    1.084   .     S
H981   C1014   1.086   .     S
H983   C604    1.086   1_565 S
O987   Zn1003  1.933   .     S
O987   Zn1000  1.963   .     S
O987   Zn1001  1.945   .     S
O987   Zn1002  1.935   .     S
O988   Zn1001  1.937   .     S
O989   Zn1003  1.948   .     S
O990   Zn1002  1.942   .     S
O991   Zn1000  1.932   .     S
O992   Zn1000  1.928   .     S
O993   Zn1003  1.931   .     S
O994   Zn1001  1.926   .     S
O995   Zn1002  1.937   .     S
O996   Zn1003  1.933   .     S
O997   Zn1000  1.923   .     S
O998   Zn1001  1.937   .     S
O999   Zn1002  1.930   .     S
C1004  O1053   1.271   .     A
C1004  C1014   1.438   .     S
C1004  O1055   1.271   .     A
C1005  H1037   1.076   .     S
C1005  C1006   1.387   .     A
C1005  C1028   1.413   .     A
C1006  Cl1032  1.767   .     S
C1006  C477    1.401   1_556 S
C1007  O1056   1.279   .     A
C1007  O1054   1.283   .     A
C1007  C1013   1.456   .     S
C1008  C1010   1.409   .     A
C1008  C1009   1.426   .     A
C1009  C1012   1.411   .     A
C1009  C1029   1.427   .     A
C1010  C1011   1.389   .     A
C1010  H1038   1.082   .     S
C1011  C1023   1.391   .     A
C1011  H1044   1.084   .     S
C1012  C1023   1.390   .     A
C1012  H1043   1.077   .     S
C1013  C896    1.335   1_655 S
C1013  H921    1.087   1_655 S
C1015  C1024   1.392   .     A
C1015  C1022   1.400   .     A
C1015  H1034   1.083   .     S
C1016  C1019   1.452   .     S
C1016  C663    1.332   1_565 S
C1016  H687    1.088   1_565 S
C1017  C1018   1.436   .     S
C1018  O1057   1.279   .     A
C1018  O1051   1.279   .     A
C1019  O1058   1.271   .     A
C1019  O1052   1.271   .     A
C1020  O1047   1.273   .     A
C1020  O1049   1.272   .     A
C1020  C1023   1.449   .     S
C1021  O1050   1.284   .     A
C1021  O1048   1.282   .     A
C1021  C1022   1.471   .     S
C1022  C1025   1.399   .     A
C1024  C1027   1.403   .     A
C1024  H1045   1.084   .     S
C1025  H1035   1.075   .     S
C1025  C1026   1.408   .     A
C1026  C1027   1.418   .     A
C1026  C1028   1.427   .     A
C1027  C500    1.390   1_556 S
C1028  C498    1.424   1_556 S
C1029  C1030   1.417   .     A
C1030  H1036   1.076   .     S
C1030  C1031   1.387   .     A
C1031  H1033   1.084   .     S
H1040  C896    1.086   1_655 S
H1042  C663    1.086   1_565 S
O1046  Zn1062  1.933   .     S
O1046  Zn1059  1.963   .     S
O1046  Zn1060  1.945   .     S
O1046  Zn1061  1.935   .     S
O1047  Zn1060  1.937   .     S
O1048  Zn1062  1.948   .     S
O1049  Zn1061  1.942   .     S
O1050  Zn1059  1.932   .     S
O1051  Zn1059  1.928   .     S
O1052  Zn1062  1.931   .     S
O1053  Zn1060  1.926   .     S
O1054  Zn1061  1.937   .     S
O1055  Zn1062  1.933   .     S
O1056  Zn1059  1.923   .     S
O1057  Zn1060  1.937   .     S
O1058  Zn1061  1.930   .     S
