data_str_m1_o5_o17_pcu_sym.18
_audit_creation_date              2020-01-03
_audit_creation_method            'Materials Studio'
_symmetry_space_group_name_H-M    'P1'
_symmetry_Int_Tables_number       1
_symmetry_cell_setting            triclinic
loop_
_symmetry_equiv_pos_as_xyz
  x,y,z
_cell_length_a                    31.7524
_cell_length_b                    31.7523
_cell_length_c                    34.6143
_cell_angle_alpha                 90.0000
_cell_angle_beta                  90.0000
_cell_angle_gamma                 90.0835
loop_
_atom_site_label
_atom_site_type_symbol
_atom_site_fract_x
_atom_site_fract_y
_atom_site_fract_z
_atom_site_U_iso_or_equiv
_atom_site_adp_type
_atom_site_occupancy
C1     C     0.25000  -0.00000   0.35594   0.00000  Uiso   1.00
C2     C     0.33001   0.41999   0.75000   0.00000  Uiso   1.00
C3     C     0.44915   0.19262   0.02002   0.00000  Uiso   1.00
C4     C     0.30744   0.05078   0.97999   0.00000  Uiso   1.00
C5     C     0.19256   0.44921   0.02002   0.00000  Uiso   1.00
C6     C     0.44915   0.19262   0.97999   0.00000  Uiso   1.00
C7     C     0.05085   0.30738   0.02001   0.00000  Uiso   1.00
C8     C     0.04413   0.34190   0.38747   0.00000  Uiso   1.00
C9     C     0.45588   0.15810   0.61254   0.00000  Uiso   1.00
C10    C     0.15822   0.45559   0.38749   0.00000  Uiso   1.00
C11    C     0.34178   0.04440   0.61251   0.00000  Uiso   1.00
C12    C     0.45588   0.15810   0.38746   0.00000  Uiso   1.00
C13    C     0.42000   0.17000   0.25000   0.00000  Uiso   1.00
C14    C     0.04414   0.34190   0.61253   0.00000  Uiso   1.00
C15    C     0.34178   0.04440   0.38749   0.00000  Uiso   1.00
C16    C     0.15822   0.45561   0.61251   0.00000  Uiso   1.00
C17    C     0.29451   0.09173   0.88750   0.00000  Uiso   1.00
C18    C     0.20548   0.40827   0.11250   0.00000  Uiso   1.00
C19    C     0.40823   0.20557   0.88749   0.00000  Uiso   1.00
C20    C     0.09177   0.29441   0.11251   0.00000  Uiso   1.00
C21    C     0.20548   0.40827   0.88750   0.00000  Uiso   1.00
C22    C     0.29453   0.09173   0.11250   0.00000  Uiso   1.00
C23    C     0.09177   0.29441   0.88749   0.00000  Uiso   1.00
C24    C     0.08000   0.33000   0.75000   0.00000  Uiso   1.00
C25    C     0.40823   0.20557   0.11251   0.00000  Uiso   1.00
C26    C     0.33001   0.41999   0.25000   0.00000  Uiso   1.00
C27    C     0.16999   0.08001   0.75000   0.00000  Uiso   1.00
C28    C     0.08000   0.33000   0.25000   0.00000  Uiso   1.00
C29    C     0.42000   0.17000   0.75000   0.00000  Uiso   1.00
C30    C     0.17000   0.42000   0.75000   0.00000  Uiso   1.00
C31    C     0.33000   0.08000   0.25000   0.00000  Uiso   1.00
C32    C     0.41999   0.33001   0.75000   0.00000  Uiso   1.00
C33    C     0.25000  -0.00000   0.64406   0.00000  Uiso   1.00
C34    C     0.08001   0.16999   0.25000   0.00000  Uiso   1.00
C35    C     0.33000   0.08000   0.75000   0.00000  Uiso   1.00
C36    C     0.17000   0.42000   0.25000   0.00000  Uiso   1.00
C37    C     0.08001   0.16999   0.75000   0.00000  Uiso   1.00
C38    C     0.41999   0.33001   0.25000   0.00000  Uiso   1.00
C39    C     0.13834   0.38834   0.25000   0.00000  Uiso   1.00
C40    C     0.36166   0.11166   0.75000   0.00000  Uiso   1.00
C41    C     0.11167   0.13833   0.25000   0.00000  Uiso   1.00
C42    C     0.38833   0.36167   0.75000   0.00000  Uiso   1.00
C43    C     0.36166   0.11166   0.25000   0.00000  Uiso   1.00
C44    C     0.00000   0.25000   0.35594   0.00000  Uiso   1.00
C45    C     0.13834   0.38834   0.75000   0.00000  Uiso   1.00
C46    C     0.38833   0.36167   0.25000   0.00000  Uiso   1.00
C47    C     0.11167   0.13833   0.75000   0.00000  Uiso   1.00
C48    C     0.13833   0.11167   0.75000   0.00000  Uiso   1.00
C49    C     0.36167   0.38833   0.25000   0.00000  Uiso   1.00
C50    C     0.11166   0.36166   0.75000   0.00000  Uiso   1.00
C51    C     0.38834   0.13834   0.25000   0.00000  Uiso   1.00
C52    C     0.36167   0.38833   0.75000   0.00000  Uiso   1.00
C53    C     0.13833   0.11167   0.25000   0.00000  Uiso   1.00
C54    C     0.38834   0.13834   0.75000   0.00000  Uiso   1.00
C55    C     0.00000   0.25000   0.64406   0.00000  Uiso   1.00
C56    C     0.11166   0.36166   0.25000   0.00000  Uiso   1.00
C57    C     0.02941   0.27506   0.41839   0.00000  Uiso   1.00
C58    C     0.47059   0.22493   0.58161   0.00000  Uiso   1.00
C59    C     0.22502   0.47051   0.41840   0.00000  Uiso   1.00
C60    C     0.27498   0.02948   0.58160   0.00000  Uiso   1.00
C61    C     0.47059   0.22493   0.41839   0.00000  Uiso   1.00
C62    C     0.02941   0.27506   0.58161   0.00000  Uiso   1.00
C63    C     0.27498   0.02948   0.41840   0.00000  Uiso   1.00
C64    C     0.22502   0.47052   0.58160   0.00000  Uiso   1.00
C65    C     0.27951   0.02494   0.91840   0.00000  Uiso   1.00
C66    C    -0.00000   0.25000   0.85594   0.00000  Uiso   1.00
C67    C     0.22048   0.47506   0.08160   0.00000  Uiso   1.00
C68    C     0.47503   0.22051   0.91840   0.00000  Uiso   1.00
C69    C     0.02497   0.27949   0.08160   0.00000  Uiso   1.00
C70    C     0.22049   0.47506   0.91840   0.00000  Uiso   1.00
C71    C     0.27952   0.02494   0.08160   0.00000  Uiso   1.00
C72    C     0.02497   0.27949   0.91840   0.00000  Uiso   1.00
C73    C     0.47503   0.22051   0.08160   0.00000  Uiso   1.00
C74    C     0.00000   0.25000   0.39833   0.00000  Uiso   1.00
C75    C     0.00000   0.25000   0.60167   0.00000  Uiso   1.00
C76    C     0.25000  -0.00000   0.39833   0.00000  Uiso   1.00
C77    C    -0.00000   0.25000   0.14406   0.00000  Uiso   1.00
C78    C     0.25000  -0.00000   0.60167   0.00000  Uiso   1.00
C79    C     0.25000  -0.00000   0.89833   0.00000  Uiso   1.00
C80    C     0.25000  -0.00000   0.10167   0.00000  Uiso   1.00
C81    C    -0.00000   0.25000   0.89833   0.00000  Uiso   1.00
C82    C    -0.00000   0.25000   0.10167   0.00000  Uiso   1.00
C83    C     0.47075   0.22464   0.45913   0.00000  Uiso   1.00
C84    C     0.02925   0.27536   0.54087   0.00000  Uiso   1.00
C85    C     0.27527   0.02932   0.45914   0.00000  Uiso   1.00
C86    C     0.22473   0.47067   0.54086   0.00000  Uiso   1.00
C87    C     0.02925   0.27536   0.45913   0.00000  Uiso   1.00
C88    C     0.25000  -0.00000   0.85594   0.00000  Uiso   1.00
C89    C     0.47075   0.22464   0.54087   0.00000  Uiso   1.00
C90    C     0.22473   0.47067   0.45914   0.00000  Uiso   1.00
C91    C     0.27527   0.02932   0.54086   0.00000  Uiso   1.00
C92    C     0.22064   0.47477   0.95914   0.00000  Uiso   1.00
C93    C     0.27936   0.02523   0.04086   0.00000  Uiso   1.00
C94    C     0.02526   0.27933   0.95913   0.00000  Uiso   1.00
C95    C     0.47474   0.22067   0.04086   0.00000  Uiso   1.00
C96    C     0.27936   0.02523   0.95914   0.00000  Uiso   1.00
C97    C     0.22064   0.47477   0.04086   0.00000  Uiso   1.00
C98    C     0.47474   0.22067   0.95914   0.00000  Uiso   1.00
C99    C     0.25000  -0.00000   0.14406   0.00000  Uiso   1.00
C100   C     0.02526   0.27933   0.04086   0.00000  Uiso   1.00
C101   C     0.00000   0.25000   0.47952   0.00000  Uiso   1.00
C102   C     0.00000   0.25000   0.52048   0.00000  Uiso   1.00
C103   C     0.25000  -0.00000   0.47952   0.00000  Uiso   1.00
C104   C     0.25000  -0.00000   0.52048   0.00000  Uiso   1.00
C105   C     0.25000  -0.00000   0.97952   0.00000  Uiso   1.00
C106   C     0.25000  -0.00000   0.02048   0.00000  Uiso   1.00
C107   C    -0.00000   0.25000   0.97952   0.00000  Uiso   1.00
C108   C    -0.00000   0.25000   0.02048   0.00000  Uiso   1.00
C109   C     0.44280   0.19895   0.47998   0.00000  Uiso   1.00
C110   C     0.16999   0.08001   0.25000   0.00000  Uiso   1.00
C111   C     0.05721   0.30104   0.52002   0.00000  Uiso   1.00
C112   C     0.30087   0.05737   0.47999   0.00000  Uiso   1.00
C113   C     0.19914   0.44263   0.52001   0.00000  Uiso   1.00
C114   C     0.05721   0.30104   0.47998   0.00000  Uiso   1.00
C115   C     0.44280   0.19895   0.52002   0.00000  Uiso   1.00
C116   C     0.19914   0.44263   0.47998   0.00000  Uiso   1.00
C117   C     0.30087   0.05737   0.52002   0.00000  Uiso   1.00
C118   C     0.19256   0.44921   0.97998   0.00000  Uiso   1.00
C119   C     0.30744   0.05078   0.02002   0.00000  Uiso   1.00
C120   C     0.05085   0.30738   0.97998   0.00000  Uiso   1.00
H121   H     0.42075   0.17811   0.46579   0.00000  Uiso   1.00
H122   H     0.32959   0.07151   0.03421   0.00000  Uiso   1.00
H123   H     0.07161   0.32951   0.96579   0.00000  Uiso   1.00
H124   H     0.42839   0.17049   0.03421   0.00000  Uiso   1.00
H125   H     0.32959   0.07151   0.96579   0.00000  Uiso   1.00
H126   H     0.17041   0.42849   0.03421   0.00000  Uiso   1.00
H127   H     0.42839   0.17049   0.96579   0.00000  Uiso   1.00
H128   H     0.07161   0.32951   0.03421   0.00000  Uiso   1.00
H129   H     0.08942   0.29894   0.40655   0.00000  Uiso   1.00
H130   H     0.03974   0.36086   0.41413   0.00000  Uiso   1.00
H131   H     0.01387   0.34024   0.37141   0.00000  Uiso   1.00
H132   H     0.07927   0.32187   0.53421   0.00000  Uiso   1.00
H133   H     0.06776   0.35777   0.36880   0.00000  Uiso   1.00
H134   H     0.41059   0.20105   0.59345   0.00000  Uiso   1.00
H135   H     0.46028   0.13914   0.58587   0.00000  Uiso   1.00
H136   H     0.43225   0.14222   0.63120   0.00000  Uiso   1.00
H137   H     0.48613   0.15976   0.62860   0.00000  Uiso   1.00
H138   H     0.20133   0.41044   0.40654   0.00000  Uiso   1.00
H139   H     0.13926   0.45990   0.41417   0.00000  Uiso   1.00
H140   H     0.14242   0.43193   0.36882   0.00000  Uiso   1.00
H141   H     0.15977   0.48587   0.37146   0.00000  Uiso   1.00
H142   H     0.29868   0.08956   0.59345   0.00000  Uiso   1.00
H143   H     0.32163   0.07949   0.46579   0.00000  Uiso   1.00
H144   H     0.36074   0.04008   0.58584   0.00000  Uiso   1.00
H145   H     0.34023   0.01413   0.62856   0.00000  Uiso   1.00
H146   H     0.35759   0.06806   0.63118   0.00000  Uiso   1.00
H147   H     0.41059   0.20105   0.40655   0.00000  Uiso   1.00
H148   H     0.46027   0.13914   0.41412   0.00000  Uiso   1.00
H149   H     0.48613   0.15976   0.37140   0.00000  Uiso   1.00
H150   H     0.43225   0.14223   0.36879   0.00000  Uiso   1.00
H151   H     0.08942   0.29894   0.59345   0.00000  Uiso   1.00
H152   H     0.03977   0.36086   0.58586   0.00000  Uiso   1.00
H153   H     0.06775   0.35776   0.63121   0.00000  Uiso   1.00
H154   H     0.17838   0.42051   0.53421   0.00000  Uiso   1.00
H155   H     0.01387   0.34025   0.62857   0.00000  Uiso   1.00
H156   H     0.29867   0.08956   0.40655   0.00000  Uiso   1.00
H157   H     0.36074   0.04008   0.41416   0.00000  Uiso   1.00
H158   H     0.35758   0.06807   0.36882   0.00000  Uiso   1.00
H159   H     0.34023   0.01413   0.37144   0.00000  Uiso   1.00
H160   H     0.20132   0.41044   0.59346   0.00000  Uiso   1.00
H161   H     0.13926   0.45992   0.58583   0.00000  Uiso   1.00
H162   H     0.15977   0.48588   0.62855   0.00000  Uiso   1.00
H163   H     0.14241   0.43194   0.63118   0.00000  Uiso   1.00
H164   H     0.33962   0.04856   0.90654   0.00000  Uiso   1.00
H165   H     0.07926   0.32187   0.46579   0.00000  Uiso   1.00
H166   H     0.29023   0.11070   0.91418   0.00000  Uiso   1.00
H167   H     0.26423   0.09022   0.87147   0.00000  Uiso   1.00
H168   H     0.31819   0.10751   0.86883   0.00000  Uiso   1.00
H169   H     0.16038   0.45145   0.09345   0.00000  Uiso   1.00
H170   H     0.20976   0.38931   0.08582   0.00000  Uiso   1.00
H171   H     0.18179   0.39250   0.13117   0.00000  Uiso   1.00
H172   H     0.23575   0.40978   0.12854   0.00000  Uiso   1.00
H173   H     0.45135   0.16043   0.90655   0.00000  Uiso   1.00
H174   H     0.38927   0.20989   0.91417   0.00000  Uiso   1.00
H175   H     0.39243   0.18190   0.86883   0.00000  Uiso   1.00
H176   H     0.42075   0.17811   0.53421   0.00000  Uiso   1.00
H177   H     0.40977   0.23584   0.87144   0.00000  Uiso   1.00
H178   H     0.04866   0.33957   0.09345   0.00000  Uiso   1.00
H179   H     0.11073   0.29009   0.08584   0.00000  Uiso   1.00
H180   H     0.09022   0.26414   0.12855   0.00000  Uiso   1.00
H181   H     0.10758   0.31808   0.13118   0.00000  Uiso   1.00
H182   H     0.16038   0.45144   0.90654   0.00000  Uiso   1.00
H183   H     0.20977   0.38931   0.91418   0.00000  Uiso   1.00
H184   H     0.23576   0.40978   0.87146   0.00000  Uiso   1.00
H185   H     0.18180   0.39249   0.86883   0.00000  Uiso   1.00
H186   H     0.33963   0.04855   0.09346   0.00000  Uiso   1.00
H187   H     0.17838   0.42051   0.46579   0.00000  Uiso   1.00
H188   H     0.29024   0.11069   0.08582   0.00000  Uiso   1.00
H189   H     0.31821   0.10750   0.13117   0.00000  Uiso   1.00
H190   H     0.26425   0.09022   0.12854   0.00000  Uiso   1.00
H191   H     0.04866   0.33957   0.90654   0.00000  Uiso   1.00
H192   H     0.11074   0.29010   0.91417   0.00000  Uiso   1.00
H193   H     0.10758   0.31808   0.86882   0.00000  Uiso   1.00
H194   H     0.09023   0.26414   0.87145   0.00000  Uiso   1.00
H195   H     0.45135   0.16043   0.09345   0.00000  Uiso   1.00
H196   H     0.38927   0.20989   0.08584   0.00000  Uiso   1.00
H197   H     0.40978   0.23584   0.12856   0.00000  Uiso   1.00
H198   H     0.32163   0.07949   0.53421   0.00000  Uiso   1.00
H199   H     0.39243   0.18190   0.13118   0.00000  Uiso   1.00
H200   H     0.17041   0.42849   0.96579   0.00000  Uiso   1.00
N201   N     0.05869   0.30003   0.39702   0.00000  Uiso   1.00
N202   N     0.19110   0.45021   0.10297   0.00000  Uiso   1.00
N203   N     0.45015   0.19115   0.89702   0.00000  Uiso   1.00
N204   N     0.04986   0.30884   0.10298   0.00000  Uiso   1.00
N205   N     0.19110   0.45021   0.89702   0.00000  Uiso   1.00
N206   N     0.30890   0.04979   0.10298   0.00000  Uiso   1.00
N207   N     0.04986   0.30884   0.89702   0.00000  Uiso   1.00
N208   N     0.45015   0.19115   0.10298   0.00000  Uiso   1.00
N209   N     0.44131   0.19996   0.60298   0.00000  Uiso   1.00
N210   N     0.20014   0.44116   0.39702   0.00000  Uiso   1.00
N211   N     0.29987   0.05883   0.60298   0.00000  Uiso   1.00
N212   N     0.44131   0.19997   0.39702   0.00000  Uiso   1.00
N213   N     0.05869   0.30003   0.60298   0.00000  Uiso   1.00
N214   N     0.29986   0.05883   0.39702   0.00000  Uiso   1.00
N215   N     0.20013   0.44117   0.60298   0.00000  Uiso   1.00
N216   N     0.30889   0.04980   0.89702   0.00000  Uiso   1.00
O217   O     0.25000  -0.00000   0.25000   0.00000  Uiso   1.00
O218   O     0.25000   0.46538   0.66251   0.00000  Uiso   1.00
O219   O     0.46539   0.25000   0.33749   0.00000  Uiso   1.00
O220   O     0.03462   0.25000   0.66251   0.00000  Uiso   1.00
O221   O     0.00000   0.21539   0.83749   0.00000  Uiso   1.00
O222   O     0.00000   0.28462   0.16251   0.00000  Uiso   1.00
O223   O     0.28462  -0.00000   0.83749   0.00000  Uiso   1.00
O224   O     0.21539  -0.00000   0.16251   0.00000  Uiso   1.00
O225   O     0.00000   0.28462   0.83749   0.00000  Uiso   1.00
O226   O     0.00000   0.21539   0.16251   0.00000  Uiso   1.00
O227   O     0.21539  -0.00000   0.83749   0.00000  Uiso   1.00
O228   O     0.25000  -0.00000   0.75000   0.00000  Uiso   1.00
O229   O     0.28462  -0.00000   0.16251   0.00000  Uiso   1.00
O230   O     0.20127   0.08332   0.27298   0.00000  Uiso   1.00
O231   O     0.29874   0.41668   0.72702   0.00000  Uiso   1.00
O232   O     0.41668   0.20126   0.27298   0.00000  Uiso   1.00
O233   O     0.08332   0.29873   0.72702   0.00000  Uiso   1.00
O234   O     0.29874   0.41668   0.27298   0.00000  Uiso   1.00
O235   O     0.20127   0.08332   0.72702   0.00000  Uiso   1.00
O236   O     0.08332   0.29873   0.27298   0.00000  Uiso   1.00
O237   O     0.41668   0.20126   0.72702   0.00000  Uiso   1.00
O238   O     0.20127   0.41668   0.72702   0.00000  Uiso   1.00
O239   O     0.00000   0.25000   0.25000   0.00000  Uiso   1.00
O240   O     0.29874   0.08332   0.27298   0.00000  Uiso   1.00
O241   O     0.41668   0.29873   0.72702   0.00000  Uiso   1.00
O242   O     0.08332   0.20126   0.27298   0.00000  Uiso   1.00
O243   O     0.29874   0.08332   0.72702   0.00000  Uiso   1.00
O244   O     0.20127   0.41668   0.27298   0.00000  Uiso   1.00
O245   O     0.08332   0.20126   0.72702   0.00000  Uiso   1.00
O246   O     0.41668   0.29873   0.27298   0.00000  Uiso   1.00
O247   O     0.45127   0.33332   0.77298   0.00000  Uiso   1.00
O248   O     0.04874   0.16668   0.22702   0.00000  Uiso   1.00
O249   O     0.16668   0.45126   0.77298   0.00000  Uiso   1.00
O250   O     0.00000   0.25000   0.75000   0.00000  Uiso   1.00
O251   O     0.33332   0.04873   0.22702   0.00000  Uiso   1.00
O252   O     0.04874   0.16668   0.77298   0.00000  Uiso   1.00
O253   O     0.45127   0.33332   0.22702   0.00000  Uiso   1.00
O254   O     0.33332   0.04873   0.77298   0.00000  Uiso   1.00
O255   O     0.16668   0.45126   0.22702   0.00000  Uiso   1.00
O256   O     0.45127   0.16668   0.22702   0.00000  Uiso   1.00
O257   O     0.04874   0.33332   0.77298   0.00000  Uiso   1.00
O258   O     0.16668   0.04873   0.22702   0.00000  Uiso   1.00
O259   O     0.33332   0.45126   0.77298   0.00000  Uiso   1.00
O260   O     0.04874   0.33332   0.22702   0.00000  Uiso   1.00
O261   O     0.25000   0.46538   0.33749   0.00000  Uiso   1.00
O262   O     0.45127   0.16668   0.77298   0.00000  Uiso   1.00
O263   O     0.33332   0.45126   0.22702   0.00000  Uiso   1.00
O264   O     0.16668   0.04873   0.77298   0.00000  Uiso   1.00
O265   O     0.25000   0.03461   0.66251   0.00000  Uiso   1.00
O266   O     0.03462   0.25000   0.33749   0.00000  Uiso   1.00
O267   O     0.46539   0.25000   0.66251   0.00000  Uiso   1.00
O268   O     0.25000   0.03461   0.33749   0.00000  Uiso   1.00
Zn269  Zn    0.20053  -0.00000   0.21730   0.00000  Uiso   1.00
Zn270  Zn    0.04948   0.25000   0.28270   0.00000  Uiso   1.00
Zn271  Zn    0.25000   0.45052   0.71730   0.00000  Uiso   1.00
Zn272  Zn    0.25000   0.04947   0.28270   0.00000  Uiso   1.00
Zn273  Zn    0.04948   0.25000   0.71730   0.00000  Uiso   1.00
Zn274  Zn    0.45053   0.25000   0.28270   0.00000  Uiso   1.00
Zn275  Zn    0.25000   0.04947   0.71730   0.00000  Uiso   1.00
Zn276  Zn    0.25000   0.45052   0.28270   0.00000  Uiso   1.00
Zn277  Zn    0.29948  -0.00000   0.78270   0.00000  Uiso   1.00
Zn278  Zn    0.00000   0.20053   0.21730   0.00000  Uiso   1.00
Zn279  Zn    0.00000   0.29948   0.78270   0.00000  Uiso   1.00
Zn280  Zn    0.29948  -0.00000   0.21730   0.00000  Uiso   1.00
Zn281  Zn    0.20053  -0.00000   0.78270   0.00000  Uiso   1.00
Zn282  Zn    0.00000   0.29948   0.21730   0.00000  Uiso   1.00
Zn283  Zn    0.00000   0.20052   0.78270   0.00000  Uiso   1.00
Zn284  Zn    0.45053   0.25000   0.71730   0.00000  Uiso   1.00
C285   C     0.75000  -0.00000   0.35594   0.00000  Uiso   1.00
C286   C     0.83001   0.41999   0.75000   0.00000  Uiso   1.00
C287   C     0.94915   0.19262   0.02002   0.00000  Uiso   1.00
C288   C     0.80744   0.05078   0.97999   0.00000  Uiso   1.00
C289   C     0.69256   0.44921   0.02002   0.00000  Uiso   1.00
C290   C     0.94915   0.19262   0.97999   0.00000  Uiso   1.00
C291   C     0.55085   0.30738   0.02001   0.00000  Uiso   1.00
C292   C     0.54413   0.34190   0.38747   0.00000  Uiso   1.00
C293   C     0.95588   0.15810   0.61254   0.00000  Uiso   1.00
C294   C     0.65822   0.45559   0.38749   0.00000  Uiso   1.00
C295   C     0.84178   0.04440   0.61251   0.00000  Uiso   1.00
C296   C     0.95588   0.15810   0.38746   0.00000  Uiso   1.00
C297   C     0.92000   0.17000   0.25000   0.00000  Uiso   1.00
C298   C     0.54414   0.34190   0.61253   0.00000  Uiso   1.00
C299   C     0.84178   0.04440   0.38749   0.00000  Uiso   1.00
C300   C     0.65822   0.45561   0.61251   0.00000  Uiso   1.00
C301   C     0.79451   0.09173   0.88750   0.00000  Uiso   1.00
C302   C     0.70548   0.40827   0.11250   0.00000  Uiso   1.00
C303   C     0.90823   0.20557   0.88749   0.00000  Uiso   1.00
C304   C     0.59177   0.29441   0.11251   0.00000  Uiso   1.00
C305   C     0.70548   0.40827   0.88750   0.00000  Uiso   1.00
C306   C     0.79453   0.09173   0.11250   0.00000  Uiso   1.00
C307   C     0.59177   0.29441   0.88749   0.00000  Uiso   1.00
C308   C     0.58000   0.33000   0.75000   0.00000  Uiso   1.00
C309   C     0.90823   0.20557   0.11251   0.00000  Uiso   1.00
C310   C     0.83001   0.41999   0.25000   0.00000  Uiso   1.00
C311   C     0.66999   0.08001   0.75000   0.00000  Uiso   1.00
C312   C     0.58000   0.33000   0.25000   0.00000  Uiso   1.00
C313   C     0.92000   0.17000   0.75000   0.00000  Uiso   1.00
C314   C     0.67000   0.42000   0.75000   0.00000  Uiso   1.00
C315   C     0.83000   0.08000   0.25000   0.00000  Uiso   1.00
C316   C     0.91999   0.33001   0.75000   0.00000  Uiso   1.00
C317   C     0.75000  -0.00000   0.64406   0.00000  Uiso   1.00
C318   C     0.58001   0.16999   0.25000   0.00000  Uiso   1.00
C319   C     0.83000   0.08000   0.75000   0.00000  Uiso   1.00
C320   C     0.67000   0.42000   0.25000   0.00000  Uiso   1.00
C321   C     0.58001   0.16999   0.75000   0.00000  Uiso   1.00
C322   C     0.91999   0.33001   0.25000   0.00000  Uiso   1.00
C323   C     0.63834   0.38834   0.25000   0.00000  Uiso   1.00
C324   C     0.86166   0.11166   0.75000   0.00000  Uiso   1.00
C325   C     0.61167   0.13833   0.25000   0.00000  Uiso   1.00
C326   C     0.88833   0.36167   0.75000   0.00000  Uiso   1.00
C327   C     0.86166   0.11166   0.25000   0.00000  Uiso   1.00
C328   C     0.50000   0.25000   0.35594   0.00000  Uiso   1.00
C329   C     0.63834   0.38834   0.75000   0.00000  Uiso   1.00
C330   C     0.88833   0.36167   0.25000   0.00000  Uiso   1.00
C331   C     0.61167   0.13833   0.75000   0.00000  Uiso   1.00
C332   C     0.63833   0.11167   0.75000   0.00000  Uiso   1.00
C333   C     0.86167   0.38833   0.25000   0.00000  Uiso   1.00
C334   C     0.61166   0.36166   0.75000   0.00000  Uiso   1.00
C335   C     0.88834   0.13834   0.25000   0.00000  Uiso   1.00
C336   C     0.86167   0.38833   0.75000   0.00000  Uiso   1.00
C337   C     0.63833   0.11167   0.25000   0.00000  Uiso   1.00
C338   C     0.88834   0.13834   0.75000   0.00000  Uiso   1.00
C339   C     0.50000   0.25000   0.64406   0.00000  Uiso   1.00
C340   C     0.61166   0.36166   0.25000   0.00000  Uiso   1.00
C341   C     0.52941   0.27506   0.41839   0.00000  Uiso   1.00
C342   C     0.97059   0.22493   0.58161   0.00000  Uiso   1.00
C343   C     0.72502   0.47051   0.41840   0.00000  Uiso   1.00
C344   C     0.77498   0.02948   0.58160   0.00000  Uiso   1.00
C345   C     0.97059   0.22493   0.41839   0.00000  Uiso   1.00
C346   C     0.52941   0.27506   0.58161   0.00000  Uiso   1.00
C347   C     0.77498   0.02948   0.41840   0.00000  Uiso   1.00
C348   C     0.72502   0.47052   0.58160   0.00000  Uiso   1.00
C349   C     0.77951   0.02494   0.91840   0.00000  Uiso   1.00
C350   C     0.50000   0.25000   0.85594   0.00000  Uiso   1.00
C351   C     0.72048   0.47506   0.08160   0.00000  Uiso   1.00
C352   C     0.97503   0.22051   0.91840   0.00000  Uiso   1.00
C353   C     0.52497   0.27949   0.08160   0.00000  Uiso   1.00
C354   C     0.72049   0.47506   0.91840   0.00000  Uiso   1.00
C355   C     0.77952   0.02494   0.08160   0.00000  Uiso   1.00
C356   C     0.52497   0.27949   0.91840   0.00000  Uiso   1.00
C357   C     0.97503   0.22051   0.08160   0.00000  Uiso   1.00
C358   C     0.50000   0.25000   0.39833   0.00000  Uiso   1.00
C359   C     0.50000   0.25000   0.60167   0.00000  Uiso   1.00
C360   C     0.75000  -0.00000   0.39833   0.00000  Uiso   1.00
C361   C     0.50000   0.25000   0.14406   0.00000  Uiso   1.00
C362   C     0.75000  -0.00000   0.60167   0.00000  Uiso   1.00
C363   C     0.75000  -0.00000   0.89833   0.00000  Uiso   1.00
C364   C     0.75000  -0.00000   0.10167   0.00000  Uiso   1.00
C365   C     0.50000   0.25000   0.89833   0.00000  Uiso   1.00
C366   C     0.50000   0.25000   0.10167   0.00000  Uiso   1.00
C367   C     0.97075   0.22464   0.45913   0.00000  Uiso   1.00
C368   C     0.52925   0.27536   0.54087   0.00000  Uiso   1.00
C369   C     0.77527   0.02932   0.45914   0.00000  Uiso   1.00
C370   C     0.72473   0.47067   0.54086   0.00000  Uiso   1.00
C371   C     0.52925   0.27536   0.45913   0.00000  Uiso   1.00
C372   C     0.75000  -0.00000   0.85594   0.00000  Uiso   1.00
C373   C     0.97075   0.22464   0.54087   0.00000  Uiso   1.00
C374   C     0.72473   0.47067   0.45914   0.00000  Uiso   1.00
C375   C     0.77527   0.02932   0.54086   0.00000  Uiso   1.00
C376   C     0.72064   0.47477   0.95914   0.00000  Uiso   1.00
C377   C     0.77936   0.02523   0.04086   0.00000  Uiso   1.00
C378   C     0.52526   0.27933   0.95913   0.00000  Uiso   1.00
C379   C     0.97474   0.22067   0.04086   0.00000  Uiso   1.00
C380   C     0.77936   0.02523   0.95914   0.00000  Uiso   1.00
C381   C     0.72064   0.47477   0.04086   0.00000  Uiso   1.00
C382   C     0.97474   0.22067   0.95914   0.00000  Uiso   1.00
C383   C     0.75000  -0.00000   0.14406   0.00000  Uiso   1.00
C384   C     0.52526   0.27933   0.04086   0.00000  Uiso   1.00
C385   C     0.50000   0.25000   0.47952   0.00000  Uiso   1.00
C386   C     0.50000   0.25000   0.52048   0.00000  Uiso   1.00
C387   C     0.75000  -0.00000   0.47952   0.00000  Uiso   1.00
C388   C     0.75000  -0.00000   0.52048   0.00000  Uiso   1.00
C389   C     0.75000  -0.00000   0.97952   0.00000  Uiso   1.00
C390   C     0.75000  -0.00000   0.02048   0.00000  Uiso   1.00
C391   C     0.50000   0.25000   0.97952   0.00000  Uiso   1.00
C392   C     0.50000   0.25000   0.02048   0.00000  Uiso   1.00
C393   C     0.94280   0.19895   0.47998   0.00000  Uiso   1.00
C394   C     0.66999   0.08001   0.25000   0.00000  Uiso   1.00
C395   C     0.55721   0.30104   0.52002   0.00000  Uiso   1.00
C396   C     0.80087   0.05737   0.47999   0.00000  Uiso   1.00
C397   C     0.69914   0.44263   0.52001   0.00000  Uiso   1.00
C398   C     0.55721   0.30104   0.47998   0.00000  Uiso   1.00
C399   C     0.94280   0.19895   0.52002   0.00000  Uiso   1.00
C400   C     0.69914   0.44263   0.47998   0.00000  Uiso   1.00
C401   C     0.80087   0.05737   0.52002   0.00000  Uiso   1.00
C402   C     0.69256   0.44921   0.97998   0.00000  Uiso   1.00
C403   C     0.80744   0.05078   0.02002   0.00000  Uiso   1.00
C404   C     0.55085   0.30738   0.97998   0.00000  Uiso   1.00
H405   H     0.92075   0.17811   0.46579   0.00000  Uiso   1.00
H406   H     0.82959   0.07151   0.03421   0.00000  Uiso   1.00
H407   H     0.57161   0.32951   0.96579   0.00000  Uiso   1.00
H408   H     0.92839   0.17049   0.03421   0.00000  Uiso   1.00
H409   H     0.82959   0.07151   0.96579   0.00000  Uiso   1.00
H410   H     0.67041   0.42849   0.03421   0.00000  Uiso   1.00
H411   H     0.92839   0.17049   0.96579   0.00000  Uiso   1.00
H412   H     0.57161   0.32951   0.03421   0.00000  Uiso   1.00
H413   H     0.58942   0.29894   0.40655   0.00000  Uiso   1.00
H414   H     0.53974   0.36086   0.41413   0.00000  Uiso   1.00
H415   H     0.51387   0.34024   0.37141   0.00000  Uiso   1.00
H416   H     0.57927   0.32187   0.53421   0.00000  Uiso   1.00
H417   H     0.56776   0.35777   0.36880   0.00000  Uiso   1.00
H418   H     0.91059   0.20105   0.59345   0.00000  Uiso   1.00
H419   H     0.96028   0.13914   0.58587   0.00000  Uiso   1.00
H420   H     0.93225   0.14222   0.63120   0.00000  Uiso   1.00
H421   H     0.98613   0.15976   0.62860   0.00000  Uiso   1.00
H422   H     0.70133   0.41044   0.40654   0.00000  Uiso   1.00
H423   H     0.63926   0.45990   0.41417   0.00000  Uiso   1.00
H424   H     0.64242   0.43193   0.36882   0.00000  Uiso   1.00
H425   H     0.65977   0.48587   0.37146   0.00000  Uiso   1.00
H426   H     0.79868   0.08956   0.59345   0.00000  Uiso   1.00
H427   H     0.82163   0.07949   0.46579   0.00000  Uiso   1.00
H428   H     0.86074   0.04008   0.58584   0.00000  Uiso   1.00
H429   H     0.84023   0.01413   0.62856   0.00000  Uiso   1.00
H430   H     0.85759   0.06806   0.63118   0.00000  Uiso   1.00
H431   H     0.91059   0.20105   0.40655   0.00000  Uiso   1.00
H432   H     0.96027   0.13914   0.41412   0.00000  Uiso   1.00
H433   H     0.98613   0.15976   0.37140   0.00000  Uiso   1.00
H434   H     0.93225   0.14223   0.36879   0.00000  Uiso   1.00
H435   H     0.58942   0.29894   0.59345   0.00000  Uiso   1.00
H436   H     0.53977   0.36086   0.58586   0.00000  Uiso   1.00
H437   H     0.56775   0.35776   0.63121   0.00000  Uiso   1.00
H438   H     0.67838   0.42051   0.53421   0.00000  Uiso   1.00
H439   H     0.51387   0.34025   0.62857   0.00000  Uiso   1.00
H440   H     0.79867   0.08956   0.40655   0.00000  Uiso   1.00
H441   H     0.86074   0.04008   0.41416   0.00000  Uiso   1.00
H442   H     0.85758   0.06807   0.36882   0.00000  Uiso   1.00
H443   H     0.84023   0.01413   0.37144   0.00000  Uiso   1.00
H444   H     0.70132   0.41044   0.59346   0.00000  Uiso   1.00
H445   H     0.63926   0.45992   0.58583   0.00000  Uiso   1.00
H446   H     0.65977   0.48588   0.62855   0.00000  Uiso   1.00
H447   H     0.64241   0.43194   0.63118   0.00000  Uiso   1.00
H448   H     0.83962   0.04856   0.90654   0.00000  Uiso   1.00
H449   H     0.57926   0.32187   0.46579   0.00000  Uiso   1.00
H450   H     0.79023   0.11070   0.91418   0.00000  Uiso   1.00
H451   H     0.76423   0.09022   0.87147   0.00000  Uiso   1.00
H452   H     0.81819   0.10751   0.86883   0.00000  Uiso   1.00
H453   H     0.66038   0.45145   0.09345   0.00000  Uiso   1.00
H454   H     0.70976   0.38931   0.08582   0.00000  Uiso   1.00
H455   H     0.68179   0.39250   0.13117   0.00000  Uiso   1.00
H456   H     0.73575   0.40978   0.12854   0.00000  Uiso   1.00
H457   H     0.95135   0.16043   0.90655   0.00000  Uiso   1.00
H458   H     0.88927   0.20989   0.91417   0.00000  Uiso   1.00
H459   H     0.89243   0.18190   0.86883   0.00000  Uiso   1.00
H460   H     0.92075   0.17811   0.53421   0.00000  Uiso   1.00
H461   H     0.90977   0.23584   0.87144   0.00000  Uiso   1.00
H462   H     0.54866   0.33957   0.09345   0.00000  Uiso   1.00
H463   H     0.61073   0.29009   0.08584   0.00000  Uiso   1.00
H464   H     0.59022   0.26414   0.12855   0.00000  Uiso   1.00
H465   H     0.60758   0.31808   0.13118   0.00000  Uiso   1.00
H466   H     0.66038   0.45144   0.90654   0.00000  Uiso   1.00
H467   H     0.70977   0.38931   0.91418   0.00000  Uiso   1.00
H468   H     0.73576   0.40978   0.87146   0.00000  Uiso   1.00
H469   H     0.68180   0.39249   0.86883   0.00000  Uiso   1.00
H470   H     0.83963   0.04855   0.09346   0.00000  Uiso   1.00
H471   H     0.67838   0.42051   0.46579   0.00000  Uiso   1.00
H472   H     0.79024   0.11069   0.08582   0.00000  Uiso   1.00
H473   H     0.81821   0.10750   0.13117   0.00000  Uiso   1.00
H474   H     0.76425   0.09022   0.12854   0.00000  Uiso   1.00
H475   H     0.54866   0.33957   0.90654   0.00000  Uiso   1.00
H476   H     0.61074   0.29010   0.91417   0.00000  Uiso   1.00
H477   H     0.60758   0.31808   0.86882   0.00000  Uiso   1.00
H478   H     0.59023   0.26414   0.87145   0.00000  Uiso   1.00
H479   H     0.95135   0.16043   0.09345   0.00000  Uiso   1.00
H480   H     0.88927   0.20989   0.08584   0.00000  Uiso   1.00
H481   H     0.90978   0.23584   0.12856   0.00000  Uiso   1.00
H482   H     0.82163   0.07949   0.53421   0.00000  Uiso   1.00
H483   H     0.89243   0.18190   0.13118   0.00000  Uiso   1.00
H484   H     0.67041   0.42849   0.96579   0.00000  Uiso   1.00
N485   N     0.55869   0.30003   0.39702   0.00000  Uiso   1.00
N486   N     0.69110   0.45021   0.10297   0.00000  Uiso   1.00
N487   N     0.95015   0.19115   0.89702   0.00000  Uiso   1.00
N488   N     0.54986   0.30884   0.10298   0.00000  Uiso   1.00
N489   N     0.69110   0.45021   0.89702   0.00000  Uiso   1.00
N490   N     0.80890   0.04979   0.10298   0.00000  Uiso   1.00
N491   N     0.54986   0.30884   0.89702   0.00000  Uiso   1.00
N492   N     0.95015   0.19115   0.10298   0.00000  Uiso   1.00
N493   N     0.94131   0.19996   0.60298   0.00000  Uiso   1.00
N494   N     0.70014   0.44116   0.39702   0.00000  Uiso   1.00
N495   N     0.79987   0.05883   0.60298   0.00000  Uiso   1.00
N496   N     0.94131   0.19997   0.39702   0.00000  Uiso   1.00
N497   N     0.55869   0.30003   0.60298   0.00000  Uiso   1.00
N498   N     0.79986   0.05883   0.39702   0.00000  Uiso   1.00
N499   N     0.70013   0.44117   0.60298   0.00000  Uiso   1.00
N500   N     0.80889   0.04980   0.89702   0.00000  Uiso   1.00
O501   O     0.75000  -0.00000   0.25000   0.00000  Uiso   1.00
O502   O     0.75000   0.46538   0.66251   0.00000  Uiso   1.00
O503   O     0.96539   0.25000   0.33749   0.00000  Uiso   1.00
O504   O     0.53462   0.25000   0.66251   0.00000  Uiso   1.00
O505   O     0.50000   0.21539   0.83749   0.00000  Uiso   1.00
O506   O     0.50000   0.28462   0.16251   0.00000  Uiso   1.00
O507   O     0.78462  -0.00000   0.83749   0.00000  Uiso   1.00
O508   O     0.71539  -0.00000   0.16251   0.00000  Uiso   1.00
O509   O     0.50000   0.28462   0.83749   0.00000  Uiso   1.00
O510   O     0.50000   0.21539   0.16251   0.00000  Uiso   1.00
O511   O     0.71539  -0.00000   0.83749   0.00000  Uiso   1.00
O512   O     0.75000  -0.00000   0.75000   0.00000  Uiso   1.00
O513   O     0.78462  -0.00000   0.16251   0.00000  Uiso   1.00
O514   O     0.70127   0.08332   0.27298   0.00000  Uiso   1.00
O515   O     0.79874   0.41668   0.72702   0.00000  Uiso   1.00
O516   O     0.91668   0.20126   0.27298   0.00000  Uiso   1.00
O517   O     0.58332   0.29873   0.72702   0.00000  Uiso   1.00
O518   O     0.79874   0.41668   0.27298   0.00000  Uiso   1.00
O519   O     0.70127   0.08332   0.72702   0.00000  Uiso   1.00
O520   O     0.58332   0.29873   0.27298   0.00000  Uiso   1.00
O521   O     0.91668   0.20126   0.72702   0.00000  Uiso   1.00
O522   O     0.70127   0.41668   0.72702   0.00000  Uiso   1.00
O523   O     0.50000   0.25000   0.25000   0.00000  Uiso   1.00
O524   O     0.79874   0.08332   0.27298   0.00000  Uiso   1.00
O525   O     0.91668   0.29873   0.72702   0.00000  Uiso   1.00
O526   O     0.58332   0.20126   0.27298   0.00000  Uiso   1.00
O527   O     0.79874   0.08332   0.72702   0.00000  Uiso   1.00
O528   O     0.70127   0.41668   0.27298   0.00000  Uiso   1.00
O529   O     0.58332   0.20126   0.72702   0.00000  Uiso   1.00
O530   O     0.91668   0.29873   0.27298   0.00000  Uiso   1.00
O531   O     0.95127   0.33332   0.77298   0.00000  Uiso   1.00
O532   O     0.54874   0.16668   0.22702   0.00000  Uiso   1.00
O533   O     0.66668   0.45126   0.77298   0.00000  Uiso   1.00
O534   O     0.50000   0.25000   0.75000   0.00000  Uiso   1.00
O535   O     0.83332   0.04873   0.22702   0.00000  Uiso   1.00
O536   O     0.54874   0.16668   0.77298   0.00000  Uiso   1.00
O537   O     0.95127   0.33332   0.22702   0.00000  Uiso   1.00
O538   O     0.83332   0.04873   0.77298   0.00000  Uiso   1.00
O539   O     0.66668   0.45126   0.22702   0.00000  Uiso   1.00
O540   O     0.95127   0.16668   0.22702   0.00000  Uiso   1.00
O541   O     0.54874   0.33332   0.77298   0.00000  Uiso   1.00
O542   O     0.66668   0.04873   0.22702   0.00000  Uiso   1.00
O543   O     0.83332   0.45126   0.77298   0.00000  Uiso   1.00
O544   O     0.54874   0.33332   0.22702   0.00000  Uiso   1.00
O545   O     0.75000   0.46538   0.33749   0.00000  Uiso   1.00
O546   O     0.95127   0.16668   0.77298   0.00000  Uiso   1.00
O547   O     0.83332   0.45126   0.22702   0.00000  Uiso   1.00
O548   O     0.66668   0.04873   0.77298   0.00000  Uiso   1.00
O549   O     0.75000   0.03461   0.66251   0.00000  Uiso   1.00
O550   O     0.53462   0.25000   0.33749   0.00000  Uiso   1.00
O551   O     0.96539   0.25000   0.66251   0.00000  Uiso   1.00
O552   O     0.75000   0.03461   0.33749   0.00000  Uiso   1.00
Zn553  Zn    0.70053  -0.00000   0.21730   0.00000  Uiso   1.00
Zn554  Zn    0.54948   0.25000   0.28270   0.00000  Uiso   1.00
Zn555  Zn    0.75000   0.45052   0.71730   0.00000  Uiso   1.00
Zn556  Zn    0.75000   0.04947   0.28270   0.00000  Uiso   1.00
Zn557  Zn    0.54948   0.25000   0.71730   0.00000  Uiso   1.00
Zn558  Zn    0.95053   0.25000   0.28270   0.00000  Uiso   1.00
Zn559  Zn    0.75000   0.04947   0.71730   0.00000  Uiso   1.00
Zn560  Zn    0.75000   0.45052   0.28270   0.00000  Uiso   1.00
Zn561  Zn    0.79948  -0.00000   0.78270   0.00000  Uiso   1.00
Zn562  Zn    0.50000   0.20053   0.21730   0.00000  Uiso   1.00
Zn563  Zn    0.50000   0.29948   0.78270   0.00000  Uiso   1.00
Zn564  Zn    0.79948  -0.00000   0.21730   0.00000  Uiso   1.00
Zn565  Zn    0.70053  -0.00000   0.78270   0.00000  Uiso   1.00
Zn566  Zn    0.50000   0.29948   0.21730   0.00000  Uiso   1.00
Zn567  Zn    0.50000   0.20052   0.78270   0.00000  Uiso   1.00
Zn568  Zn    0.95053   0.25000   0.71730   0.00000  Uiso   1.00
C569   C     0.25000   0.50000   0.35594   0.00000  Uiso   1.00
C570   C     0.33001   0.91999   0.75000   0.00000  Uiso   1.00
C571   C     0.44915   0.69262   0.02002   0.00000  Uiso   1.00
C572   C     0.30744   0.55078   0.97999   0.00000  Uiso   1.00
C573   C     0.19256   0.94921   0.02002   0.00000  Uiso   1.00
C574   C     0.44915   0.69262   0.97999   0.00000  Uiso   1.00
C575   C     0.05085   0.80738   0.02001   0.00000  Uiso   1.00
C576   C     0.04413   0.84190   0.38747   0.00000  Uiso   1.00
C577   C     0.45588   0.65810   0.61254   0.00000  Uiso   1.00
C578   C     0.15822   0.95559   0.38749   0.00000  Uiso   1.00
C579   C     0.34178   0.54440   0.61251   0.00000  Uiso   1.00
C580   C     0.45588   0.65810   0.38746   0.00000  Uiso   1.00
C581   C     0.42000   0.67000   0.25000   0.00000  Uiso   1.00
C582   C     0.04414   0.84190   0.61253   0.00000  Uiso   1.00
C583   C     0.34178   0.54440   0.38749   0.00000  Uiso   1.00
C584   C     0.15822   0.95561   0.61251   0.00000  Uiso   1.00
C585   C     0.29451   0.59173   0.88750   0.00000  Uiso   1.00
C586   C     0.20548   0.90827   0.11250   0.00000  Uiso   1.00
C587   C     0.40823   0.70557   0.88749   0.00000  Uiso   1.00
C588   C     0.09177   0.79441   0.11251   0.00000  Uiso   1.00
C589   C     0.20548   0.90827   0.88750   0.00000  Uiso   1.00
C590   C     0.29453   0.59173   0.11250   0.00000  Uiso   1.00
C591   C     0.09177   0.79441   0.88749   0.00000  Uiso   1.00
C592   C     0.08000   0.83000   0.75000   0.00000  Uiso   1.00
C593   C     0.40823   0.70557   0.11251   0.00000  Uiso   1.00
C594   C     0.33001   0.91999   0.25000   0.00000  Uiso   1.00
C595   C     0.16999   0.58001   0.75000   0.00000  Uiso   1.00
C596   C     0.08000   0.83000   0.25000   0.00000  Uiso   1.00
C597   C     0.42000   0.67000   0.75000   0.00000  Uiso   1.00
C598   C     0.17000   0.92000   0.75000   0.00000  Uiso   1.00
C599   C     0.33000   0.58000   0.25000   0.00000  Uiso   1.00
C600   C     0.41999   0.83001   0.75000   0.00000  Uiso   1.00
C601   C     0.25000   0.50000   0.64406   0.00000  Uiso   1.00
C602   C     0.08001   0.66999   0.25000   0.00000  Uiso   1.00
C603   C     0.33000   0.58000   0.75000   0.00000  Uiso   1.00
C604   C     0.17000   0.92000   0.25000   0.00000  Uiso   1.00
C605   C     0.08001   0.66999   0.75000   0.00000  Uiso   1.00
C606   C     0.41999   0.83001   0.25000   0.00000  Uiso   1.00
C607   C     0.13834   0.88834   0.25000   0.00000  Uiso   1.00
C608   C     0.36166   0.61166   0.75000   0.00000  Uiso   1.00
C609   C     0.11167   0.63833   0.25000   0.00000  Uiso   1.00
C610   C     0.38833   0.86167   0.75000   0.00000  Uiso   1.00
C611   C     0.36166   0.61166   0.25000   0.00000  Uiso   1.00
C612   C     0.00000   0.75000   0.35594   0.00000  Uiso   1.00
C613   C     0.13834   0.88834   0.75000   0.00000  Uiso   1.00
C614   C     0.38833   0.86167   0.25000   0.00000  Uiso   1.00
C615   C     0.11167   0.63833   0.75000   0.00000  Uiso   1.00
C616   C     0.13833   0.61167   0.75000   0.00000  Uiso   1.00
C617   C     0.36167   0.88833   0.25000   0.00000  Uiso   1.00
C618   C     0.11166   0.86166   0.75000   0.00000  Uiso   1.00
C619   C     0.38834   0.63834   0.25000   0.00000  Uiso   1.00
C620   C     0.36167   0.88833   0.75000   0.00000  Uiso   1.00
C621   C     0.13833   0.61167   0.25000   0.00000  Uiso   1.00
C622   C     0.38834   0.63834   0.75000   0.00000  Uiso   1.00
C623   C     0.00000   0.75000   0.64406   0.00000  Uiso   1.00
C624   C     0.11166   0.86166   0.25000   0.00000  Uiso   1.00
C625   C     0.02941   0.77506   0.41839   0.00000  Uiso   1.00
C626   C     0.47059   0.72493   0.58161   0.00000  Uiso   1.00
C627   C     0.22502   0.97051   0.41840   0.00000  Uiso   1.00
C628   C     0.27498   0.52948   0.58160   0.00000  Uiso   1.00
C629   C     0.47059   0.72493   0.41839   0.00000  Uiso   1.00
C630   C     0.02941   0.77506   0.58161   0.00000  Uiso   1.00
C631   C     0.27498   0.52948   0.41840   0.00000  Uiso   1.00
C632   C     0.22502   0.97052   0.58160   0.00000  Uiso   1.00
C633   C     0.27951   0.52494   0.91840   0.00000  Uiso   1.00
C634   C    -0.00000   0.75000   0.85594   0.00000  Uiso   1.00
C635   C     0.22048   0.97506   0.08160   0.00000  Uiso   1.00
C636   C     0.47503   0.72051   0.91840   0.00000  Uiso   1.00
C637   C     0.02497   0.77949   0.08160   0.00000  Uiso   1.00
C638   C     0.22049   0.97506   0.91840   0.00000  Uiso   1.00
C639   C     0.27952   0.52494   0.08160   0.00000  Uiso   1.00
C640   C     0.02497   0.77949   0.91840   0.00000  Uiso   1.00
C641   C     0.47503   0.72051   0.08160   0.00000  Uiso   1.00
C642   C     0.00000   0.75000   0.39833   0.00000  Uiso   1.00
C643   C     0.00000   0.75000   0.60167   0.00000  Uiso   1.00
C644   C     0.25000   0.50000   0.39833   0.00000  Uiso   1.00
C645   C    -0.00000   0.75000   0.14406   0.00000  Uiso   1.00
C646   C     0.25000   0.50000   0.60167   0.00000  Uiso   1.00
C647   C     0.25000   0.50000   0.89833   0.00000  Uiso   1.00
C648   C     0.25000   0.50000   0.10167   0.00000  Uiso   1.00
C649   C    -0.00000   0.75000   0.89833   0.00000  Uiso   1.00
C650   C    -0.00000   0.75000   0.10167   0.00000  Uiso   1.00
C651   C     0.47075   0.72464   0.45913   0.00000  Uiso   1.00
C652   C     0.02925   0.77536   0.54087   0.00000  Uiso   1.00
C653   C     0.27527   0.52932   0.45914   0.00000  Uiso   1.00
C654   C     0.22473   0.97067   0.54086   0.00000  Uiso   1.00
C655   C     0.02925   0.77536   0.45913   0.00000  Uiso   1.00
C656   C     0.25000   0.50000   0.85594   0.00000  Uiso   1.00
C657   C     0.47075   0.72464   0.54087   0.00000  Uiso   1.00
C658   C     0.22473   0.97067   0.45914   0.00000  Uiso   1.00
C659   C     0.27527   0.52932   0.54086   0.00000  Uiso   1.00
C660   C     0.22064   0.97477   0.95914   0.00000  Uiso   1.00
C661   C     0.27936   0.52523   0.04086   0.00000  Uiso   1.00
C662   C     0.02526   0.77933   0.95913   0.00000  Uiso   1.00
C663   C     0.47474   0.72067   0.04086   0.00000  Uiso   1.00
C664   C     0.27936   0.52523   0.95914   0.00000  Uiso   1.00
C665   C     0.22064   0.97477   0.04086   0.00000  Uiso   1.00
C666   C     0.47474   0.72067   0.95914   0.00000  Uiso   1.00
C667   C     0.25000   0.50000   0.14406   0.00000  Uiso   1.00
C668   C     0.02526   0.77933   0.04086   0.00000  Uiso   1.00
C669   C     0.00000   0.75000   0.47952   0.00000  Uiso   1.00
C670   C     0.00000   0.75000   0.52048   0.00000  Uiso   1.00
C671   C     0.25000   0.50000   0.47952   0.00000  Uiso   1.00
C672   C     0.25000   0.50000   0.52048   0.00000  Uiso   1.00
C673   C     0.25000   0.50000   0.97952   0.00000  Uiso   1.00
C674   C     0.25000   0.50000   0.02048   0.00000  Uiso   1.00
C675   C    -0.00000   0.75000   0.97952   0.00000  Uiso   1.00
C676   C    -0.00000   0.75000   0.02048   0.00000  Uiso   1.00
C677   C     0.44280   0.69895   0.47998   0.00000  Uiso   1.00
C678   C     0.16999   0.58001   0.25000   0.00000  Uiso   1.00
C679   C     0.05721   0.80104   0.52002   0.00000  Uiso   1.00
C680   C     0.30087   0.55737   0.47999   0.00000  Uiso   1.00
C681   C     0.19914   0.94263   0.52001   0.00000  Uiso   1.00
C682   C     0.05721   0.80104   0.47998   0.00000  Uiso   1.00
C683   C     0.44280   0.69895   0.52002   0.00000  Uiso   1.00
C684   C     0.19914   0.94263   0.47998   0.00000  Uiso   1.00
C685   C     0.30087   0.55737   0.52002   0.00000  Uiso   1.00
C686   C     0.19256   0.94921   0.97998   0.00000  Uiso   1.00
C687   C     0.30744   0.55078   0.02002   0.00000  Uiso   1.00
C688   C     0.05085   0.80738   0.97998   0.00000  Uiso   1.00
H689   H     0.42075   0.67811   0.46579   0.00000  Uiso   1.00
H690   H     0.32959   0.57151   0.03421   0.00000  Uiso   1.00
H691   H     0.07161   0.82951   0.96579   0.00000  Uiso   1.00
H692   H     0.42839   0.67049   0.03421   0.00000  Uiso   1.00
H693   H     0.32959   0.57151   0.96579   0.00000  Uiso   1.00
H694   H     0.17041   0.92849   0.03421   0.00000  Uiso   1.00
H695   H     0.42839   0.67049   0.96579   0.00000  Uiso   1.00
H696   H     0.07161   0.82951   0.03421   0.00000  Uiso   1.00
H697   H     0.08942   0.79894   0.40655   0.00000  Uiso   1.00
H698   H     0.03974   0.86086   0.41413   0.00000  Uiso   1.00
H699   H     0.01387   0.84024   0.37141   0.00000  Uiso   1.00
H700   H     0.07927   0.82187   0.53421   0.00000  Uiso   1.00
H701   H     0.06776   0.85777   0.36880   0.00000  Uiso   1.00
H702   H     0.41059   0.70105   0.59345   0.00000  Uiso   1.00
H703   H     0.46028   0.63914   0.58587   0.00000  Uiso   1.00
H704   H     0.43225   0.64222   0.63120   0.00000  Uiso   1.00
H705   H     0.48613   0.65976   0.62860   0.00000  Uiso   1.00
H706   H     0.20133   0.91044   0.40654   0.00000  Uiso   1.00
H707   H     0.13926   0.95990   0.41417   0.00000  Uiso   1.00
H708   H     0.14242   0.93193   0.36882   0.00000  Uiso   1.00
H709   H     0.15977   0.98587   0.37146   0.00000  Uiso   1.00
H710   H     0.29868   0.58956   0.59345   0.00000  Uiso   1.00
H711   H     0.32163   0.57949   0.46579   0.00000  Uiso   1.00
H712   H     0.36074   0.54008   0.58584   0.00000  Uiso   1.00
H713   H     0.34023   0.51413   0.62856   0.00000  Uiso   1.00
H714   H     0.35759   0.56806   0.63118   0.00000  Uiso   1.00
H715   H     0.41059   0.70105   0.40655   0.00000  Uiso   1.00
H716   H     0.46027   0.63914   0.41412   0.00000  Uiso   1.00
H717   H     0.48613   0.65976   0.37140   0.00000  Uiso   1.00
H718   H     0.43225   0.64223   0.36879   0.00000  Uiso   1.00
H719   H     0.08942   0.79894   0.59345   0.00000  Uiso   1.00
H720   H     0.03977   0.86086   0.58586   0.00000  Uiso   1.00
H721   H     0.06775   0.85776   0.63121   0.00000  Uiso   1.00
H722   H     0.17838   0.92051   0.53421   0.00000  Uiso   1.00
H723   H     0.01387   0.84025   0.62857   0.00000  Uiso   1.00
H724   H     0.29867   0.58956   0.40655   0.00000  Uiso   1.00
H725   H     0.36074   0.54008   0.41416   0.00000  Uiso   1.00
H726   H     0.35758   0.56807   0.36882   0.00000  Uiso   1.00
H727   H     0.34023   0.51413   0.37144   0.00000  Uiso   1.00
H728   H     0.20132   0.91044   0.59346   0.00000  Uiso   1.00
H729   H     0.13926   0.95992   0.58583   0.00000  Uiso   1.00
H730   H     0.15977   0.98588   0.62855   0.00000  Uiso   1.00
H731   H     0.14241   0.93194   0.63118   0.00000  Uiso   1.00
H732   H     0.33962   0.54856   0.90654   0.00000  Uiso   1.00
H733   H     0.07926   0.82187   0.46579   0.00000  Uiso   1.00
H734   H     0.29023   0.61070   0.91418   0.00000  Uiso   1.00
H735   H     0.26423   0.59022   0.87147   0.00000  Uiso   1.00
H736   H     0.31819   0.60751   0.86883   0.00000  Uiso   1.00
H737   H     0.16038   0.95145   0.09345   0.00000  Uiso   1.00
H738   H     0.20976   0.88931   0.08582   0.00000  Uiso   1.00
H739   H     0.18179   0.89250   0.13117   0.00000  Uiso   1.00
H740   H     0.23575   0.90978   0.12854   0.00000  Uiso   1.00
H741   H     0.45135   0.66043   0.90655   0.00000  Uiso   1.00
H742   H     0.38927   0.70989   0.91417   0.00000  Uiso   1.00
H743   H     0.39243   0.68190   0.86883   0.00000  Uiso   1.00
H744   H     0.42075   0.67811   0.53421   0.00000  Uiso   1.00
H745   H     0.40977   0.73584   0.87144   0.00000  Uiso   1.00
H746   H     0.04866   0.83957   0.09345   0.00000  Uiso   1.00
H747   H     0.11073   0.79009   0.08584   0.00000  Uiso   1.00
H748   H     0.09022   0.76414   0.12855   0.00000  Uiso   1.00
H749   H     0.10758   0.81808   0.13118   0.00000  Uiso   1.00
H750   H     0.16038   0.95144   0.90654   0.00000  Uiso   1.00
H751   H     0.20977   0.88931   0.91418   0.00000  Uiso   1.00
H752   H     0.23576   0.90978   0.87146   0.00000  Uiso   1.00
H753   H     0.18180   0.89249   0.86883   0.00000  Uiso   1.00
H754   H     0.33963   0.54855   0.09346   0.00000  Uiso   1.00
H755   H     0.17838   0.92051   0.46579   0.00000  Uiso   1.00
H756   H     0.29024   0.61069   0.08582   0.00000  Uiso   1.00
H757   H     0.31821   0.60750   0.13117   0.00000  Uiso   1.00
H758   H     0.26425   0.59022   0.12854   0.00000  Uiso   1.00
H759   H     0.04866   0.83957   0.90654   0.00000  Uiso   1.00
H760   H     0.11074   0.79010   0.91417   0.00000  Uiso   1.00
H761   H     0.10758   0.81808   0.86882   0.00000  Uiso   1.00
H762   H     0.09023   0.76414   0.87145   0.00000  Uiso   1.00
H763   H     0.45135   0.66043   0.09345   0.00000  Uiso   1.00
H764   H     0.38927   0.70989   0.08584   0.00000  Uiso   1.00
H765   H     0.40978   0.73584   0.12856   0.00000  Uiso   1.00
H766   H     0.32163   0.57949   0.53421   0.00000  Uiso   1.00
H767   H     0.39243   0.68190   0.13118   0.00000  Uiso   1.00
H768   H     0.17041   0.92849   0.96579   0.00000  Uiso   1.00
N769   N     0.05869   0.80003   0.39702   0.00000  Uiso   1.00
N770   N     0.19110   0.95021   0.10297   0.00000  Uiso   1.00
N771   N     0.45015   0.69115   0.89702   0.00000  Uiso   1.00
N772   N     0.04986   0.80884   0.10298   0.00000  Uiso   1.00
N773   N     0.19110   0.95021   0.89702   0.00000  Uiso   1.00
N774   N     0.30890   0.54979   0.10298   0.00000  Uiso   1.00
N775   N     0.04986   0.80884   0.89702   0.00000  Uiso   1.00
N776   N     0.45015   0.69115   0.10298   0.00000  Uiso   1.00
N777   N     0.44131   0.69996   0.60298   0.00000  Uiso   1.00
N778   N     0.20014   0.94116   0.39702   0.00000  Uiso   1.00
N779   N     0.29987   0.55883   0.60298   0.00000  Uiso   1.00
N780   N     0.44131   0.69997   0.39702   0.00000  Uiso   1.00
N781   N     0.05869   0.80003   0.60298   0.00000  Uiso   1.00
N782   N     0.29986   0.55883   0.39702   0.00000  Uiso   1.00
N783   N     0.20013   0.94117   0.60298   0.00000  Uiso   1.00
N784   N     0.30889   0.54980   0.89702   0.00000  Uiso   1.00
O785   O     0.25000   0.50000   0.25000   0.00000  Uiso   1.00
O786   O     0.25000   0.96538   0.66251   0.00000  Uiso   1.00
O787   O     0.46539   0.75000   0.33749   0.00000  Uiso   1.00
O788   O     0.03462   0.75000   0.66251   0.00000  Uiso   1.00
O789   O     0.00000   0.71539   0.83749   0.00000  Uiso   1.00
O790   O     0.00000   0.78462   0.16251   0.00000  Uiso   1.00
O791   O     0.28462   0.50000   0.83749   0.00000  Uiso   1.00
O792   O     0.21539   0.50000   0.16251   0.00000  Uiso   1.00
O793   O     0.00000   0.78462   0.83749   0.00000  Uiso   1.00
O794   O     0.00000   0.71539   0.16251   0.00000  Uiso   1.00
O795   O     0.21539   0.50000   0.83749   0.00000  Uiso   1.00
O796   O     0.25000   0.50000   0.75000   0.00000  Uiso   1.00
O797   O     0.28462   0.50000   0.16251   0.00000  Uiso   1.00
O798   O     0.20127   0.58332   0.27298   0.00000  Uiso   1.00
O799   O     0.29874   0.91668   0.72702   0.00000  Uiso   1.00
O800   O     0.41668   0.70126   0.27298   0.00000  Uiso   1.00
O801   O     0.08332   0.79873   0.72702   0.00000  Uiso   1.00
O802   O     0.29874   0.91668   0.27298   0.00000  Uiso   1.00
O803   O     0.20127   0.58332   0.72702   0.00000  Uiso   1.00
O804   O     0.08332   0.79873   0.27298   0.00000  Uiso   1.00
O805   O     0.41668   0.70126   0.72702   0.00000  Uiso   1.00
O806   O     0.20127   0.91668   0.72702   0.00000  Uiso   1.00
O807   O     0.00000   0.75000   0.25000   0.00000  Uiso   1.00
O808   O     0.29874   0.58332   0.27298   0.00000  Uiso   1.00
O809   O     0.41668   0.79873   0.72702   0.00000  Uiso   1.00
O810   O     0.08332   0.70126   0.27298   0.00000  Uiso   1.00
O811   O     0.29874   0.58332   0.72702   0.00000  Uiso   1.00
O812   O     0.20127   0.91668   0.27298   0.00000  Uiso   1.00
O813   O     0.08332   0.70126   0.72702   0.00000  Uiso   1.00
O814   O     0.41668   0.79873   0.27298   0.00000  Uiso   1.00
O815   O     0.45127   0.83332   0.77298   0.00000  Uiso   1.00
O816   O     0.04874   0.66668   0.22702   0.00000  Uiso   1.00
O817   O     0.16668   0.95126   0.77298   0.00000  Uiso   1.00
O818   O     0.00000   0.75000   0.75000   0.00000  Uiso   1.00
O819   O     0.33332   0.54873   0.22702   0.00000  Uiso   1.00
O820   O     0.04874   0.66668   0.77298   0.00000  Uiso   1.00
O821   O     0.45127   0.83332   0.22702   0.00000  Uiso   1.00
O822   O     0.33332   0.54873   0.77298   0.00000  Uiso   1.00
O823   O     0.16668   0.95126   0.22702   0.00000  Uiso   1.00
O824   O     0.45127   0.66668   0.22702   0.00000  Uiso   1.00
O825   O     0.04874   0.83332   0.77298   0.00000  Uiso   1.00
O826   O     0.16668   0.54873   0.22702   0.00000  Uiso   1.00
O827   O     0.33332   0.95126   0.77298   0.00000  Uiso   1.00
O828   O     0.04874   0.83332   0.22702   0.00000  Uiso   1.00
O829   O     0.25000   0.96538   0.33749   0.00000  Uiso   1.00
O830   O     0.45127   0.66668   0.77298   0.00000  Uiso   1.00
O831   O     0.33332   0.95126   0.22702   0.00000  Uiso   1.00
O832   O     0.16668   0.54873   0.77298   0.00000  Uiso   1.00
O833   O     0.25000   0.53461   0.66251   0.00000  Uiso   1.00
O834   O     0.03462   0.75000   0.33749   0.00000  Uiso   1.00
O835   O     0.46539   0.75000   0.66251   0.00000  Uiso   1.00
O836   O     0.25000   0.53461   0.33749   0.00000  Uiso   1.00
Zn837  Zn    0.20053   0.50000   0.21730   0.00000  Uiso   1.00
Zn838  Zn    0.04948   0.75000   0.28270   0.00000  Uiso   1.00
Zn839  Zn    0.25000   0.95052   0.71730   0.00000  Uiso   1.00
Zn840  Zn    0.25000   0.54947   0.28270   0.00000  Uiso   1.00
Zn841  Zn    0.04948   0.75000   0.71730   0.00000  Uiso   1.00
Zn842  Zn    0.45053   0.75000   0.28270   0.00000  Uiso   1.00
Zn843  Zn    0.25000   0.54947   0.71730   0.00000  Uiso   1.00
Zn844  Zn    0.25000   0.95052   0.28270   0.00000  Uiso   1.00
Zn845  Zn    0.29948   0.50000   0.78270   0.00000  Uiso   1.00
Zn846  Zn    0.00000   0.70053   0.21730   0.00000  Uiso   1.00
Zn847  Zn    0.00000   0.79948   0.78270   0.00000  Uiso   1.00
Zn848  Zn    0.29948   0.50000   0.21730   0.00000  Uiso   1.00
Zn849  Zn    0.20053   0.50000   0.78270   0.00000  Uiso   1.00
Zn850  Zn    0.00000   0.79948   0.21730   0.00000  Uiso   1.00
Zn851  Zn    0.00000   0.70052   0.78270   0.00000  Uiso   1.00
Zn852  Zn    0.45053   0.75000   0.71730   0.00000  Uiso   1.00
C853   C     0.75000   0.50000   0.35594   0.00000  Uiso   1.00
C854   C     0.83001   0.91999   0.75000   0.00000  Uiso   1.00
C855   C     0.94915   0.69262   0.02002   0.00000  Uiso   1.00
C856   C     0.80744   0.55078   0.97999   0.00000  Uiso   1.00
C857   C     0.69256   0.94921   0.02002   0.00000  Uiso   1.00
C858   C     0.94915   0.69262   0.97999   0.00000  Uiso   1.00
C859   C     0.55085   0.80738   0.02001   0.00000  Uiso   1.00
C860   C     0.54413   0.84190   0.38747   0.00000  Uiso   1.00
C861   C     0.95588   0.65810   0.61254   0.00000  Uiso   1.00
C862   C     0.65822   0.95559   0.38749   0.00000  Uiso   1.00
C863   C     0.84178   0.54440   0.61251   0.00000  Uiso   1.00
C864   C     0.95588   0.65810   0.38746   0.00000  Uiso   1.00
C865   C     0.92000   0.67000   0.25000   0.00000  Uiso   1.00
C866   C     0.54414   0.84190   0.61253   0.00000  Uiso   1.00
C867   C     0.84178   0.54440   0.38749   0.00000  Uiso   1.00
C868   C     0.65822   0.95561   0.61251   0.00000  Uiso   1.00
C869   C     0.79451   0.59173   0.88750   0.00000  Uiso   1.00
C870   C     0.70548   0.90827   0.11250   0.00000  Uiso   1.00
C871   C     0.90823   0.70557   0.88749   0.00000  Uiso   1.00
C872   C     0.59177   0.79441   0.11251   0.00000  Uiso   1.00
C873   C     0.70548   0.90827   0.88750   0.00000  Uiso   1.00
C874   C     0.79453   0.59173   0.11250   0.00000  Uiso   1.00
C875   C     0.59177   0.79441   0.88749   0.00000  Uiso   1.00
C876   C     0.58000   0.83000   0.75000   0.00000  Uiso   1.00
C877   C     0.90823   0.70557   0.11251   0.00000  Uiso   1.00
C878   C     0.83001   0.91999   0.25000   0.00000  Uiso   1.00
C879   C     0.66999   0.58001   0.75000   0.00000  Uiso   1.00
C880   C     0.58000   0.83000   0.25000   0.00000  Uiso   1.00
C881   C     0.92000   0.67000   0.75000   0.00000  Uiso   1.00
C882   C     0.67000   0.92000   0.75000   0.00000  Uiso   1.00
C883   C     0.83000   0.58000   0.25000   0.00000  Uiso   1.00
C884   C     0.91999   0.83001   0.75000   0.00000  Uiso   1.00
C885   C     0.75000   0.50000   0.64406   0.00000  Uiso   1.00
C886   C     0.58001   0.66999   0.25000   0.00000  Uiso   1.00
C887   C     0.83000   0.58000   0.75000   0.00000  Uiso   1.00
C888   C     0.67000   0.92000   0.25000   0.00000  Uiso   1.00
C889   C     0.58001   0.66999   0.75000   0.00000  Uiso   1.00
C890   C     0.91999   0.83001   0.25000   0.00000  Uiso   1.00
C891   C     0.63834   0.88834   0.25000   0.00000  Uiso   1.00
C892   C     0.86166   0.61166   0.75000   0.00000  Uiso   1.00
C893   C     0.61167   0.63833   0.25000   0.00000  Uiso   1.00
C894   C     0.88833   0.86167   0.75000   0.00000  Uiso   1.00
C895   C     0.86166   0.61166   0.25000   0.00000  Uiso   1.00
C896   C     0.50000   0.75000   0.35594   0.00000  Uiso   1.00
C897   C     0.63834   0.88834   0.75000   0.00000  Uiso   1.00
C898   C     0.88833   0.86167   0.25000   0.00000  Uiso   1.00
C899   C     0.61167   0.63833   0.75000   0.00000  Uiso   1.00
C900   C     0.63833   0.61167   0.75000   0.00000  Uiso   1.00
C901   C     0.86167   0.88833   0.25000   0.00000  Uiso   1.00
C902   C     0.61166   0.86166   0.75000   0.00000  Uiso   1.00
C903   C     0.88834   0.63834   0.25000   0.00000  Uiso   1.00
C904   C     0.86167   0.88833   0.75000   0.00000  Uiso   1.00
C905   C     0.63833   0.61167   0.25000   0.00000  Uiso   1.00
C906   C     0.88834   0.63834   0.75000   0.00000  Uiso   1.00
C907   C     0.50000   0.75000   0.64406   0.00000  Uiso   1.00
C908   C     0.61166   0.86166   0.25000   0.00000  Uiso   1.00
C909   C     0.52941   0.77506   0.41839   0.00000  Uiso   1.00
C910   C     0.97059   0.72493   0.58161   0.00000  Uiso   1.00
C911   C     0.72502   0.97051   0.41840   0.00000  Uiso   1.00
C912   C     0.77498   0.52948   0.58160   0.00000  Uiso   1.00
C913   C     0.97059   0.72493   0.41839   0.00000  Uiso   1.00
C914   C     0.52941   0.77506   0.58161   0.00000  Uiso   1.00
C915   C     0.77498   0.52948   0.41840   0.00000  Uiso   1.00
C916   C     0.72502   0.97052   0.58160   0.00000  Uiso   1.00
C917   C     0.77951   0.52494   0.91840   0.00000  Uiso   1.00
C918   C     0.50000   0.75000   0.85594   0.00000  Uiso   1.00
C919   C     0.72048   0.97506   0.08160   0.00000  Uiso   1.00
C920   C     0.97503   0.72051   0.91840   0.00000  Uiso   1.00
C921   C     0.52497   0.77949   0.08160   0.00000  Uiso   1.00
C922   C     0.72049   0.97506   0.91840   0.00000  Uiso   1.00
C923   C     0.77952   0.52494   0.08160   0.00000  Uiso   1.00
C924   C     0.52497   0.77949   0.91840   0.00000  Uiso   1.00
C925   C     0.97503   0.72051   0.08160   0.00000  Uiso   1.00
C926   C     0.50000   0.75000   0.39833   0.00000  Uiso   1.00
C927   C     0.50000   0.75000   0.60167   0.00000  Uiso   1.00
C928   C     0.75000   0.50000   0.39833   0.00000  Uiso   1.00
C929   C     0.50000   0.75000   0.14406   0.00000  Uiso   1.00
C930   C     0.75000   0.50000   0.60167   0.00000  Uiso   1.00
C931   C     0.75000   0.50000   0.89833   0.00000  Uiso   1.00
C932   C     0.75000   0.50000   0.10167   0.00000  Uiso   1.00
C933   C     0.50000   0.75000   0.89833   0.00000  Uiso   1.00
C934   C     0.50000   0.75000   0.10167   0.00000  Uiso   1.00
C935   C     0.97075   0.72464   0.45913   0.00000  Uiso   1.00
C936   C     0.52925   0.77536   0.54087   0.00000  Uiso   1.00
C937   C     0.77527   0.52932   0.45914   0.00000  Uiso   1.00
C938   C     0.72473   0.97067   0.54086   0.00000  Uiso   1.00
C939   C     0.52925   0.77536   0.45913   0.00000  Uiso   1.00
C940   C     0.75000   0.50000   0.85594   0.00000  Uiso   1.00
C941   C     0.97075   0.72464   0.54087   0.00000  Uiso   1.00
C942   C     0.72473   0.97067   0.45914   0.00000  Uiso   1.00
C943   C     0.77527   0.52932   0.54086   0.00000  Uiso   1.00
C944   C     0.72064   0.97477   0.95914   0.00000  Uiso   1.00
C945   C     0.77936   0.52523   0.04086   0.00000  Uiso   1.00
C946   C     0.52526   0.77933   0.95913   0.00000  Uiso   1.00
C947   C     0.97474   0.72067   0.04086   0.00000  Uiso   1.00
C948   C     0.77936   0.52523   0.95914   0.00000  Uiso   1.00
C949   C     0.72064   0.97477   0.04086   0.00000  Uiso   1.00
C950   C     0.97474   0.72067   0.95914   0.00000  Uiso   1.00
C951   C     0.75000   0.50000   0.14406   0.00000  Uiso   1.00
C952   C     0.52526   0.77933   0.04086   0.00000  Uiso   1.00
C953   C     0.50000   0.75000   0.47952   0.00000  Uiso   1.00
C954   C     0.50000   0.75000   0.52048   0.00000  Uiso   1.00
C955   C     0.75000   0.50000   0.47952   0.00000  Uiso   1.00
C956   C     0.75000   0.50000   0.52048   0.00000  Uiso   1.00
C957   C     0.75000   0.50000   0.97952   0.00000  Uiso   1.00
C958   C     0.75000   0.50000   0.02048   0.00000  Uiso   1.00
C959   C     0.50000   0.75000   0.97952   0.00000  Uiso   1.00
C960   C     0.50000   0.75000   0.02048   0.00000  Uiso   1.00
C961   C     0.94280   0.69895   0.47998   0.00000  Uiso   1.00
C962   C     0.66999   0.58001   0.25000   0.00000  Uiso   1.00
C963   C     0.55721   0.80104   0.52002   0.00000  Uiso   1.00
C964   C     0.80087   0.55737   0.47999   0.00000  Uiso   1.00
C965   C     0.69914   0.94263   0.52001   0.00000  Uiso   1.00
C966   C     0.55721   0.80104   0.47998   0.00000  Uiso   1.00
C967   C     0.94280   0.69895   0.52002   0.00000  Uiso   1.00
C968   C     0.69914   0.94263   0.47998   0.00000  Uiso   1.00
C969   C     0.80087   0.55737   0.52002   0.00000  Uiso   1.00
C970   C     0.69256   0.94921   0.97998   0.00000  Uiso   1.00
C971   C     0.80744   0.55078   0.02002   0.00000  Uiso   1.00
C972   C     0.55085   0.80738   0.97998   0.00000  Uiso   1.00
H973   H     0.92075   0.67811   0.46579   0.00000  Uiso   1.00
H974   H     0.82959   0.57151   0.03421   0.00000  Uiso   1.00
H975   H     0.57161   0.82951   0.96579   0.00000  Uiso   1.00
H976   H     0.92839   0.67049   0.03421   0.00000  Uiso   1.00
H977   H     0.82959   0.57151   0.96579   0.00000  Uiso   1.00
H978   H     0.67041   0.92849   0.03421   0.00000  Uiso   1.00
H979   H     0.92839   0.67049   0.96579   0.00000  Uiso   1.00
H980   H     0.57161   0.82951   0.03421   0.00000  Uiso   1.00
H981   H     0.58942   0.79894   0.40655   0.00000  Uiso   1.00
H982   H     0.53974   0.86086   0.41413   0.00000  Uiso   1.00
H983   H     0.51387   0.84024   0.37141   0.00000  Uiso   1.00
H984   H     0.57927   0.82187   0.53421   0.00000  Uiso   1.00
H985   H     0.56776   0.85777   0.36880   0.00000  Uiso   1.00
H986   H     0.91059   0.70105   0.59345   0.00000  Uiso   1.00
H987   H     0.96028   0.63914   0.58587   0.00000  Uiso   1.00
H988   H     0.93225   0.64222   0.63120   0.00000  Uiso   1.00
H989   H     0.98613   0.65976   0.62860   0.00000  Uiso   1.00
H990   H     0.70133   0.91044   0.40654   0.00000  Uiso   1.00
H991   H     0.63926   0.95990   0.41417   0.00000  Uiso   1.00
H992   H     0.64242   0.93193   0.36882   0.00000  Uiso   1.00
H993   H     0.65977   0.98587   0.37146   0.00000  Uiso   1.00
H994   H     0.79868   0.58956   0.59345   0.00000  Uiso   1.00
H995   H     0.82163   0.57949   0.46579   0.00000  Uiso   1.00
H996   H     0.86074   0.54008   0.58584   0.00000  Uiso   1.00
H997   H     0.84023   0.51413   0.62856   0.00000  Uiso   1.00
H998   H     0.85759   0.56806   0.63118   0.00000  Uiso   1.00
H999   H     0.91059   0.70105   0.40655   0.00000  Uiso   1.00
H1000  H     0.96027   0.63914   0.41412   0.00000  Uiso   1.00
H1001  H     0.98613   0.65976   0.37140   0.00000  Uiso   1.00
H1002  H     0.93225   0.64223   0.36879   0.00000  Uiso   1.00
H1003  H     0.58942   0.79894   0.59345   0.00000  Uiso   1.00
H1004  H     0.53977   0.86086   0.58586   0.00000  Uiso   1.00
H1005  H     0.56775   0.85776   0.63121   0.00000  Uiso   1.00
H1006  H     0.67838   0.92051   0.53421   0.00000  Uiso   1.00
H1007  H     0.51387   0.84025   0.62857   0.00000  Uiso   1.00
H1008  H     0.79867   0.58956   0.40655   0.00000  Uiso   1.00
H1009  H     0.86074   0.54008   0.41416   0.00000  Uiso   1.00
H1010  H     0.85758   0.56807   0.36882   0.00000  Uiso   1.00
H1011  H     0.84023   0.51413   0.37144   0.00000  Uiso   1.00
H1012  H     0.70132   0.91044   0.59346   0.00000  Uiso   1.00
H1013  H     0.63926   0.95992   0.58583   0.00000  Uiso   1.00
H1014  H     0.65977   0.98588   0.62855   0.00000  Uiso   1.00
H1015  H     0.64241   0.93194   0.63118   0.00000  Uiso   1.00
H1016  H     0.83962   0.54856   0.90654   0.00000  Uiso   1.00
H1017  H     0.57926   0.82187   0.46579   0.00000  Uiso   1.00
H1018  H     0.79023   0.61070   0.91418   0.00000  Uiso   1.00
H1019  H     0.76423   0.59022   0.87147   0.00000  Uiso   1.00
H1020  H     0.81819   0.60751   0.86883   0.00000  Uiso   1.00
H1021  H     0.66038   0.95145   0.09345   0.00000  Uiso   1.00
H1022  H     0.70976   0.88931   0.08582   0.00000  Uiso   1.00
H1023  H     0.68179   0.89250   0.13117   0.00000  Uiso   1.00
H1024  H     0.73575   0.90978   0.12854   0.00000  Uiso   1.00
H1025  H     0.95135   0.66043   0.90655   0.00000  Uiso   1.00
H1026  H     0.88927   0.70989   0.91417   0.00000  Uiso   1.00
H1027  H     0.89243   0.68190   0.86883   0.00000  Uiso   1.00
H1028  H     0.92075   0.67811   0.53421   0.00000  Uiso   1.00
H1029  H     0.90977   0.73584   0.87144   0.00000  Uiso   1.00
H1030  H     0.54866   0.83957   0.09345   0.00000  Uiso   1.00
H1031  H     0.61073   0.79009   0.08584   0.00000  Uiso   1.00
H1032  H     0.59022   0.76414   0.12855   0.00000  Uiso   1.00
H1033  H     0.60758   0.81808   0.13118   0.00000  Uiso   1.00
H1034  H     0.66038   0.95144   0.90654   0.00000  Uiso   1.00
H1035  H     0.70977   0.88931   0.91418   0.00000  Uiso   1.00
H1036  H     0.73576   0.90978   0.87146   0.00000  Uiso   1.00
H1037  H     0.68180   0.89249   0.86883   0.00000  Uiso   1.00
H1038  H     0.83963   0.54855   0.09346   0.00000  Uiso   1.00
H1039  H     0.67838   0.92051   0.46579   0.00000  Uiso   1.00
H1040  H     0.79024   0.61069   0.08582   0.00000  Uiso   1.00
H1041  H     0.81821   0.60750   0.13117   0.00000  Uiso   1.00
H1042  H     0.76425   0.59022   0.12854   0.00000  Uiso   1.00
H1043  H     0.54866   0.83957   0.90654   0.00000  Uiso   1.00
H1044  H     0.61074   0.79010   0.91417   0.00000  Uiso   1.00
H1045  H     0.60758   0.81808   0.86882   0.00000  Uiso   1.00
H1046  H     0.59023   0.76414   0.87145   0.00000  Uiso   1.00
H1047  H     0.95135   0.66043   0.09345   0.00000  Uiso   1.00
H1048  H     0.88927   0.70989   0.08584   0.00000  Uiso   1.00
H1049  H     0.90978   0.73584   0.12856   0.00000  Uiso   1.00
H1050  H     0.82163   0.57949   0.53421   0.00000  Uiso   1.00
H1051  H     0.89243   0.68190   0.13118   0.00000  Uiso   1.00
H1052  H     0.67041   0.92849   0.96579   0.00000  Uiso   1.00
N1053  N     0.55869   0.80003   0.39702   0.00000  Uiso   1.00
N1054  N     0.69110   0.95021   0.10297   0.00000  Uiso   1.00
N1055  N     0.95015   0.69115   0.89702   0.00000  Uiso   1.00
N1056  N     0.54986   0.80884   0.10298   0.00000  Uiso   1.00
N1057  N     0.69110   0.95021   0.89702   0.00000  Uiso   1.00
N1058  N     0.80890   0.54979   0.10298   0.00000  Uiso   1.00
N1059  N     0.54986   0.80884   0.89702   0.00000  Uiso   1.00
N1060  N     0.95015   0.69115   0.10298   0.00000  Uiso   1.00
N1061  N     0.94131   0.69996   0.60298   0.00000  Uiso   1.00
N1062  N     0.70014   0.94116   0.39702   0.00000  Uiso   1.00
N1063  N     0.79987   0.55883   0.60298   0.00000  Uiso   1.00
N1064  N     0.94131   0.69997   0.39702   0.00000  Uiso   1.00
N1065  N     0.55869   0.80003   0.60298   0.00000  Uiso   1.00
N1066  N     0.79986   0.55883   0.39702   0.00000  Uiso   1.00
N1067  N     0.70013   0.94117   0.60298   0.00000  Uiso   1.00
N1068  N     0.80889   0.54980   0.89702   0.00000  Uiso   1.00
O1069  O     0.75000   0.50000   0.25000   0.00000  Uiso   1.00
O1070  O     0.75000   0.96538   0.66251   0.00000  Uiso   1.00
O1071  O     0.96539   0.75000   0.33749   0.00000  Uiso   1.00
O1072  O     0.53462   0.75000   0.66251   0.00000  Uiso   1.00
O1073  O     0.50000   0.71539   0.83749   0.00000  Uiso   1.00
O1074  O     0.50000   0.78462   0.16251   0.00000  Uiso   1.00
O1075  O     0.78462   0.50000   0.83749   0.00000  Uiso   1.00
O1076  O     0.71539   0.50000   0.16251   0.00000  Uiso   1.00
O1077  O     0.50000   0.78462   0.83749   0.00000  Uiso   1.00
O1078  O     0.50000   0.71539   0.16251   0.00000  Uiso   1.00
O1079  O     0.71539   0.50000   0.83749   0.00000  Uiso   1.00
O1080  O     0.75000   0.50000   0.75000   0.00000  Uiso   1.00
O1081  O     0.78462   0.50000   0.16251   0.00000  Uiso   1.00
O1082  O     0.70127   0.58332   0.27298   0.00000  Uiso   1.00
O1083  O     0.79874   0.91668   0.72702   0.00000  Uiso   1.00
O1084  O     0.91668   0.70126   0.27298   0.00000  Uiso   1.00
O1085  O     0.58332   0.79873   0.72702   0.00000  Uiso   1.00
O1086  O     0.79874   0.91668   0.27298   0.00000  Uiso   1.00
O1087  O     0.70127   0.58332   0.72702   0.00000  Uiso   1.00
O1088  O     0.58332   0.79873   0.27298   0.00000  Uiso   1.00
O1089  O     0.91668   0.70126   0.72702   0.00000  Uiso   1.00
O1090  O     0.70127   0.91668   0.72702   0.00000  Uiso   1.00
O1091  O     0.50000   0.75000   0.25000   0.00000  Uiso   1.00
O1092  O     0.79874   0.58332   0.27298   0.00000  Uiso   1.00
O1093  O     0.91668   0.79873   0.72702   0.00000  Uiso   1.00
O1094  O     0.58332   0.70126   0.27298   0.00000  Uiso   1.00
O1095  O     0.79874   0.58332   0.72702   0.00000  Uiso   1.00
O1096  O     0.70127   0.91668   0.27298   0.00000  Uiso   1.00
O1097  O     0.58332   0.70126   0.72702   0.00000  Uiso   1.00
O1098  O     0.91668   0.79873   0.27298   0.00000  Uiso   1.00
O1099  O     0.95127   0.83332   0.77298   0.00000  Uiso   1.00
O1100  O     0.54874   0.66668   0.22702   0.00000  Uiso   1.00
O1101  O     0.66668   0.95126   0.77298   0.00000  Uiso   1.00
O1102  O     0.50000   0.75000   0.75000   0.00000  Uiso   1.00
O1103  O     0.83332   0.54873   0.22702   0.00000  Uiso   1.00
O1104  O     0.54874   0.66668   0.77298   0.00000  Uiso   1.00
O1105  O     0.95127   0.83332   0.22702   0.00000  Uiso   1.00
O1106  O     0.83332   0.54873   0.77298   0.00000  Uiso   1.00
O1107  O     0.66668   0.95126   0.22702   0.00000  Uiso   1.00
O1108  O     0.95127   0.66668   0.22702   0.00000  Uiso   1.00
O1109  O     0.54874   0.83332   0.77298   0.00000  Uiso   1.00
O1110  O     0.66668   0.54873   0.22702   0.00000  Uiso   1.00
O1111  O     0.83332   0.95126   0.77298   0.00000  Uiso   1.00
O1112  O     0.54874   0.83332   0.22702   0.00000  Uiso   1.00
O1113  O     0.75000   0.96538   0.33749   0.00000  Uiso   1.00
O1114  O     0.95127   0.66668   0.77298   0.00000  Uiso   1.00
O1115  O     0.83332   0.95126   0.22702   0.00000  Uiso   1.00
O1116  O     0.66668   0.54873   0.77298   0.00000  Uiso   1.00
O1117  O     0.75000   0.53461   0.66251   0.00000  Uiso   1.00
O1118  O     0.53462   0.75000   0.33749   0.00000  Uiso   1.00
O1119  O     0.96539   0.75000   0.66251   0.00000  Uiso   1.00
O1120  O     0.75000   0.53461   0.33749   0.00000  Uiso   1.00
Zn1121 Zn    0.70053   0.50000   0.21730   0.00000  Uiso   1.00
Zn1122 Zn    0.54948   0.75000   0.28270   0.00000  Uiso   1.00
Zn1123 Zn    0.75000   0.95052   0.71730   0.00000  Uiso   1.00
Zn1124 Zn    0.75000   0.54947   0.28270   0.00000  Uiso   1.00
Zn1125 Zn    0.54948   0.75000   0.71730   0.00000  Uiso   1.00
Zn1126 Zn    0.95053   0.75000   0.28270   0.00000  Uiso   1.00
Zn1127 Zn    0.75000   0.54947   0.71730   0.00000  Uiso   1.00
Zn1128 Zn    0.75000   0.95052   0.28270   0.00000  Uiso   1.00
Zn1129 Zn    0.79948   0.50000   0.78270   0.00000  Uiso   1.00
Zn1130 Zn    0.50000   0.70053   0.21730   0.00000  Uiso   1.00
Zn1131 Zn    0.50000   0.79948   0.78270   0.00000  Uiso   1.00
Zn1132 Zn    0.79948   0.50000   0.21730   0.00000  Uiso   1.00
Zn1133 Zn    0.70053   0.50000   0.78270   0.00000  Uiso   1.00
Zn1134 Zn    0.50000   0.79948   0.21730   0.00000  Uiso   1.00
Zn1135 Zn    0.50000   0.70052   0.78270   0.00000  Uiso   1.00
Zn1136 Zn    0.95053   0.75000   0.71730   0.00000  Uiso   1.00
loop_
_geom_bond_atom_site_label_1
_geom_bond_atom_site_label_2
_geom_bond_distance
_geom_bond_site_symmetry_2
_ccdc_geom_bond_type
C1     O829    1.271   1_545 A
C1     C76     1.467   .     S
C1     O268    1.271   .     S
C2     C52     1.422   .     S
C2     O259    1.277   .     A
C2     O231    1.277   .     A
C3     H124    1.081   .     S
C3     C95     1.404   .     A
C3     C6      1.386   1_554 S
C4     H125    1.081   .     S
C4     C96     1.404   .     A
C4     C119    1.386   1_556 S
C5     H126    1.081   .     S
C5     C97     1.404   .     A
C5     C118    1.386   1_554 S
C6     C98     1.404   .     A
C6     H127    1.081   .     S
C6     C3      1.386   1_556 S
C7     H128    1.081   .     S
C7     C100    1.404   .     A
C7     C120    1.386   1_554 S
C8     N201    1.446   .     S
C8     H131    1.111   .     S
C8     H130    1.111   .     S
C8     H133    1.110   .     S
C9     H137    1.111   .     S
C9     N209    1.446   .     S
C9     H136    1.110   .     S
C9     H135    1.111   .     S
C10    H140    1.110   .     S
C10    N210    1.446   .     S
C10    H139    1.111   .     S
C10    H141    1.111   .     S
C11    N211    1.446   .     S
C11    H144    1.111   .     S
C11    H145    1.111   .     S
C11    H146    1.110   .     S
C12    N212    1.446   .     S
C12    H150    1.110   .     S
C12    H149    1.111   .     S
C12    H148    1.111   .     S
C13    C51     1.420   .     S
C13    O256    1.277   .     A
C13    O232    1.277   .     A
C14    N213    1.446   .     S
C14    H153    1.110   .     S
C14    H155    1.111   .     S
C14    H152    1.111   .     S
C15    N214    1.446   .     S
C15    H158    1.110   .     S
C15    H159    1.111   .     S
C15    H157    1.111   .     S
C16    H163    1.110   .     S
C16    H162    1.111   .     S
C16    N215    1.446   .     S
C16    H161    1.111   .     S
C17    H166    1.111   .     S
C17    N216    1.446   .     S
C17    H168    1.110   .     S
C17    H167    1.111   .     S
C18    H171    1.110   .     S
C18    H170    1.111   .     S
C18    N202    1.446   .     S
C18    H172    1.111   .     S
C19    H175    1.110   .     S
C19    N203    1.446   .     S
C19    H177    1.111   .     S
C19    H174    1.111   .     S
C20    H180    1.111   .     S
C20    H179    1.111   .     S
C20    N204    1.446   .     S
C20    H181    1.110   .     S
C21    H184    1.111   .     S
C21    N205    1.446   .     S
C21    H185    1.110   .     S
C21    H183    1.111   .     S
C22    N206    1.446   .     S
C22    H190    1.111   .     S
C22    H189    1.110   .     S
C22    H188    1.111   .     S
C23    H192    1.111   .     S
C23    H193    1.110   .     S
C23    N207    1.446   .     S
C23    H194    1.111   .     S
C24    O233    1.277   .     A
C24    C50     1.420   .     S
C24    O257    1.277   .     A
C25    N208    1.446   .     S
C25    H197    1.111   .     S
C25    H199    1.110   .     S
C25    H196    1.111   .     S
C26    O234    1.277   .     A
C26    O263    1.277   .     A
C26    C49     1.422   .     S
C27    C48     1.422   .     S
C27    O235    1.277   .     A
C27    O264    1.277   .     A
C28    C56     1.420   .     S
C28    O260    1.277   .     A
C28    O236    1.277   .     A
C29    O237    1.277   .     A
C29    O262    1.277   .     A
C29    C54     1.420   .     S
C30    C45     1.420   .     S
C30    O238    1.277   .     A
C30    O249    1.277   .     A
C31    O240    1.277   .     A
C31    C43     1.420   .     S
C31    O251    1.277   .     A
C32    O241    1.277   .     A
C32    O247    1.277   .     A
C32    C42     1.422   .     S
C33    C78     1.467   .     S
C33    O786    1.271   1_545 A
C33    O265    1.271   .     S
C34    O242    1.277   .     A
C34    O248    1.277   .     A
C34    C41     1.422   .     S
C35    O243    1.277   .     A
C35    O254    1.277   .     A
C35    C40     1.420   .     S
C36    O255    1.277   .     A
C36    O244    1.277   .     A
C36    C39     1.420   .     S
C37    O245    1.277   .     A
C37    C47     1.422   .     S
C37    O252    1.277   .     A
C38    O246    1.277   .     A
C38    C46     1.422   .     S
C38    O253    1.277   .     A
C39    C56     1.197   .     T
C40    C54     1.197   .     T
C41    C53     1.198   .     T
C42    C52     1.198   .     T
C43    C51     1.197   .     T
C44    O266    1.271   .     A
C44    C74     1.467   .     S
C44    O503    1.271   1_455 S
C45    C50     1.197   .     T
C46    C49     1.198   .     T
C47    C48     1.198   .     T
C53    C110    1.422   .     S
C55    O220    1.271   .     A
C55    C75     1.467   .     S
C55    O551    1.271   1_455 S
C57    C87     1.410   .     A
C57    C74     1.409   .     A
C57    N201    1.428   .     S
C58    N209    1.428   .     S
C58    C89     1.410   .     A
C58    C359    1.409   .     S
C59    N210    1.428   .     S
C59    C644    1.409   .     A
C59    C90     1.410   .     A
C60    C91     1.410   .     A
C60    N211    1.428   .     S
C60    C78     1.409   .     S
C61    C83     1.410   .     A
C61    N212    1.428   .     S
C61    C358    1.409   .     S
C62    C84     1.410   .     A
C62    N213    1.428   .     S
C62    C75     1.409   .     A
C63    C85     1.410   .     A
C63    N214    1.428   .     S
C63    C76     1.409   .     S
C64    N215    1.428   .     S
C64    C86     1.410   .     A
C64    C646    1.409   .     A
C65    N216    1.428   .     S
C65    C96     1.410   .     A
C65    C79     1.409   .     S
C66    C81     1.467   .     S
C66    O221    1.271   .     S
C66    O225    1.271   .     S
C67    C97     1.410   .     A
C67    C648    1.409   .     A
C67    N202    1.428   .     S
C68    C365    1.409   .     A
C68    N203    1.428   .     S
C68    C98     1.410   .     A
C69    C100    1.410   .     A
C69    N204    1.428   .     S
C69    C82     1.409   .     S
C70    N205    1.428   .     S
C70    C92     1.410   .     A
C70    C647    1.409   .     A
C71    N206    1.428   .     S
C71    C93     1.410   .     A
C71    C80     1.409   .     S
C72    N207    1.428   .     S
C72    C94     1.410   .     A
C72    C81     1.409   .     S
C73    N208    1.428   .     S
C73    C95     1.410   .     A
C73    C366    1.409   .     A
C74    C345    1.409   1_455 S
C75    C342    1.409   1_455 S
C76    C627    1.409   1_545 A
C77    C82     1.467   .     S
C77    O222    1.271   .     S
C77    O226    1.271   .     S
C78    C632    1.409   1_545 A
C79    C88     1.467   .     S
C79    C638    1.409   1_545 A
C80    C635    1.409   1_545 A
C80    C99     1.467   .     S
C81    C352    1.409   1_455 A
C82    C357    1.409   1_455 A
C83    C109    1.404   .     A
C83    C385    1.417   .     S
C84    C102    1.417   .     A
C84    C111    1.404   .     A
C85    C112    1.404   .     A
C85    C103    1.417   .     S
C86    C672    1.417   .     A
C86    C113    1.404   .     A
C87    C114    1.404   .     A
C87    C101    1.417   .     A
C88    O223    1.271   .     S
C88    O227    1.271   .     S
C89    C115    1.404   .     A
C89    C386    1.417   .     S
C90    C116    1.404   .     A
C90    C671    1.416   .     A
C91    C117    1.404   .     A
C91    C104    1.416   .     S
C92    C118    1.404   .     A
C92    C673    1.417   .     A
C93    C119    1.404   .     A
C93    C106    1.416   .     S
C94    C120    1.404   .     A
C94    C107    1.417   .     S
C95    C392    1.416   .     A
C96    C105    1.416   .     S
C97    C674    1.416   .     A
C98    C391    1.416   .     A
C99    O229    1.271   .     A
C99    O224    1.271   .     A
C100   C108    1.416   .     S
C101   C102    1.418   .     A
C101   C367    1.417   1_455 S
C102   C373    1.417   1_455 S
C103   C658    1.416   1_545 A
C103   C104    1.418   .     A
C104   C654    1.417   1_545 A
C105   C660    1.417   1_545 A
C105   C106    1.418   1_556 S
C106   C665    1.416   1_545 A
C106   C105    1.418   1_554 S
C107   C382    1.416   1_455 A
C107   C108    1.418   1_556 S
C108   C379    1.416   1_455 A
C108   C107    1.418   1_554 S
C109   C115    1.386   .     A
C109   H121    1.081   .     S
C110   O258    1.277   .     A
C110   O230    1.277   .     A
C111   H132    1.081   .     S
C111   C114    1.386   .     A
C112   H143    1.081   .     S
C112   C117    1.386   .     A
C113   H154    1.081   .     S
C113   C116    1.386   .     A
C114   H165    1.081   .     S
C115   H176    1.081   .     S
C116   H187    1.081   .     S
C117   H198    1.081   .     S
C118   H200    1.081   .     S
C118   C5      1.386   1_556 S
C119   H122    1.081   .     S
C119   C4      1.386   1_554 S
C120   H123    1.081   .     S
C120   C7      1.386   1_556 S
H129   N201    1.031   .     S
H134   N209    1.031   .     S
H138   N210    1.031   .     S
H142   N211    1.031   .     S
H147   N212    1.031   .     S
H151   N213    1.031   .     S
H156   N214    1.031   .     S
H160   N215    1.031   .     S
H164   N216    1.031   .     S
H169   N202    1.031   .     S
H173   N203    1.031   .     S
H178   N204    1.031   .     S
H182   N205    1.031   .     S
H186   N206    1.031   .     S
H191   N207    1.031   .     S
H195   N208    1.031   .     S
O217   Zn280   1.936   .     S
O217   Zn272   1.936   .     S
O217   Zn269   1.936   .     S
O217   Zn844   1.936   1_545 S
O218   C601    1.271   .     A
O218   Zn271   1.954   .     S
O219   Zn274   1.954   .     S
O219   C328    1.271   .     S
O220   Zn273   1.954   .     S
O221   Zn283   1.954   .     S
O222   Zn282   1.954   .     S
O223   Zn277   1.954   .     S
O224   Zn269   1.954   .     S
O225   Zn279   1.954   .     S
O226   Zn278   1.954   .     S
O227   Zn281   1.954   .     S
O228   Zn275   1.936   .     S
O228   Zn277   1.936   .     S
O228   Zn281   1.936   .     S
O228   Zn839   1.936   1_545 S
O229   Zn280   1.954   .     S
O230   Zn272   1.915   .     S
O231   Zn271   1.915   .     S
O232   Zn274   1.913   .     S
O233   Zn273   1.913   .     S
O234   Zn276   1.915   .     S
O235   Zn275   1.915   .     S
O236   Zn270   1.913   .     S
O237   Zn284   1.913   .     S
O238   Zn271   1.913   .     S
O239   Zn278   1.936   .     S
O239   Zn282   1.936   .     S
O239   Zn270   1.936   .     S
O239   Zn558   1.936   1_455 S
O240   Zn272   1.913   .     S
O241   Zn284   1.915   .     S
O242   Zn270   1.915   .     S
O243   Zn275   1.913   .     S
O244   Zn276   1.913   .     S
O245   Zn273   1.915   .     S
O246   Zn274   1.915   .     S
O247   Zn563   1.915   .     S
O248   Zn278   1.915   .     S
O249   Zn849   1.913   .     S
O250   Zn273   1.936   .     S
O250   Zn279   1.936   .     S
O250   Zn283   1.936   .     S
O250   Zn568   1.936   1_455 S
O251   Zn280   1.913   .     S
O252   Zn283   1.915   .     S
O253   Zn566   1.915   .     S
O254   Zn277   1.913   .     S
O255   Zn837   1.913   .     S
O256   Zn562   1.913   .     S
O257   Zn279   1.913   .     S
O258   Zn269   1.915   .     S
O259   Zn845   1.915   .     S
O260   Zn282   1.913   .     S
O261   Zn276   1.954   .     S
O261   C569    1.271   .     A
O262   Zn567   1.913   .     S
O263   Zn848   1.915   .     S
O264   Zn281   1.915   .     S
O265   Zn275   1.954   .     S
O266   Zn270   1.954   .     S
O267   Zn284   1.954   .     S
O267   C339    1.271   .     S
O268   Zn272   1.954   .     S
Zn269  O823    1.913   1_545 S
Zn271  O796    1.936   .     S
Zn274  O523    1.936   .     S
Zn276  O785    1.936   .     S
Zn277  O827    1.915   1_545 S
Zn278  O540    1.913   1_455 S
Zn279  O531    1.915   1_455 S
Zn280  O831    1.915   1_545 S
Zn281  O817    1.913   1_545 S
Zn282  O537    1.915   1_455 S
Zn283  O546    1.913   1_455 S
Zn284  O534    1.936   .     S
C285   O1113   1.271   1_545 A
C285   C360    1.467   .     S
C285   O552    1.271   .     S
C286   C336    1.422   .     S
C286   O543    1.277   .     A
C286   O515    1.277   .     A
C287   H408    1.081   .     S
C287   C379    1.404   .     A
C287   C290    1.386   1_554 S
C288   H409    1.081   .     S
C288   C380    1.404   .     A
C288   C403    1.386   1_556 S
C289   H410    1.081   .     S
C289   C381    1.404   .     A
C289   C402    1.386   1_554 S
C290   C382    1.404   .     A
C290   H411    1.081   .     S
C290   C287    1.386   1_556 S
C291   H412    1.081   .     S
C291   C384    1.404   .     A
C291   C404    1.386   1_554 S
C292   N485    1.446   .     S
C292   H415    1.111   .     S
C292   H414    1.111   .     S
C292   H417    1.110   .     S
C293   H421    1.111   .     S
C293   N493    1.446   .     S
C293   H420    1.110   .     S
C293   H419    1.111   .     S
C294   H424    1.110   .     S
C294   N494    1.446   .     S
C294   H423    1.111   .     S
C294   H425    1.111   .     S
C295   N495    1.446   .     S
C295   H428    1.111   .     S
C295   H429    1.111   .     S
C295   H430    1.110   .     S
C296   N496    1.446   .     S
C296   H434    1.110   .     S
C296   H433    1.111   .     S
C296   H432    1.111   .     S
C297   C335    1.420   .     S
C297   O540    1.277   .     A
C297   O516    1.277   .     A
C298   N497    1.446   .     S
C298   H437    1.110   .     S
C298   H439    1.111   .     S
C298   H436    1.111   .     S
C299   N498    1.446   .     S
C299   H442    1.110   .     S
C299   H443    1.111   .     S
C299   H441    1.111   .     S
C300   H447    1.110   .     S
C300   H446    1.111   .     S
C300   N499    1.446   .     S
C300   H445    1.111   .     S
C301   H450    1.111   .     S
C301   N500    1.446   .     S
C301   H452    1.110   .     S
C301   H451    1.111   .     S
C302   H455    1.110   .     S
C302   H454    1.111   .     S
C302   N486    1.446   .     S
C302   H456    1.111   .     S
C303   H459    1.110   .     S
C303   N487    1.446   .     S
C303   H461    1.111   .     S
C303   H458    1.111   .     S
C304   H464    1.111   .     S
C304   H463    1.111   .     S
C304   N488    1.446   .     S
C304   H465    1.110   .     S
C305   H468    1.111   .     S
C305   N489    1.446   .     S
C305   H469    1.110   .     S
C305   H467    1.111   .     S
C306   N490    1.446   .     S
C306   H474    1.111   .     S
C306   H473    1.110   .     S
C306   H472    1.111   .     S
C307   H476    1.111   .     S
C307   H477    1.110   .     S
C307   N491    1.446   .     S
C307   H478    1.111   .     S
C308   O517    1.277   .     A
C308   C334    1.420   .     S
C308   O541    1.277   .     A
C309   N492    1.446   .     S
C309   H481    1.111   .     S
C309   H483    1.110   .     S
C309   H480    1.111   .     S
C310   O518    1.277   .     A
C310   O547    1.277   .     A
C310   C333    1.422   .     S
C311   C332    1.422   .     S
C311   O519    1.277   .     A
C311   O548    1.277   .     A
C312   C340    1.420   .     S
C312   O544    1.277   .     A
C312   O520    1.277   .     A
C313   O521    1.277   .     A
C313   O546    1.277   .     A
C313   C338    1.420   .     S
C314   C329    1.420   .     S
C314   O522    1.277   .     A
C314   O533    1.277   .     A
C315   O524    1.277   .     A
C315   C327    1.420   .     S
C315   O535    1.277   .     A
C316   O525    1.277   .     A
C316   O531    1.277   .     A
C316   C326    1.422   .     S
C317   C362    1.467   .     S
C317   O1070   1.271   1_545 A
C317   O549    1.271   .     S
C318   O526    1.277   .     A
C318   O532    1.277   .     A
C318   C325    1.422   .     S
C319   O527    1.277   .     A
C319   O538    1.277   .     A
C319   C324    1.420   .     S
C320   O539    1.277   .     A
C320   O528    1.277   .     A
C320   C323    1.420   .     S
C321   O529    1.277   .     A
C321   C331    1.422   .     S
C321   O536    1.277   .     A
C322   O530    1.277   .     A
C322   C330    1.422   .     S
C322   O537    1.277   .     A
C323   C340    1.197   .     T
C324   C338    1.197   .     T
C325   C337    1.198   .     T
C326   C336    1.198   .     T
C327   C335    1.197   .     T
C328   O550    1.271   .     A
C328   C358    1.467   .     S
C329   C334    1.197   .     T
C330   C333    1.198   .     T
C331   C332    1.198   .     T
C337   C394    1.422   .     S
C339   O504    1.271   .     A
C339   C359    1.467   .     S
C341   C371    1.410   .     A
C341   C358    1.409   .     A
C341   N485    1.428   .     S
C342   N493    1.428   .     S
C342   C373    1.410   .     A
C342   C75     1.409   1_655 S
C343   N494    1.428   .     S
C343   C928    1.409   .     A
C343   C374    1.410   .     A
C344   C375    1.410   .     A
C344   N495    1.428   .     S
C344   C362    1.409   .     S
C345   C367    1.410   .     A
C345   N496    1.428   .     S
C345   C74     1.409   1_655 S
C346   C368    1.410   .     A
C346   N497    1.428   .     S
C346   C359    1.409   .     A
C347   C369    1.410   .     A
C347   N498    1.428   .     S
C347   C360    1.409   .     S
C348   N499    1.428   .     S
C348   C370    1.410   .     A
C348   C930    1.409   .     A
C349   N500    1.428   .     S
C349   C380    1.410   .     A
C349   C363    1.409   .     S
C350   C365    1.467   .     S
C350   O505    1.271   .     S
C350   O509    1.271   .     S
C351   C381    1.410   .     A
C351   C932    1.409   .     A
C351   N486    1.428   .     S
C352   C81     1.409   1_655 A
C352   N487    1.428   .     S
C352   C382    1.410   .     A
C353   C384    1.410   .     A
C353   N488    1.428   .     S
C353   C366    1.409   .     S
C354   N489    1.428   .     S
C354   C376    1.410   .     A
C354   C931    1.409   .     A
C355   N490    1.428   .     S
C355   C377    1.410   .     A
C355   C364    1.409   .     S
C356   N491    1.428   .     S
C356   C378    1.410   .     A
C356   C365    1.409   .     S
C357   N492    1.428   .     S
C357   C379    1.410   .     A
C357   C82     1.409   1_655 A
C360   C911    1.409   1_545 A
C361   C366    1.467   .     S
C361   O506    1.271   .     S
C361   O510    1.271   .     S
C362   C916    1.409   1_545 A
C363   C372    1.467   .     S
C363   C922    1.409   1_545 A
C364   C919    1.409   1_545 A
C364   C383    1.467   .     S
C367   C393    1.404   .     A
C367   C101    1.417   1_655 S
C368   C386    1.417   .     A
C368   C395    1.404   .     A
C369   C396    1.404   .     A
C369   C387    1.417   .     S
C370   C956    1.417   .     A
C370   C397    1.404   .     A
C371   C398    1.404   .     A
C371   C385    1.417   .     A
C372   O507    1.271   .     S
C372   O511    1.271   .     S
C373   C399    1.404   .     A
C373   C102    1.417   1_655 S
C374   C400    1.404   .     A
C374   C955    1.416   .     A
C375   C401    1.404   .     A
C375   C388    1.416   .     S
C376   C402    1.404   .     A
C376   C957    1.417   .     A
C377   C403    1.404   .     A
C377   C390    1.416   .     S
C378   C404    1.404   .     A
C378   C391    1.417   .     S
C379   C108    1.416   1_655 A
C380   C389    1.416   .     S
C381   C958    1.416   .     A
C382   C107    1.416   1_655 A
C383   O513    1.271   .     A
C383   O508    1.271   .     A
C384   C392    1.416   .     S
C385   C386    1.418   .     A
C387   C942    1.416   1_545 A
C387   C388    1.418   .     A
C388   C938    1.417   1_545 A
C389   C944    1.417   1_545 A
C389   C390    1.418   1_556 S
C390   C949    1.416   1_545 A
C390   C389    1.418   1_554 S
C391   C392    1.418   1_556 S
C392   C391    1.418   1_554 S
C393   C399    1.386   .     A
C393   H405    1.081   .     S
C394   O542    1.277   .     A
C394   O514    1.277   .     A
C395   H416    1.081   .     S
C395   C398    1.386   .     A
C396   H427    1.081   .     S
C396   C401    1.386   .     A
C397   H438    1.081   .     S
C397   C400    1.386   .     A
C398   H449    1.081   .     S
C399   H460    1.081   .     S
C400   H471    1.081   .     S
C401   H482    1.081   .     S
C402   H484    1.081   .     S
C402   C289    1.386   1_556 S
C403   H406    1.081   .     S
C403   C288    1.386   1_554 S
C404   H407    1.081   .     S
C404   C291    1.386   1_556 S
H413   N485    1.031   .     S
H418   N493    1.031   .     S
H422   N494    1.031   .     S
H426   N495    1.031   .     S
H431   N496    1.031   .     S
H435   N497    1.031   .     S
H440   N498    1.031   .     S
H444   N499    1.031   .     S
H448   N500    1.031   .     S
H453   N486    1.031   .     S
H457   N487    1.031   .     S
H462   N488    1.031   .     S
H466   N489    1.031   .     S
H470   N490    1.031   .     S
H475   N491    1.031   .     S
H479   N492    1.031   .     S
O501   Zn564   1.936   .     S
O501   Zn556   1.936   .     S
O501   Zn553   1.936   .     S
O501   Zn1128  1.936   1_545 S
O502   C885    1.271   .     A
O502   Zn555   1.954   .     S
O503   Zn558   1.954   .     S
O503   C44     1.271   1_655 S
O504   Zn557   1.954   .     S
O505   Zn567   1.954   .     S
O506   Zn566   1.954   .     S
O507   Zn561   1.954   .     S
O508   Zn553   1.954   .     S
O509   Zn563   1.954   .     S
O510   Zn562   1.954   .     S
O511   Zn565   1.954   .     S
O512   Zn559   1.936   .     S
O512   Zn561   1.936   .     S
O512   Zn565   1.936   .     S
O512   Zn1123  1.936   1_545 S
O513   Zn564   1.954   .     S
O514   Zn556   1.915   .     S
O515   Zn555   1.915   .     S
O516   Zn558   1.913   .     S
O517   Zn557   1.913   .     S
O518   Zn560   1.915   .     S
O519   Zn559   1.915   .     S
O520   Zn554   1.913   .     S
O521   Zn568   1.913   .     S
O522   Zn555   1.913   .     S
O523   Zn562   1.936   .     S
O523   Zn566   1.936   .     S
O523   Zn554   1.936   .     S
O524   Zn556   1.913   .     S
O525   Zn568   1.915   .     S
O526   Zn554   1.915   .     S
O527   Zn559   1.913   .     S
O528   Zn560   1.913   .     S
O529   Zn557   1.915   .     S
O530   Zn558   1.915   .     S
O531   Zn279   1.915   1_655 S
O532   Zn562   1.915   .     S
O533   Zn1133  1.913   .     S
O534   Zn557   1.936   .     S
O534   Zn563   1.936   .     S
O534   Zn567   1.936   .     S
O535   Zn564   1.913   .     S
O536   Zn567   1.915   .     S
O537   Zn282   1.915   1_655 S
O538   Zn561   1.913   .     S
O539   Zn1121  1.913   .     S
O540   Zn278   1.913   1_655 S
O541   Zn563   1.913   .     S
O542   Zn553   1.915   .     S
O543   Zn1129  1.915   .     S
O544   Zn566   1.913   .     S
O545   Zn560   1.954   .     S
O545   C853    1.271   .     A
O546   Zn283   1.913   1_655 S
O547   Zn1132  1.915   .     S
O548   Zn565   1.915   .     S
O549   Zn559   1.954   .     S
O550   Zn554   1.954   .     S
O551   Zn568   1.954   .     S
O551   C55     1.271   1_655 S
O552   Zn556   1.954   .     S
Zn553  O1107   1.913   1_545 S
Zn555  O1080   1.936   .     S
Zn558  O239    1.936   1_655 S
Zn560  O1069   1.936   .     S
Zn561  O1111   1.915   1_545 S
Zn564  O1115   1.915   1_545 S
Zn565  O1101   1.913   1_545 S
Zn568  O250    1.936   1_655 S
C569   C644    1.467   .     S
C569   O836    1.271   .     S
C570   C620    1.422   .     S
C570   O827    1.277   .     A
C570   O799    1.277   .     A
C571   H692    1.081   .     S
C571   C663    1.404   .     A
C571   C574    1.386   1_554 S
C572   H693    1.081   .     S
C572   C664    1.404   .     A
C572   C687    1.386   1_556 S
C573   H694    1.081   .     S
C573   C665    1.404   .     A
C573   C686    1.386   1_554 S
C574   C666    1.404   .     A
C574   H695    1.081   .     S
C574   C571    1.386   1_556 S
C575   H696    1.081   .     S
C575   C668    1.404   .     A
C575   C688    1.386   1_554 S
C576   N769    1.446   .     S
C576   H699    1.111   .     S
C576   H698    1.111   .     S
C576   H701    1.110   .     S
C577   H705    1.111   .     S
C577   N777    1.446   .     S
C577   H704    1.110   .     S
C577   H703    1.111   .     S
C578   H708    1.110   .     S
C578   N778    1.446   .     S
C578   H707    1.111   .     S
C578   H709    1.111   .     S
C579   N779    1.446   .     S
C579   H712    1.111   .     S
C579   H713    1.111   .     S
C579   H714    1.110   .     S
C580   N780    1.446   .     S
C580   H718    1.110   .     S
C580   H717    1.111   .     S
C580   H716    1.111   .     S
C581   C619    1.420   .     S
C581   O824    1.277   .     A
C581   O800    1.277   .     A
C582   N781    1.446   .     S
C582   H721    1.110   .     S
C582   H723    1.111   .     S
C582   H720    1.111   .     S
C583   N782    1.446   .     S
C583   H726    1.110   .     S
C583   H727    1.111   .     S
C583   H725    1.111   .     S
C584   H731    1.110   .     S
C584   H730    1.111   .     S
C584   N783    1.446   .     S
C584   H729    1.111   .     S
C585   H734    1.111   .     S
C585   N784    1.446   .     S
C585   H736    1.110   .     S
C585   H735    1.111   .     S
C586   H739    1.110   .     S
C586   H738    1.111   .     S
C586   N770    1.446   .     S
C586   H740    1.111   .     S
C587   H743    1.110   .     S
C587   N771    1.446   .     S
C587   H745    1.111   .     S
C587   H742    1.111   .     S
C588   H748    1.111   .     S
C588   H747    1.111   .     S
C588   N772    1.446   .     S
C588   H749    1.110   .     S
C589   H752    1.111   .     S
C589   N773    1.446   .     S
C589   H753    1.110   .     S
C589   H751    1.111   .     S
C590   N774    1.446   .     S
C590   H758    1.111   .     S
C590   H757    1.110   .     S
C590   H756    1.111   .     S
C591   H760    1.111   .     S
C591   H761    1.110   .     S
C591   N775    1.446   .     S
C591   H762    1.111   .     S
C592   O801    1.277   .     A
C592   C618    1.420   .     S
C592   O825    1.277   .     A
C593   N776    1.446   .     S
C593   H765    1.111   .     S
C593   H767    1.110   .     S
C593   H764    1.111   .     S
C594   O802    1.277   .     A
C594   O831    1.277   .     A
C594   C617    1.422   .     S
C595   C616    1.422   .     S
C595   O803    1.277   .     A
C595   O832    1.277   .     A
C596   C624    1.420   .     S
C596   O828    1.277   .     A
C596   O804    1.277   .     A
C597   O805    1.277   .     A
C597   O830    1.277   .     A
C597   C622    1.420   .     S
C598   C613    1.420   .     S
C598   O806    1.277   .     A
C598   O817    1.277   .     A
C599   O808    1.277   .     A
C599   C611    1.420   .     S
C599   O819    1.277   .     A
C600   O809    1.277   .     A
C600   O815    1.277   .     A
C600   C610    1.422   .     S
C601   C646    1.467   .     S
C601   O833    1.271   .     S
C602   O810    1.277   .     A
C602   O816    1.277   .     A
C602   C609    1.422   .     S
C603   O811    1.277   .     A
C603   O822    1.277   .     A
C603   C608    1.420   .     S
C604   O823    1.277   .     A
C604   O812    1.277   .     A
C604   C607    1.420   .     S
C605   O813    1.277   .     A
C605   C615    1.422   .     S
C605   O820    1.277   .     A
C606   O814    1.277   .     A
C606   C614    1.422   .     S
C606   O821    1.277   .     A
C607   C624    1.197   .     T
C608   C622    1.197   .     T
C609   C621    1.198   .     T
C610   C620    1.198   .     T
C611   C619    1.197   .     T
C612   O834    1.271   .     A
C612   C642    1.467   .     S
C612   O1071   1.271   1_455 S
C613   C618    1.197   .     T
C614   C617    1.198   .     T
C615   C616    1.198   .     T
C621   C678    1.422   .     S
C623   O788    1.271   .     A
C623   C643    1.467   .     S
C623   O1119   1.271   1_455 S
C625   C655    1.410   .     A
C625   C642    1.409   .     A
C625   N769    1.428   .     S
C626   N777    1.428   .     S
C626   C657    1.410   .     A
C626   C927    1.409   .     S
C627   N778    1.428   .     S
C627   C76     1.409   1_565 A
C627   C658    1.410   .     A
C628   C659    1.410   .     A
C628   N779    1.428   .     S
C628   C646    1.409   .     S
C629   C651    1.410   .     A
C629   N780    1.428   .     S
C629   C926    1.409   .     S
C630   C652    1.410   .     A
C630   N781    1.428   .     S
C630   C643    1.409   .     A
C631   C653    1.410   .     A
C631   N782    1.428   .     S
C631   C644    1.409   .     S
C632   N783    1.428   .     S
C632   C654    1.410   .     A
C632   C78     1.409   1_565 A
C633   N784    1.428   .     S
C633   C664    1.410   .     A
C633   C647    1.409   .     S
C634   C649    1.467   .     S
C634   O789    1.271   .     S
C634   O793    1.271   .     S
C635   C665    1.410   .     A
C635   C80     1.409   1_565 A
C635   N770    1.428   .     S
C636   C933    1.409   .     A
C636   N771    1.428   .     S
C636   C666    1.410   .     A
C637   C668    1.410   .     A
C637   N772    1.428   .     S
C637   C650    1.409   .     S
C638   N773    1.428   .     S
C638   C660    1.410   .     A
C638   C79     1.409   1_565 A
C639   N774    1.428   .     S
C639   C661    1.410   .     A
C639   C648    1.409   .     S
C640   N775    1.428   .     S
C640   C662    1.410   .     A
C640   C649    1.409   .     S
C641   N776    1.428   .     S
C641   C663    1.410   .     A
C641   C934    1.409   .     A
C642   C913    1.409   1_455 S
C643   C910    1.409   1_455 S
C645   C650    1.467   .     S
C645   O790    1.271   .     S
C645   O794    1.271   .     S
C647   C656    1.467   .     S
C648   C667    1.467   .     S
C649   C920    1.409   1_455 A
C650   C925    1.409   1_455 A
C651   C677    1.404   .     A
C651   C953    1.417   .     S
C652   C670    1.417   .     A
C652   C679    1.404   .     A
C653   C680    1.404   .     A
C653   C671    1.417   .     S
C654   C104    1.417   1_565 A
C654   C681    1.404   .     A
C655   C682    1.404   .     A
C655   C669    1.417   .     A
C656   O791    1.271   .     S
C656   O795    1.271   .     S
C657   C683    1.404   .     A
C657   C954    1.417   .     S
C658   C684    1.404   .     A
C658   C103    1.416   1_565 A
C659   C685    1.404   .     A
C659   C672    1.416   .     S
C660   C686    1.404   .     A
C660   C105    1.417   1_565 A
C661   C687    1.404   .     A
C661   C674    1.416   .     S
C662   C688    1.404   .     A
C662   C675    1.417   .     S
C663   C960    1.416   .     A
C664   C673    1.416   .     S
C665   C106    1.416   1_565 A
C666   C959    1.416   .     A
C667   O797    1.271   .     A
C667   O792    1.271   .     A
C668   C676    1.416   .     S
C669   C670    1.418   .     A
C669   C935    1.417   1_455 S
C670   C941    1.417   1_455 S
C671   C672    1.418   .     A
C673   C674    1.418   1_556 S
C674   C673    1.418   1_554 S
C675   C950    1.416   1_455 A
C675   C676    1.418   1_556 S
C676   C947    1.416   1_455 A
C676   C675    1.418   1_554 S
C677   C683    1.386   .     A
C677   H689    1.081   .     S
C678   O826    1.277   .     A
C678   O798    1.277   .     A
C679   H700    1.081   .     S
C679   C682    1.386   .     A
C680   H711    1.081   .     S
C680   C685    1.386   .     A
C681   H722    1.081   .     S
C681   C684    1.386   .     A
C682   H733    1.081   .     S
C683   H744    1.081   .     S
C684   H755    1.081   .     S
C685   H766    1.081   .     S
C686   H768    1.081   .     S
C686   C573    1.386   1_556 S
C687   H690    1.081   .     S
C687   C572    1.386   1_554 S
C688   H691    1.081   .     S
C688   C575    1.386   1_556 S
H697   N769    1.031   .     S
H702   N777    1.031   .     S
H706   N778    1.031   .     S
H710   N779    1.031   .     S
H715   N780    1.031   .     S
H719   N781    1.031   .     S
H724   N782    1.031   .     S
H728   N783    1.031   .     S
H732   N784    1.031   .     S
H737   N770    1.031   .     S
H741   N771    1.031   .     S
H746   N772    1.031   .     S
H750   N773    1.031   .     S
H754   N774    1.031   .     S
H759   N775    1.031   .     S
H763   N776    1.031   .     S
O785   Zn848   1.936   .     S
O785   Zn840   1.936   .     S
O785   Zn837   1.936   .     S
O786   C33     1.271   1_565 A
O786   Zn839   1.954   .     S
O787   Zn842   1.954   .     S
O787   C896    1.271   .     S
O788   Zn841   1.954   .     S
O789   Zn851   1.954   .     S
O790   Zn850   1.954   .     S
O791   Zn845   1.954   .     S
O792   Zn837   1.954   .     S
O793   Zn847   1.954   .     S
O794   Zn846   1.954   .     S
O795   Zn849   1.954   .     S
O796   Zn843   1.936   .     S
O796   Zn845   1.936   .     S
O796   Zn849   1.936   .     S
O797   Zn848   1.954   .     S
O798   Zn840   1.915   .     S
O799   Zn839   1.915   .     S
O800   Zn842   1.913   .     S
O801   Zn841   1.913   .     S
O802   Zn844   1.915   .     S
O803   Zn843   1.915   .     S
O804   Zn838   1.913   .     S
O805   Zn852   1.913   .     S
O806   Zn839   1.913   .     S
O807   Zn846   1.936   .     S
O807   Zn850   1.936   .     S
O807   Zn838   1.936   .     S
O807   Zn1126  1.936   1_455 S
O808   Zn840   1.913   .     S
O809   Zn852   1.915   .     S
O810   Zn838   1.915   .     S
O811   Zn843   1.913   .     S
O812   Zn844   1.913   .     S
O813   Zn841   1.915   .     S
O814   Zn842   1.915   .     S
O815   Zn1131  1.915   .     S
O816   Zn846   1.915   .     S
O817   Zn281   1.913   1_565 S
O818   Zn841   1.936   .     S
O818   Zn847   1.936   .     S
O818   Zn851   1.936   .     S
O818   Zn1136  1.936   1_455 S
O819   Zn848   1.913   .     S
O820   Zn851   1.915   .     S
O821   Zn1134  1.915   .     S
O822   Zn845   1.913   .     S
O823   Zn269   1.913   1_565 S
O824   Zn1130  1.913   .     S
O825   Zn847   1.913   .     S
O826   Zn837   1.915   .     S
O827   Zn277   1.915   1_565 S
O828   Zn850   1.913   .     S
O829   Zn844   1.954   .     S
O829   C1      1.271   1_565 A
O830   Zn1135  1.913   .     S
O831   Zn280   1.915   1_565 S
O832   Zn849   1.915   .     S
O833   Zn843   1.954   .     S
O834   Zn838   1.954   .     S
O835   Zn852   1.954   .     S
O835   C907    1.271   .     S
O836   Zn840   1.954   .     S
Zn839  O228    1.936   1_565 S
Zn842  O1091   1.936   .     S
Zn844  O217    1.936   1_565 S
Zn846  O1108   1.913   1_455 S
Zn847  O1099   1.915   1_455 S
Zn850  O1105   1.915   1_455 S
Zn851  O1114   1.913   1_455 S
Zn852  O1102   1.936   .     S
C853   C928    1.467   .     S
C853   O1120   1.271   .     S
C854   C904    1.422   .     S
C854   O1111   1.277   .     A
C854   O1083   1.277   .     A
C855   H976    1.081   .     S
C855   C947    1.404   .     A
C855   C858    1.386   1_554 S
C856   H977    1.081   .     S
C856   C948    1.404   .     A
C856   C971    1.386   1_556 S
C857   H978    1.081   .     S
C857   C949    1.404   .     A
C857   C970    1.386   1_554 S
C858   C950    1.404   .     A
C858   H979    1.081   .     S
C858   C855    1.386   1_556 S
C859   H980    1.081   .     S
C859   C952    1.404   .     A
C859   C972    1.386   1_554 S
C860   N1053   1.446   .     S
C860   H983    1.111   .     S
C860   H982    1.111   .     S
C860   H985    1.110   .     S
C861   H989    1.111   .     S
C861   N1061   1.446   .     S
C861   H988    1.110   .     S
C861   H987    1.111   .     S
C862   H992    1.110   .     S
C862   N1062   1.446   .     S
C862   H991    1.111   .     S
C862   H993    1.111   .     S
C863   N1063   1.446   .     S
C863   H996    1.111   .     S
C863   H997    1.111   .     S
C863   H998    1.110   .     S
C864   N1064   1.446   .     S
C864   H1002   1.110   .     S
C864   H1001   1.111   .     S
C864   H1000   1.111   .     S
C865   C903    1.420   .     S
C865   O1108   1.277   .     A
C865   O1084   1.277   .     A
C866   N1065   1.446   .     S
C866   H1005   1.110   .     S
C866   H1007   1.111   .     S
C866   H1004   1.111   .     S
C867   N1066   1.446   .     S
C867   H1010   1.110   .     S
C867   H1011   1.111   .     S
C867   H1009   1.111   .     S
C868   H1015   1.110   .     S
C868   H1014   1.111   .     S
C868   N1067   1.446   .     S
C868   H1013   1.111   .     S
C869   H1018   1.111   .     S
C869   N1068   1.446   .     S
C869   H1020   1.110   .     S
C869   H1019   1.111   .     S
C870   H1023   1.110   .     S
C870   H1022   1.111   .     S
C870   N1054   1.446   .     S
C870   H1024   1.111   .     S
C871   H1027   1.110   .     S
C871   N1055   1.446   .     S
C871   H1029   1.111   .     S
C871   H1026   1.111   .     S
C872   H1032   1.111   .     S
C872   H1031   1.111   .     S
C872   N1056   1.446   .     S
C872   H1033   1.110   .     S
C873   H1036   1.111   .     S
C873   N1057   1.446   .     S
C873   H1037   1.110   .     S
C873   H1035   1.111   .     S
C874   N1058   1.446   .     S
C874   H1042   1.111   .     S
C874   H1041   1.110   .     S
C874   H1040   1.111   .     S
C875   H1044   1.111   .     S
C875   H1045   1.110   .     S
C875   N1059   1.446   .     S
C875   H1046   1.111   .     S
C876   O1085   1.277   .     A
C876   C902    1.420   .     S
C876   O1109   1.277   .     A
C877   N1060   1.446   .     S
C877   H1049   1.111   .     S
C877   H1051   1.110   .     S
C877   H1048   1.111   .     S
C878   O1086   1.277   .     A
C878   O1115   1.277   .     A
C878   C901    1.422   .     S
C879   C900    1.422   .     S
C879   O1087   1.277   .     A
C879   O1116   1.277   .     A
C880   C908    1.420   .     S
C880   O1112   1.277   .     A
C880   O1088   1.277   .     A
C881   O1089   1.277   .     A
C881   O1114   1.277   .     A
C881   C906    1.420   .     S
C882   C897    1.420   .     S
C882   O1090   1.277   .     A
C882   O1101   1.277   .     A
C883   O1092   1.277   .     A
C883   C895    1.420   .     S
C883   O1103   1.277   .     A
C884   O1093   1.277   .     A
C884   O1099   1.277   .     A
C884   C894    1.422   .     S
C885   C930    1.467   .     S
C885   O1117   1.271   .     S
C886   O1094   1.277   .     A
C886   O1100   1.277   .     A
C886   C893    1.422   .     S
C887   O1095   1.277   .     A
C887   O1106   1.277   .     A
C887   C892    1.420   .     S
C888   O1107   1.277   .     A
C888   O1096   1.277   .     A
C888   C891    1.420   .     S
C889   O1097   1.277   .     A
C889   C899    1.422   .     S
C889   O1104   1.277   .     A
C890   O1098   1.277   .     A
C890   C898    1.422   .     S
C890   O1105   1.277   .     A
C891   C908    1.197   .     T
C892   C906    1.197   .     T
C893   C905    1.198   .     T
C894   C904    1.198   .     T
C895   C903    1.197   .     T
C896   O1118   1.271   .     A
C896   C926    1.467   .     S
C897   C902    1.197   .     T
C898   C901    1.198   .     T
C899   C900    1.198   .     T
C905   C962    1.422   .     S
C907   O1072   1.271   .     A
C907   C927    1.467   .     S
C909   C939    1.410   .     A
C909   C926    1.409   .     A
C909   N1053   1.428   .     S
C910   N1061   1.428   .     S
C910   C941    1.410   .     A
C910   C643    1.409   1_655 S
C911   N1062   1.428   .     S
C911   C360    1.409   1_565 A
C911   C942    1.410   .     A
C912   C943    1.410   .     A
C912   N1063   1.428   .     S
C912   C930    1.409   .     S
C913   C935    1.410   .     A
C913   N1064   1.428   .     S
C913   C642    1.409   1_655 S
C914   C936    1.410   .     A
C914   N1065   1.428   .     S
C914   C927    1.409   .     A
C915   C937    1.410   .     A
C915   N1066   1.428   .     S
C915   C928    1.409   .     S
C916   N1067   1.428   .     S
C916   C938    1.410   .     A
C916   C362    1.409   1_565 A
C917   N1068   1.428   .     S
C917   C948    1.410   .     A
C917   C931    1.409   .     S
C918   C933    1.467   .     S
C918   O1073   1.271   .     S
C918   O1077   1.271   .     S
C919   C949    1.410   .     A
C919   C364    1.409   1_565 A
C919   N1054   1.428   .     S
C920   C649    1.409   1_655 A
C920   N1055   1.428   .     S
C920   C950    1.410   .     A
C921   C952    1.410   .     A
C921   N1056   1.428   .     S
C921   C934    1.409   .     S
C922   N1057   1.428   .     S
C922   C944    1.410   .     A
C922   C363    1.409   1_565 A
C923   N1058   1.428   .     S
C923   C945    1.410   .     A
C923   C932    1.409   .     S
C924   N1059   1.428   .     S
C924   C946    1.410   .     A
C924   C933    1.409   .     S
C925   N1060   1.428   .     S
C925   C947    1.410   .     A
C925   C650    1.409   1_655 A
C929   C934    1.467   .     S
C929   O1074   1.271   .     S
C929   O1078   1.271   .     S
C931   C940    1.467   .     S
C932   C951    1.467   .     S
C935   C961    1.404   .     A
C935   C669    1.417   1_655 S
C936   C954    1.417   .     A
C936   C963    1.404   .     A
C937   C964    1.404   .     A
C937   C955    1.417   .     S
C938   C388    1.417   1_565 A
C938   C965    1.404   .     A
C939   C966    1.404   .     A
C939   C953    1.417   .     A
C940   O1075   1.271   .     S
C940   O1079   1.271   .     S
C941   C967    1.404   .     A
C941   C670    1.417   1_655 S
C942   C968    1.404   .     A
C942   C387    1.416   1_565 A
C943   C969    1.404   .     A
C943   C956    1.416   .     S
C944   C970    1.404   .     A
C944   C389    1.417   1_565 A
C945   C971    1.404   .     A
C945   C958    1.416   .     S
C946   C972    1.404   .     A
C946   C959    1.417   .     S
C947   C676    1.416   1_655 A
C948   C957    1.416   .     S
C949   C390    1.416   1_565 A
C950   C675    1.416   1_655 A
C951   O1081   1.271   .     A
C951   O1076   1.271   .     A
C952   C960    1.416   .     S
C953   C954    1.418   .     A
C955   C956    1.418   .     A
C957   C958    1.418   1_556 S
C958   C957    1.418   1_554 S
C959   C960    1.418   1_556 S
C960   C959    1.418   1_554 S
C961   C967    1.386   .     A
C961   H973    1.081   .     S
C962   O1110   1.277   .     A
C962   O1082   1.277   .     A
C963   H984    1.081   .     S
C963   C966    1.386   .     A
C964   H995    1.081   .     S
C964   C969    1.386   .     A
C965   H1006   1.081   .     S
C965   C968    1.386   .     A
C966   H1017   1.081   .     S
C967   H1028   1.081   .     S
C968   H1039   1.081   .     S
C969   H1050   1.081   .     S
C970   H1052   1.081   .     S
C970   C857    1.386   1_556 S
C971   H974    1.081   .     S
C971   C856    1.386   1_554 S
C972   H975    1.081   .     S
C972   C859    1.386   1_556 S
H981   N1053   1.031   .     S
H986   N1061   1.031   .     S
H990   N1062   1.031   .     S
H994   N1063   1.031   .     S
H999   N1064   1.031   .     S
H1003  N1065   1.031   .     S
H1008  N1066   1.031   .     S
H1012  N1067   1.031   .     S
H1016  N1068   1.031   .     S
H1021  N1054   1.031   .     S
H1025  N1055   1.031   .     S
H1030  N1056   1.031   .     S
H1034  N1057   1.031   .     S
H1038  N1058   1.031   .     S
H1043  N1059   1.031   .     S
H1047  N1060   1.031   .     S
O1069  Zn1132  1.936   .     S
O1069  Zn1124  1.936   .     S
O1069  Zn1121  1.936   .     S
O1070  C317    1.271   1_565 A
O1070  Zn1123  1.954   .     S
O1071  Zn1126  1.954   .     S
O1071  C612    1.271   1_655 S
O1072  Zn1125  1.954   .     S
O1073  Zn1135  1.954   .     S
O1074  Zn1134  1.954   .     S
O1075  Zn1129  1.954   .     S
O1076  Zn1121  1.954   .     S
O1077  Zn1131  1.954   .     S
O1078  Zn1130  1.954   .     S
O1079  Zn1133  1.954   .     S
O1080  Zn1127  1.936   .     S
O1080  Zn1129  1.936   .     S
O1080  Zn1133  1.936   .     S
O1081  Zn1132  1.954   .     S
O1082  Zn1124  1.915   .     S
O1083  Zn1123  1.915   .     S
O1084  Zn1126  1.913   .     S
O1085  Zn1125  1.913   .     S
O1086  Zn1128  1.915   .     S
O1087  Zn1127  1.915   .     S
O1088  Zn1122  1.913   .     S
O1089  Zn1136  1.913   .     S
O1090  Zn1123  1.913   .     S
O1091  Zn1130  1.936   .     S
O1091  Zn1134  1.936   .     S
O1091  Zn1122  1.936   .     S
O1092  Zn1124  1.913   .     S
O1093  Zn1136  1.915   .     S
O1094  Zn1122  1.915   .     S
O1095  Zn1127  1.913   .     S
O1096  Zn1128  1.913   .     S
O1097  Zn1125  1.915   .     S
O1098  Zn1126  1.915   .     S
O1099  Zn847   1.915   1_655 S
O1100  Zn1130  1.915   .     S
O1101  Zn565   1.913   1_565 S
O1102  Zn1125  1.936   .     S
O1102  Zn1131  1.936   .     S
O1102  Zn1135  1.936   .     S
O1103  Zn1132  1.913   .     S
O1104  Zn1135  1.915   .     S
O1105  Zn850   1.915   1_655 S
O1106  Zn1129  1.913   .     S
O1107  Zn553   1.913   1_565 S
O1108  Zn846   1.913   1_655 S
O1109  Zn1131  1.913   .     S
O1110  Zn1121  1.915   .     S
O1111  Zn561   1.915   1_565 S
O1112  Zn1134  1.913   .     S
O1113  Zn1128  1.954   .     S
O1113  C285    1.271   1_565 A
O1114  Zn851   1.913   1_655 S
O1115  Zn564   1.915   1_565 S
O1116  Zn1133  1.915   .     S
O1117  Zn1127  1.954   .     S
O1118  Zn1122  1.954   .     S
O1119  Zn1136  1.954   .     S
O1119  C623    1.271   1_655 S
O1120  Zn1124  1.954   .     S
Zn1123 O512    1.936   1_565 S
Zn1126 O807    1.936   1_655 S
Zn1128 O501    1.936   1_565 S
Zn1136 O818    1.936   1_655 S
