data_str_m1_o5_o17_pcu_sym.92
_audit_creation_date              2020-01-03
_audit_creation_method            'Materials Studio'
_symmetry_space_group_name_H-M    'P1'
_symmetry_Int_Tables_number       1
_symmetry_cell_setting            triclinic
loop_
_symmetry_equiv_pos_as_xyz
  x,y,z
_cell_length_a                    31.7100
_cell_length_b                    31.7100
_cell_length_c                    34.4938
_cell_angle_alpha                 90.0001
_cell_angle_beta                  89.9999
_cell_angle_gamma                 89.9999
loop_
_atom_site_label
_atom_site_type_symbol
_atom_site_fract_x
_atom_site_fract_y
_atom_site_fract_z
_atom_site_U_iso_or_equiv
_atom_site_adp_type
_atom_site_occupancy
C1     C     0.25000  -0.00000   0.35572   0.00000  Uiso   1.00
C2     C     0.33002   0.41998   0.75000   0.00000  Uiso   1.00
C3     C     0.42269   0.24884   0.02024   0.00000  Uiso   1.00
C4     C     0.25112   0.07730   0.97976   0.00000  Uiso   1.00
C5     C     0.25116   0.42269   0.02023   0.00000  Uiso   1.00
C6     C     0.42269   0.25113   0.97976   0.00000  Uiso   1.00
C7     C     0.07731   0.25118   0.02023   0.00000  Uiso   1.00
C8     C     0.48749   0.32715   0.39457   0.00000  Uiso   1.00
C9     C     0.01890   0.34490   0.37088   0.00000  Uiso   1.00
C10    C     0.00975   0.37983   0.34764   0.00000  Uiso   1.00
C11    C     0.46932   0.39737   0.34797   0.00000  Uiso   1.00
C12    C     0.43789   0.37983   0.37137   0.00000  Uiso   1.00
C13    C     0.41998   0.16998   0.25000   0.00000  Uiso   1.00
C14    C     0.44685   0.34478   0.39456   0.00000  Uiso   1.00
C15    C     0.48749   0.17285   0.60543   0.00000  Uiso   1.00
C16    C     0.01891   0.15509   0.62911   0.00000  Uiso   1.00
C17    C     0.00976   0.12017   0.65235   0.00000  Uiso   1.00
C18    C     0.46932   0.10265   0.65204   0.00000  Uiso   1.00
C19    C     0.43788   0.12018   0.62865   0.00000  Uiso   1.00
C20    C     0.44685   0.15524   0.60545   0.00000  Uiso   1.00
C21    C     0.17285   0.48748   0.39457   0.00000  Uiso   1.00
C22    C     0.15509   0.01890   0.37089   0.00000  Uiso   1.00
C23    C     0.12017   0.00974   0.34765   0.00000  Uiso   1.00
C24    C     0.08002   0.33002   0.75000   0.00000  Uiso   1.00
C25    C     0.10265   0.46931   0.34796   0.00000  Uiso   1.00
C26    C     0.12019   0.43787   0.37135   0.00000  Uiso   1.00
C27    C     0.15524   0.44684   0.39455   0.00000  Uiso   1.00
C28    C     0.32715   0.48748   0.60543   0.00000  Uiso   1.00
C29    C     0.34491   0.01889   0.62911   0.00000  Uiso   1.00
C30    C     0.37984   0.00974   0.65235   0.00000  Uiso   1.00
C31    C     0.39736   0.46930   0.65203   0.00000  Uiso   1.00
C32    C     0.37982   0.43787   0.62863   0.00000  Uiso   1.00
C33    C     0.34476   0.44684   0.60544   0.00000  Uiso   1.00
C34    C     0.01252   0.17285   0.39457   0.00000  Uiso   1.00
C35    C     0.33002   0.41998   0.25000   0.00000  Uiso   1.00
C36    C     0.48110   0.15509   0.37089   0.00000  Uiso   1.00
C37    C     0.49026   0.12016   0.34765   0.00000  Uiso   1.00
C38    C     0.03070   0.10264   0.34797   0.00000  Uiso   1.00
C39    C     0.06213   0.12019   0.37136   0.00000  Uiso   1.00
C40    C     0.05316   0.15524   0.39456   0.00000  Uiso   1.00
C41    C     0.01252   0.32715   0.60543   0.00000  Uiso   1.00
C42    C     0.48110   0.34491   0.62911   0.00000  Uiso   1.00
C43    C     0.49026   0.37984   0.65235   0.00000  Uiso   1.00
C44    C     0.03070   0.39735   0.65204   0.00000  Uiso   1.00
C45    C     0.06213   0.37981   0.62864   0.00000  Uiso   1.00
C46    C     0.16998   0.08002   0.75000   0.00000  Uiso   1.00
C47    C     0.05316   0.34476   0.60545   0.00000  Uiso   1.00
C48    C     0.32715   0.01252   0.39457   0.00000  Uiso   1.00
C49    C     0.34491   0.48110   0.37089   0.00000  Uiso   1.00
C50    C     0.37984   0.49026   0.34765   0.00000  Uiso   1.00
C51    C     0.39735   0.03070   0.34796   0.00000  Uiso   1.00
C52    C     0.37981   0.06213   0.37136   0.00000  Uiso   1.00
C53    C     0.34476   0.05316   0.39455   0.00000  Uiso   1.00
C54    C     0.17285   0.01251   0.60543   0.00000  Uiso   1.00
C55    C     0.15509   0.48110   0.62911   0.00000  Uiso   1.00
C56    C     0.12017   0.49026   0.65235   0.00000  Uiso   1.00
C57    C     0.08002   0.33002   0.25000   0.00000  Uiso   1.00
C58    C     0.10264   0.03069   0.65203   0.00000  Uiso   1.00
C59    C     0.12018   0.06212   0.62863   0.00000  Uiso   1.00
C60    C     0.15523   0.05315   0.60544   0.00000  Uiso   1.00
C61    C     0.23745   0.07714   0.89457   0.00000  Uiso   1.00
C62    C     0.26885   0.09492   0.87089   0.00000  Uiso   1.00
C63    C     0.25967   0.12984   0.84765   0.00000  Uiso   1.00
C64    C     0.21922   0.14734   0.84798   0.00000  Uiso   1.00
C65    C     0.18780   0.12978   0.87138   0.00000  Uiso   1.00
C66    C     0.19680   0.09473   0.89457   0.00000  Uiso   1.00
C67    C     0.23753   0.42284   0.10544   0.00000  Uiso   1.00
C68    C     0.41998   0.16998   0.75000   0.00000  Uiso   1.00
C69    C     0.26897   0.40509   0.12910   0.00000  Uiso   1.00
C70    C     0.25985   0.37015   0.15234   0.00000  Uiso   1.00
C71    C     0.21943   0.35260   0.15203   0.00000  Uiso   1.00
C72    C     0.18797   0.37013   0.12865   0.00000  Uiso   1.00
C73    C     0.19690   0.40520   0.10546   0.00000  Uiso   1.00
C74    C     0.42285   0.23747   0.89457   0.00000  Uiso   1.00
C75    C     0.40509   0.26888   0.87088   0.00000  Uiso   1.00
C76    C     0.37017   0.25972   0.84764   0.00000  Uiso   1.00
C77    C     0.35265   0.21929   0.84797   0.00000  Uiso   1.00
C78    C     0.37019   0.18786   0.87137   0.00000  Uiso   1.00
C79    C     0.16998   0.41998   0.75000   0.00000  Uiso   1.00
C80    C     0.40524   0.19683   0.89456   0.00000  Uiso   1.00
C81    C     0.07716   0.23756   0.10544   0.00000  Uiso   1.00
C82    C     0.09492   0.26902   0.12907   0.00000  Uiso   1.00
C83    C     0.12987   0.25992   0.15230   0.00000  Uiso   1.00
C84    C     0.14743   0.21950   0.15201   0.00000  Uiso   1.00
C85    C     0.12989   0.18802   0.12867   0.00000  Uiso   1.00
C86    C     0.09481   0.19693   0.10548   0.00000  Uiso   1.00
C87    C     0.26254   0.42285   0.89457   0.00000  Uiso   1.00
C88    C     0.23114   0.40509   0.87087   0.00000  Uiso   1.00
C89    C     0.24031   0.37017   0.84764   0.00000  Uiso   1.00
C90    C     0.33002   0.08002   0.25000   0.00000  Uiso   1.00
C91    C     0.28075   0.35264   0.84797   0.00000  Uiso   1.00
C92    C     0.31217   0.37018   0.87138   0.00000  Uiso   1.00
C93    C     0.30319   0.40524   0.89457   0.00000  Uiso   1.00
C94    C     0.26246   0.07715   0.10544   0.00000  Uiso   1.00
C95    C     0.23102   0.09492   0.12908   0.00000  Uiso   1.00
C96    C     0.24014   0.12986   0.15231   0.00000  Uiso   1.00
C97    C     0.28057   0.14740   0.15202   0.00000  Uiso   1.00
C98    C     0.31203   0.12985   0.12866   0.00000  Uiso   1.00
C99    C     0.30310   0.09478   0.10548   0.00000  Uiso   1.00
C100   C     0.07714   0.26255   0.89457   0.00000  Uiso   1.00
C101   C     0.41998   0.33002   0.75000   0.00000  Uiso   1.00
C102   C     0.09491   0.23115   0.87088   0.00000  Uiso   1.00
C103   C     0.12983   0.24032   0.84764   0.00000  Uiso   1.00
C104   C     0.14734   0.28076   0.84797   0.00000  Uiso   1.00
C105   C     0.12980   0.31218   0.87138   0.00000  Uiso   1.00
C106   C     0.09475   0.30319   0.89457   0.00000  Uiso   1.00
C107   C     0.42284   0.26247   0.10544   0.00000  Uiso   1.00
C108   C     0.40510   0.23103   0.12910   0.00000  Uiso   1.00
C109   C     0.37017   0.24016   0.15235   0.00000  Uiso   1.00
C110   C     0.35263   0.28059   0.15205   0.00000  Uiso   1.00
C111   C     0.37016   0.31204   0.12867   0.00000  Uiso   1.00
C112   C     0.25000  -0.00000   0.64428   0.00000  Uiso   1.00
C113   C     0.08002   0.16998   0.25000   0.00000  Uiso   1.00
C114   C     0.40521   0.30310   0.10547   0.00000  Uiso   1.00
C115   C     0.45511   0.11909   0.46148   0.00000  Uiso   1.00
C116   C     0.45479   0.07361   0.44747   0.00000  Uiso   1.00
C117   C     0.45512   0.38092   0.53852   0.00000  Uiso   1.00
C118   C     0.45480   0.42639   0.55253   0.00000  Uiso   1.00
C119   C     0.38092   0.45512   0.46148   0.00000  Uiso   1.00
C120   C     0.42640   0.45481   0.44748   0.00000  Uiso   1.00
C121   C     0.11909   0.45511   0.53852   0.00000  Uiso   1.00
C122   C     0.07361   0.45479   0.55253   0.00000  Uiso   1.00
C123   C     0.04489   0.38091   0.46148   0.00000  Uiso   1.00
C124   C     0.33002   0.08002   0.75000   0.00000  Uiso   1.00
C125   C     0.04522   0.42638   0.44746   0.00000  Uiso   1.00
C126   C     0.04488   0.11908   0.53852   0.00000  Uiso   1.00
C127   C     0.04520   0.07360   0.55253   0.00000  Uiso   1.00
C128   C     0.11908   0.04489   0.46148   0.00000  Uiso   1.00
C129   C     0.07361   0.04520   0.44747   0.00000  Uiso   1.00
C130   C     0.38091   0.04489   0.53852   0.00000  Uiso   1.00
C131   C     0.42639   0.04522   0.55253   0.00000  Uiso   1.00
C132   C     0.20513   0.36909   0.96146   0.00000  Uiso   1.00
C133   C     0.20481   0.32362   0.94745   0.00000  Uiso   1.00
C134   C     0.20509   0.13093   0.03849   0.00000  Uiso   1.00
C135   C     0.16998   0.41998   0.25000   0.00000  Uiso   1.00
C136   C     0.20478   0.17640   0.05251   0.00000  Uiso   1.00
C137   C     0.13091   0.20513   0.96147   0.00000  Uiso   1.00
C138   C     0.17638   0.20481   0.94745   0.00000  Uiso   1.00
C139   C     0.36908   0.20509   0.03851   0.00000  Uiso   1.00
C140   C     0.32361   0.20477   0.05252   0.00000  Uiso   1.00
C141   C     0.29487   0.13091   0.96148   0.00000  Uiso   1.00
C142   C     0.29519   0.17638   0.94746   0.00000  Uiso   1.00
C143   C     0.29492   0.36908   0.03851   0.00000  Uiso   1.00
C144   C     0.29524   0.32361   0.05252   0.00000  Uiso   1.00
C145   C     0.36908   0.29487   0.96148   0.00000  Uiso   1.00
C146   C     0.08002   0.16998   0.75000   0.00000  Uiso   1.00
C147   C     0.32361   0.29519   0.94747   0.00000  Uiso   1.00
C148   C     0.13093   0.29493   0.03848   0.00000  Uiso   1.00
C149   C     0.17640   0.29525   0.05248   0.00000  Uiso   1.00
C150   C     0.41998   0.33002   0.25000   0.00000  Uiso   1.00
C151   C     0.13834   0.38834   0.25000   0.00000  Uiso   1.00
C152   C     0.36166   0.11166   0.75000   0.00000  Uiso   1.00
C153   C     0.11166   0.13834   0.25000   0.00000  Uiso   1.00
C154   C     0.38834   0.36166   0.75000   0.00000  Uiso   1.00
C155   C     0.36166   0.11166   0.25000   0.00000  Uiso   1.00
C156   C    -0.00000   0.25000   0.35572   0.00000  Uiso   1.00
C157   C     0.13834   0.38834   0.75000   0.00000  Uiso   1.00
C158   C     0.38834   0.36166   0.25000   0.00000  Uiso   1.00
C159   C     0.11166   0.13834   0.75000   0.00000  Uiso   1.00
C160   C     0.13834   0.11166   0.75000   0.00000  Uiso   1.00
C161   C     0.36166   0.38834   0.25000   0.00000  Uiso   1.00
C162   C     0.11166   0.36166   0.75000   0.00000  Uiso   1.00
C163   C     0.38834   0.13834   0.25000   0.00000  Uiso   1.00
C164   C     0.36166   0.38834   0.75000   0.00000  Uiso   1.00
C165   C     0.13834   0.11166   0.25000   0.00000  Uiso   1.00
C166   C     0.38834   0.13834   0.75000   0.00000  Uiso   1.00
C167   C     0.00000   0.25000   0.64428   0.00000  Uiso   1.00
C168   C     0.11166   0.36166   0.25000   0.00000  Uiso   1.00
C169   C     0.49631   0.28847   0.41776   0.00000  Uiso   1.00
C170   C     0.49631   0.21153   0.58224   0.00000  Uiso   1.00
C171   C     0.21153   0.49631   0.41776   0.00000  Uiso   1.00
C172   C     0.28847   0.49631   0.58224   0.00000  Uiso   1.00
C173   C     0.00369   0.21153   0.41776   0.00000  Uiso   1.00
C174   C     0.00369   0.28847   0.58224   0.00000  Uiso   1.00
C175   C     0.28847   0.00369   0.41776   0.00000  Uiso   1.00
C176   C     0.21153   0.00369   0.58224   0.00000  Uiso   1.00
C177   C     0.24630   0.03847   0.91776   0.00000  Uiso   1.00
C178   C    -0.00000   0.25000   0.85572   0.00000  Uiso   1.00
C179   C     0.24633   0.46152   0.08224   0.00000  Uiso   1.00
C180   C     0.46152   0.24630   0.91776   0.00000  Uiso   1.00
C181   C     0.03848   0.24634   0.08224   0.00000  Uiso   1.00
C182   C     0.25370   0.46153   0.91776   0.00000  Uiso   1.00
C183   C     0.25366   0.03847   0.08224   0.00000  Uiso   1.00
C184   C     0.03847   0.25370   0.91776   0.00000  Uiso   1.00
C185   C     0.46152   0.25367   0.08224   0.00000  Uiso   1.00
C186   C    -0.00000   0.25000   0.39796   0.00000  Uiso   1.00
C187   C     0.00000   0.25000   0.60204   0.00000  Uiso   1.00
C188   C     0.25000  -0.00000   0.39796   0.00000  Uiso   1.00
C189   C     0.00000   0.25000   0.14428   0.00000  Uiso   1.00
C190   C     0.25000  -0.00000   0.60204   0.00000  Uiso   1.00
C191   C     0.25000  -0.00000   0.89796   0.00000  Uiso   1.00
C192   C     0.25000  -0.00000   0.10204   0.00000  Uiso   1.00
C193   C    -0.00000   0.25000   0.89796   0.00000  Uiso   1.00
C194   C     0.00000   0.25000   0.10204   0.00000  Uiso   1.00
C195   C     0.00089   0.21101   0.45877   0.00000  Uiso   1.00
C196   C     0.00089   0.28899   0.54123   0.00000  Uiso   1.00
C197   C     0.28899   0.00089   0.45877   0.00000  Uiso   1.00
C198   C     0.21101   0.00089   0.54123   0.00000  Uiso   1.00
C199   C     0.49911   0.28899   0.45877   0.00000  Uiso   1.00
C200   C     0.25000  -0.00000   0.85572   0.00000  Uiso   1.00
C201   C     0.49911   0.21101   0.54123   0.00000  Uiso   1.00
C202   C     0.21101   0.49911   0.45877   0.00000  Uiso   1.00
C203   C     0.28899   0.49911   0.54123   0.00000  Uiso   1.00
C204   C     0.25090   0.46101   0.95877   0.00000  Uiso   1.00
C205   C     0.25087   0.03899   0.04123   0.00000  Uiso   1.00
C206   C     0.03899   0.25090   0.95877   0.00000  Uiso   1.00
C207   C     0.46101   0.25088   0.04123   0.00000  Uiso   1.00
C208   C     0.24910   0.03899   0.95877   0.00000  Uiso   1.00
C209   C     0.24912   0.46100   0.04123   0.00000  Uiso   1.00
C210   C     0.46101   0.24910   0.95877   0.00000  Uiso   1.00
C211   C     0.25000  -0.00000   0.14428   0.00000  Uiso   1.00
C212   C     0.03899   0.24913   0.04123   0.00000  Uiso   1.00
C213   C    -0.00000   0.25000   0.47937   0.00000  Uiso   1.00
C214   C    -0.00000   0.25000   0.52063   0.00000  Uiso   1.00
C215   C     0.25000  -0.00000   0.47937   0.00000  Uiso   1.00
C216   C     0.25000  -0.00000   0.52063   0.00000  Uiso   1.00
C217   C     0.25000  -0.00000   0.97937   0.00000  Uiso   1.00
C218   C     0.25000  -0.00000   0.02063   0.00000  Uiso   1.00
C219   C    -0.00000   0.25000   0.97937   0.00000  Uiso   1.00
C220   C    -0.00000   0.25000   0.02063   0.00000  Uiso   1.00
C221   C     0.49886   0.17269   0.47976   0.00000  Uiso   1.00
C222   C     0.16998   0.08002   0.25000   0.00000  Uiso   1.00
C223   C     0.49886   0.32731   0.52024   0.00000  Uiso   1.00
C224   C     0.32731   0.49886   0.47976   0.00000  Uiso   1.00
C225   C     0.17269   0.49886   0.52024   0.00000  Uiso   1.00
C226   C     0.00114   0.32731   0.47976   0.00000  Uiso   1.00
C227   C     0.00114   0.17269   0.52024   0.00000  Uiso   1.00
C228   C     0.17269   0.00114   0.47976   0.00000  Uiso   1.00
C229   C     0.32731   0.00114   0.52024   0.00000  Uiso   1.00
C230   C     0.24888   0.42269   0.97976   0.00000  Uiso   1.00
C231   C     0.24883   0.07731   0.02024   0.00000  Uiso   1.00
C232   C     0.07730   0.24888   0.97976   0.00000  Uiso   1.00
H233   H     0.05033   0.33154   0.37034   0.00000  Uiso   1.00
H234   H     0.42219   0.16877   0.58764   0.00000  Uiso   1.00
H235   H     0.07159   0.46787   0.58232   0.00000  Uiso   1.00
H236   H     0.06486   0.36161   0.44177   0.00000  Uiso   1.00
H237   H     0.05899   0.38027   0.49104   0.00000  Uiso   1.00
H238   H     0.02586   0.44626   0.46710   0.00000  Uiso   1.00
H239   H     0.07798   0.43859   0.44728   0.00000  Uiso   1.00
H240   H     0.03213   0.42840   0.41768   0.00000  Uiso   1.00
H241   H     0.06485   0.13837   0.55823   0.00000  Uiso   1.00
H242   H     0.05898   0.11973   0.50895   0.00000  Uiso   1.00
H243   H     0.02584   0.05374   0.53288   0.00000  Uiso   1.00
H244   H     0.07796   0.06139   0.55271   0.00000  Uiso   1.00
H245   H     0.16844   0.05033   0.37036   0.00000  Uiso   1.00
H246   H     0.03211   0.07158   0.58231   0.00000  Uiso   1.00
H247   H     0.13838   0.06485   0.44177   0.00000  Uiso   1.00
H248   H     0.11973   0.05898   0.49105   0.00000  Uiso   1.00
H249   H     0.05374   0.02585   0.46711   0.00000  Uiso   1.00
H250   H     0.06140   0.07796   0.44728   0.00000  Uiso   1.00
H251   H     0.07159   0.03212   0.41768   0.00000  Uiso   1.00
H252   H     0.36161   0.06486   0.55824   0.00000  Uiso   1.00
H253   H     0.38026   0.05899   0.50896   0.00000  Uiso   1.00
H254   H     0.44626   0.02586   0.53289   0.00000  Uiso   1.00
H255   H     0.43859   0.07797   0.55272   0.00000  Uiso   1.00
H256   H     0.10676   0.03398   0.32933   0.00000  Uiso   1.00
H257   H     0.42841   0.03213   0.58232   0.00000  Uiso   1.00
H258   H     0.18517   0.38839   0.94174   0.00000  Uiso   1.00
H259   H     0.19102   0.36975   0.99102   0.00000  Uiso   1.00
H260   H     0.22415   0.30375   0.96710   0.00000  Uiso   1.00
H261   H     0.17205   0.31142   0.94725   0.00000  Uiso   1.00
H262   H     0.21790   0.32160   0.91767   0.00000  Uiso   1.00
H263   H     0.18511   0.11164   0.05820   0.00000  Uiso   1.00
H264   H     0.19101   0.13028   0.00893   0.00000  Uiso   1.00
H265   H     0.22415   0.19627   0.03287   0.00000  Uiso   1.00
H266   H     0.17203   0.18862   0.05268   0.00000  Uiso   1.00
H267   H     0.07557   0.46233   0.32998   0.00000  Uiso   1.00
H268   H     0.21785   0.17842   0.08230   0.00000  Uiso   1.00
H269   H     0.11160   0.18517   0.94176   0.00000  Uiso   1.00
H270   H     0.13026   0.19103   0.99103   0.00000  Uiso   1.00
H271   H     0.19625   0.22414   0.96710   0.00000  Uiso   1.00
H272   H     0.18857   0.17205   0.94725   0.00000  Uiso   1.00
H273   H     0.17840   0.21791   0.91767   0.00000  Uiso   1.00
H274   H     0.38838   0.18511   0.05822   0.00000  Uiso   1.00
H275   H     0.36973   0.19100   0.00894   0.00000  Uiso   1.00
H276   H     0.30374   0.22412   0.03288   0.00000  Uiso   1.00
H277   H     0.31140   0.17201   0.05271   0.00000  Uiso   1.00
H278   H     0.10666   0.40653   0.37149   0.00000  Uiso   1.00
H279   H     0.32158   0.21785   0.08230   0.00000  Uiso   1.00
H280   H     0.31484   0.11161   0.94176   0.00000  Uiso   1.00
H281   H     0.30897   0.13026   0.99104   0.00000  Uiso   1.00
H282   H     0.27583   0.19625   0.96709   0.00000  Uiso   1.00
H283   H     0.32795   0.18860   0.94729   0.00000  Uiso   1.00
H284   H     0.28212   0.17840   0.91767   0.00000  Uiso   1.00
H285   H     0.31489   0.38838   0.05822   0.00000  Uiso   1.00
H286   H     0.30900   0.36973   0.00894   0.00000  Uiso   1.00
H287   H     0.27589   0.30374   0.03288   0.00000  Uiso   1.00
H288   H     0.32800   0.31140   0.05271   0.00000  Uiso   1.00
H289   H     0.16878   0.42219   0.41236   0.00000  Uiso   1.00
H290   H     0.28215   0.32159   0.08230   0.00000  Uiso   1.00
H291   H     0.38838   0.31484   0.94176   0.00000  Uiso   1.00
H292   H     0.36973   0.30897   0.99104   0.00000  Uiso   1.00
H293   H     0.30374   0.27583   0.96711   0.00000  Uiso   1.00
H294   H     0.31140   0.32794   0.94728   0.00000  Uiso   1.00
H295   H     0.32158   0.28210   0.91768   0.00000  Uiso   1.00
H296   H     0.11164   0.31492   0.05819   0.00000  Uiso   1.00
H297   H     0.13027   0.30901   0.00891   0.00000  Uiso   1.00
H298   H     0.17843   0.28219   0.08228   0.00000  Uiso   1.00
H299   H     0.19626   0.27587   0.03285   0.00000  Uiso   1.00
H300   H     0.33156   0.05032   0.62965   0.00000  Uiso   1.00
H301   H     0.18861   0.32800   0.05265   0.00000  Uiso   1.00
H302   H     0.39324   0.03397   0.67067   0.00000  Uiso   1.00
H303   H     0.42444   0.46232   0.67000   0.00000  Uiso   1.00
H304   H     0.39335   0.40653   0.62849   0.00000  Uiso   1.00
H305   H     0.03398   0.39323   0.32932   0.00000  Uiso   1.00
H306   H     0.33122   0.42219   0.58763   0.00000  Uiso   1.00
H307   H     0.44967   0.16844   0.37035   0.00000  Uiso   1.00
H308   H     0.46603   0.10676   0.32933   0.00000  Uiso   1.00
H309   H     0.03768   0.07557   0.32999   0.00000  Uiso   1.00
H310   H     0.09347   0.10665   0.37150   0.00000  Uiso   1.00
H311   H     0.07781   0.16878   0.41237   0.00000  Uiso   1.00
H312   H     0.44967   0.33156   0.62964   0.00000  Uiso   1.00
H313   H     0.46603   0.39324   0.67067   0.00000  Uiso   1.00
H314   H     0.03768   0.42443   0.67001   0.00000  Uiso   1.00
H315   H     0.09347   0.39334   0.62851   0.00000  Uiso   1.00
H316   H     0.46234   0.42445   0.33000   0.00000  Uiso   1.00
H317   H     0.07781   0.33122   0.58764   0.00000  Uiso   1.00
H318   H     0.33156   0.44967   0.37036   0.00000  Uiso   1.00
H319   H     0.39325   0.46603   0.32933   0.00000  Uiso   1.00
H320   H     0.42443   0.03768   0.32999   0.00000  Uiso   1.00
H321   H     0.39334   0.09347   0.37149   0.00000  Uiso   1.00
H322   H     0.33122   0.07781   0.41236   0.00000  Uiso   1.00
H323   H     0.16845   0.44967   0.62966   0.00000  Uiso   1.00
H324   H     0.10676   0.46603   0.67068   0.00000  Uiso   1.00
H325   H     0.07556   0.03767   0.67000   0.00000  Uiso   1.00
H326   H     0.10664   0.09346   0.62849   0.00000  Uiso   1.00
H327   H     0.40656   0.39338   0.37153   0.00000  Uiso   1.00
H328   H     0.16877   0.07781   0.58762   0.00000  Uiso   1.00
H329   H     0.30028   0.08158   0.87034   0.00000  Uiso   1.00
H330   H     0.28389   0.14326   0.82932   0.00000  Uiso   1.00
H331   H     0.21222   0.17441   0.83000   0.00000  Uiso   1.00
H332   H     0.15646   0.14330   0.87153   0.00000  Uiso   1.00
H333   H     0.17216   0.08118   0.91239   0.00000  Uiso   1.00
H334   H     0.30039   0.41847   0.12963   0.00000  Uiso   1.00
H335   H     0.28410   0.35675   0.17064   0.00000  Uiso   1.00
H336   H     0.21247   0.32551   0.16999   0.00000  Uiso   1.00
H337   H     0.15664   0.35656   0.12852   0.00000  Uiso   1.00
H338   H     0.42220   0.33125   0.41238   0.00000  Uiso   1.00
H339   H     0.17223   0.41872   0.08766   0.00000  Uiso   1.00
H340   H     0.41844   0.30031   0.87034   0.00000  Uiso   1.00
H341   H     0.35676   0.28395   0.82932   0.00000  Uiso   1.00
H342   H     0.32557   0.21231   0.82999   0.00000  Uiso   1.00
H343   H     0.35665   0.15652   0.87151   0.00000  Uiso   1.00
H344   H     0.41877   0.17218   0.91238   0.00000  Uiso   1.00
H345   H     0.08154   0.30044   0.12958   0.00000  Uiso   1.00
H346   H     0.14328   0.28419   0.17058   0.00000  Uiso   1.00
H347   H     0.17453   0.21256   0.16997   0.00000  Uiso   1.00
H348   H     0.14345   0.15669   0.12855   0.00000  Uiso   1.00
H349   H     0.05034   0.16844   0.62964   0.00000  Uiso   1.00
H350   H     0.08127   0.17225   0.08770   0.00000  Uiso   1.00
H351   H     0.19971   0.41844   0.87032   0.00000  Uiso   1.00
H352   H     0.21608   0.35676   0.82930   0.00000  Uiso   1.00
H353   H     0.28774   0.32556   0.83000   0.00000  Uiso   1.00
H354   H     0.34351   0.35664   0.87154   0.00000  Uiso   1.00
H355   H     0.32783   0.41878   0.91240   0.00000  Uiso   1.00
H356   H     0.19960   0.08156   0.12959   0.00000  Uiso   1.00
H357   H     0.21589   0.14328   0.17059   0.00000  Uiso   1.00
H358   H     0.28753   0.17449   0.16998   0.00000  Uiso   1.00
H359   H     0.34337   0.14339   0.12854   0.00000  Uiso   1.00
H360   H     0.03399   0.10676   0.67067   0.00000  Uiso   1.00
H361   H     0.32777   0.08124   0.08770   0.00000  Uiso   1.00
H362   H     0.08156   0.19972   0.87033   0.00000  Uiso   1.00
H363   H     0.14324   0.21610   0.82931   0.00000  Uiso   1.00
H364   H     0.17441   0.28776   0.83000   0.00000  Uiso   1.00
H365   H     0.14333   0.34352   0.87153   0.00000  Uiso   1.00
H366   H     0.08120   0.32783   0.91239   0.00000  Uiso   1.00
H367   H     0.41846   0.19961   0.12963   0.00000  Uiso   1.00
H368   H     0.35677   0.21591   0.17066   0.00000  Uiso   1.00
H369   H     0.32555   0.28755   0.17002   0.00000  Uiso   1.00
H370   H     0.35661   0.34337   0.12854   0.00000  Uiso   1.00
H371   H     0.46234   0.07557   0.67002   0.00000  Uiso   1.00
H372   H     0.41874   0.32777   0.08767   0.00000  Uiso   1.00
H373   H     0.43514   0.13838   0.44176   0.00000  Uiso   1.00
H374   H     0.44101   0.11974   0.49104   0.00000  Uiso   1.00
H375   H     0.47414   0.05374   0.46711   0.00000  Uiso   1.00
H376   H     0.42203   0.06141   0.44728   0.00000  Uiso   1.00
H377   H     0.46787   0.07159   0.41768   0.00000  Uiso   1.00
H378   H     0.43515   0.36163   0.55823   0.00000  Uiso   1.00
H379   H     0.44102   0.38027   0.50895   0.00000  Uiso   1.00
H380   H     0.47416   0.44626   0.53289   0.00000  Uiso   1.00
H381   H     0.42204   0.43861   0.55271   0.00000  Uiso   1.00
H382   H     0.40655   0.10665   0.62851   0.00000  Uiso   1.00
H383   H     0.46789   0.42842   0.58231   0.00000  Uiso   1.00
H384   H     0.36163   0.43515   0.44177   0.00000  Uiso   1.00
H385   H     0.38027   0.44102   0.49105   0.00000  Uiso   1.00
H386   H     0.44626   0.47416   0.46712   0.00000  Uiso   1.00
H387   H     0.43861   0.42205   0.44729   0.00000  Uiso   1.00
H388   H     0.42842   0.46789   0.41769   0.00000  Uiso   1.00
H389   H     0.13839   0.43514   0.55823   0.00000  Uiso   1.00
H390   H     0.11973   0.44101   0.50896   0.00000  Uiso   1.00
H391   H     0.05374   0.47414   0.53290   0.00000  Uiso   1.00
H392   H     0.06141   0.42203   0.55272   0.00000  Uiso   1.00
O393   O     0.25000  -0.00000   0.25000   0.00000  Uiso   1.00
O394   O     0.25000   0.46538   0.66251   0.00000  Uiso   1.00
O395   O     0.46538   0.25000   0.33749   0.00000  Uiso   1.00
O396   O     0.03461   0.25000   0.66251   0.00000  Uiso   1.00
O397   O    -0.00000   0.21538   0.83749   0.00000  Uiso   1.00
O398   O    -0.00000   0.28461   0.16251   0.00000  Uiso   1.00
O399   O     0.28461  -0.00000   0.83749   0.00000  Uiso   1.00
O400   O     0.21538  -0.00000   0.16251   0.00000  Uiso   1.00
O401   O     0.00000   0.28461   0.83749   0.00000  Uiso   1.00
O402   O    -0.00000   0.21538   0.16251   0.00000  Uiso   1.00
O403   O     0.21538  -0.00000   0.83749   0.00000  Uiso   1.00
O404   O     0.25000  -0.00000   0.75000   0.00000  Uiso   1.00
O405   O     0.28461  -0.00000   0.16251   0.00000  Uiso   1.00
O406   O     0.20126   0.08332   0.27298   0.00000  Uiso   1.00
O407   O     0.29873   0.41668   0.72702   0.00000  Uiso   1.00
O408   O     0.41668   0.20126   0.27298   0.00000  Uiso   1.00
O409   O     0.08332   0.29873   0.72702   0.00000  Uiso   1.00
O410   O     0.29873   0.41668   0.27298   0.00000  Uiso   1.00
O411   O     0.20126   0.08332   0.72702   0.00000  Uiso   1.00
O412   O     0.08332   0.29873   0.27298   0.00000  Uiso   1.00
O413   O     0.41668   0.20126   0.72702   0.00000  Uiso   1.00
O414   O     0.20126   0.41668   0.72702   0.00000  Uiso   1.00
O415   O    -0.00000   0.25000   0.25000   0.00000  Uiso   1.00
O416   O     0.29873   0.08332   0.27298   0.00000  Uiso   1.00
O417   O     0.41668   0.29873   0.72702   0.00000  Uiso   1.00
O418   O     0.08332   0.20126   0.27298   0.00000  Uiso   1.00
O419   O     0.29873   0.08332   0.72702   0.00000  Uiso   1.00
O420   O     0.20126   0.41668   0.27298   0.00000  Uiso   1.00
O421   O     0.08332   0.20126   0.72702   0.00000  Uiso   1.00
O422   O     0.41668   0.29873   0.27298   0.00000  Uiso   1.00
O423   O     0.45126   0.33332   0.77298   0.00000  Uiso   1.00
O424   O     0.04873   0.16668   0.22702   0.00000  Uiso   1.00
O425   O     0.16668   0.45126   0.77298   0.00000  Uiso   1.00
O426   O     0.00000   0.25000   0.75000   0.00000  Uiso   1.00
O427   O     0.33332   0.04873   0.22702   0.00000  Uiso   1.00
O428   O     0.04873   0.16668   0.77298   0.00000  Uiso   1.00
O429   O     0.45126   0.33332   0.22702   0.00000  Uiso   1.00
O430   O     0.33332   0.04873   0.77298   0.00000  Uiso   1.00
O431   O     0.16668   0.45126   0.22702   0.00000  Uiso   1.00
O432   O     0.45126   0.16668   0.22702   0.00000  Uiso   1.00
O433   O     0.04873   0.33332   0.77298   0.00000  Uiso   1.00
O434   O     0.16668   0.04873   0.22702   0.00000  Uiso   1.00
O435   O     0.33332   0.45126   0.77298   0.00000  Uiso   1.00
O436   O     0.04873   0.33332   0.22702   0.00000  Uiso   1.00
O437   O     0.25000   0.46538   0.33749   0.00000  Uiso   1.00
O438   O     0.45126   0.16668   0.77298   0.00000  Uiso   1.00
O439   O     0.33332   0.45126   0.22702   0.00000  Uiso   1.00
O440   O     0.16668   0.04873   0.77298   0.00000  Uiso   1.00
O441   O     0.49707   0.13406   0.46114   0.00000  Uiso   1.00
O442   O     0.49707   0.36594   0.53886   0.00000  Uiso   1.00
O443   O     0.36594   0.49708   0.46114   0.00000  Uiso   1.00
O444   O     0.13406   0.49707   0.53885   0.00000  Uiso   1.00
O445   O     0.00293   0.36594   0.46115   0.00000  Uiso   1.00
O446   O     0.00293   0.13406   0.53885   0.00000  Uiso   1.00
O447   O     0.13406   0.00293   0.46114   0.00000  Uiso   1.00
O448   O     0.25000   0.03461   0.66251   0.00000  Uiso   1.00
O449   O     0.36594   0.00293   0.53885   0.00000  Uiso   1.00
O450   O     0.24709   0.38406   0.96114   0.00000  Uiso   1.00
O451   O     0.24705   0.11594   0.03885   0.00000  Uiso   1.00
O452   O     0.11594   0.24709   0.96114   0.00000  Uiso   1.00
O453   O     0.38406   0.24705   0.03885   0.00000  Uiso   1.00
O454   O     0.25291   0.11594   0.96114   0.00000  Uiso   1.00
O455   O     0.25296   0.38406   0.03885   0.00000  Uiso   1.00
O456   O     0.38406   0.25291   0.96115   0.00000  Uiso   1.00
O457   O     0.11594   0.25297   0.03885   0.00000  Uiso   1.00
O458   O     0.03461   0.25000   0.33749   0.00000  Uiso   1.00
O459   O     0.46538   0.25000   0.66251   0.00000  Uiso   1.00
O460   O     0.25000   0.03461   0.33749   0.00000  Uiso   1.00
Zn461  Zn    0.20052  -0.00000   0.21730   0.00000  Uiso   1.00
Zn462  Zn    0.04947   0.25000   0.28270   0.00000  Uiso   1.00
Zn463  Zn    0.25000   0.45052   0.71730   0.00000  Uiso   1.00
Zn464  Zn    0.25000   0.04947   0.28270   0.00000  Uiso   1.00
Zn465  Zn    0.04947   0.25000   0.71730   0.00000  Uiso   1.00
Zn466  Zn    0.45052   0.25000   0.28270   0.00000  Uiso   1.00
Zn467  Zn    0.25000   0.04947   0.71730   0.00000  Uiso   1.00
Zn468  Zn    0.25000   0.45052   0.28270   0.00000  Uiso   1.00
Zn469  Zn    0.29947  -0.00000   0.78270   0.00000  Uiso   1.00
Zn470  Zn   -0.00000   0.20052   0.21730   0.00000  Uiso   1.00
Zn471  Zn   -0.00000   0.29947   0.78270   0.00000  Uiso   1.00
Zn472  Zn    0.29947  -0.00000   0.21730   0.00000  Uiso   1.00
Zn473  Zn    0.20052  -0.00000   0.78270   0.00000  Uiso   1.00
Zn474  Zn   -0.00000   0.29947   0.21730   0.00000  Uiso   1.00
Zn475  Zn   -0.00000   0.20052   0.78270   0.00000  Uiso   1.00
Zn476  Zn    0.45052   0.25000   0.71730   0.00000  Uiso   1.00
C477   C     0.75000  -0.00000   0.35572   0.00000  Uiso   1.00
C478   C     0.83002   0.41998   0.75000   0.00000  Uiso   1.00
C479   C     0.92269   0.24884   0.02024   0.00000  Uiso   1.00
C480   C     0.75112   0.07730   0.97976   0.00000  Uiso   1.00
C481   C     0.75116   0.42269   0.02023   0.00000  Uiso   1.00
C482   C     0.92269   0.25113   0.97976   0.00000  Uiso   1.00
C483   C     0.57731   0.25118   0.02023   0.00000  Uiso   1.00
C484   C     0.98749   0.32715   0.39457   0.00000  Uiso   1.00
C485   C     0.51890   0.34490   0.37088   0.00000  Uiso   1.00
C486   C     0.50975   0.37983   0.34764   0.00000  Uiso   1.00
C487   C     0.96932   0.39737   0.34797   0.00000  Uiso   1.00
C488   C     0.93789   0.37983   0.37137   0.00000  Uiso   1.00
C489   C     0.91998   0.16998   0.25000   0.00000  Uiso   1.00
C490   C     0.94685   0.34478   0.39456   0.00000  Uiso   1.00
C491   C     0.98749   0.17285   0.60543   0.00000  Uiso   1.00
C492   C     0.51891   0.15509   0.62911   0.00000  Uiso   1.00
C493   C     0.50976   0.12017   0.65235   0.00000  Uiso   1.00
C494   C     0.96932   0.10265   0.65204   0.00000  Uiso   1.00
C495   C     0.93788   0.12018   0.62865   0.00000  Uiso   1.00
C496   C     0.94685   0.15524   0.60545   0.00000  Uiso   1.00
C497   C     0.67285   0.48748   0.39457   0.00000  Uiso   1.00
C498   C     0.65509   0.01890   0.37089   0.00000  Uiso   1.00
C499   C     0.62017   0.00974   0.34765   0.00000  Uiso   1.00
C500   C     0.58002   0.33002   0.75000   0.00000  Uiso   1.00
C501   C     0.60265   0.46931   0.34796   0.00000  Uiso   1.00
C502   C     0.62019   0.43787   0.37135   0.00000  Uiso   1.00
C503   C     0.65524   0.44684   0.39455   0.00000  Uiso   1.00
C504   C     0.82715   0.48748   0.60543   0.00000  Uiso   1.00
C505   C     0.84491   0.01889   0.62911   0.00000  Uiso   1.00
C506   C     0.87984   0.00974   0.65235   0.00000  Uiso   1.00
C507   C     0.89736   0.46930   0.65203   0.00000  Uiso   1.00
C508   C     0.87982   0.43787   0.62863   0.00000  Uiso   1.00
C509   C     0.84476   0.44684   0.60544   0.00000  Uiso   1.00
C510   C     0.51252   0.17285   0.39457   0.00000  Uiso   1.00
C511   C     0.83002   0.41998   0.25000   0.00000  Uiso   1.00
C512   C     0.98110   0.15509   0.37089   0.00000  Uiso   1.00
C513   C     0.99026   0.12016   0.34765   0.00000  Uiso   1.00
C514   C     0.53070   0.10264   0.34797   0.00000  Uiso   1.00
C515   C     0.56213   0.12019   0.37136   0.00000  Uiso   1.00
C516   C     0.55316   0.15524   0.39456   0.00000  Uiso   1.00
C517   C     0.51252   0.32715   0.60543   0.00000  Uiso   1.00
C518   C     0.98110   0.34491   0.62911   0.00000  Uiso   1.00
C519   C     0.99026   0.37984   0.65235   0.00000  Uiso   1.00
C520   C     0.53070   0.39735   0.65204   0.00000  Uiso   1.00
C521   C     0.56213   0.37981   0.62864   0.00000  Uiso   1.00
C522   C     0.66998   0.08002   0.75000   0.00000  Uiso   1.00
C523   C     0.55316   0.34476   0.60545   0.00000  Uiso   1.00
C524   C     0.82715   0.01252   0.39457   0.00000  Uiso   1.00
C525   C     0.84491   0.48110   0.37089   0.00000  Uiso   1.00
C526   C     0.87984   0.49026   0.34765   0.00000  Uiso   1.00
C527   C     0.89735   0.03070   0.34796   0.00000  Uiso   1.00
C528   C     0.87981   0.06213   0.37136   0.00000  Uiso   1.00
C529   C     0.84476   0.05316   0.39455   0.00000  Uiso   1.00
C530   C     0.67285   0.01251   0.60543   0.00000  Uiso   1.00
C531   C     0.65509   0.48110   0.62911   0.00000  Uiso   1.00
C532   C     0.62017   0.49026   0.65235   0.00000  Uiso   1.00
C533   C     0.58002   0.33002   0.25000   0.00000  Uiso   1.00
C534   C     0.60264   0.03069   0.65203   0.00000  Uiso   1.00
C535   C     0.62018   0.06212   0.62863   0.00000  Uiso   1.00
C536   C     0.65523   0.05315   0.60544   0.00000  Uiso   1.00
C537   C     0.73745   0.07714   0.89457   0.00000  Uiso   1.00
C538   C     0.76885   0.09492   0.87089   0.00000  Uiso   1.00
C539   C     0.75967   0.12984   0.84765   0.00000  Uiso   1.00
C540   C     0.71922   0.14734   0.84798   0.00000  Uiso   1.00
C541   C     0.68780   0.12978   0.87138   0.00000  Uiso   1.00
C542   C     0.69680   0.09473   0.89457   0.00000  Uiso   1.00
C543   C     0.73753   0.42284   0.10544   0.00000  Uiso   1.00
C544   C     0.91998   0.16998   0.75000   0.00000  Uiso   1.00
C545   C     0.76897   0.40509   0.12910   0.00000  Uiso   1.00
C546   C     0.75985   0.37015   0.15234   0.00000  Uiso   1.00
C547   C     0.71943   0.35260   0.15203   0.00000  Uiso   1.00
C548   C     0.68797   0.37013   0.12865   0.00000  Uiso   1.00
C549   C     0.69690   0.40520   0.10546   0.00000  Uiso   1.00
C550   C     0.92285   0.23747   0.89457   0.00000  Uiso   1.00
C551   C     0.90509   0.26888   0.87088   0.00000  Uiso   1.00
C552   C     0.87017   0.25972   0.84764   0.00000  Uiso   1.00
C553   C     0.85265   0.21929   0.84797   0.00000  Uiso   1.00
C554   C     0.87019   0.18786   0.87137   0.00000  Uiso   1.00
C555   C     0.66998   0.41998   0.75000   0.00000  Uiso   1.00
C556   C     0.90524   0.19683   0.89456   0.00000  Uiso   1.00
C557   C     0.57716   0.23756   0.10544   0.00000  Uiso   1.00
C558   C     0.59492   0.26902   0.12907   0.00000  Uiso   1.00
C559   C     0.62987   0.25992   0.15230   0.00000  Uiso   1.00
C560   C     0.64743   0.21950   0.15201   0.00000  Uiso   1.00
C561   C     0.62989   0.18802   0.12867   0.00000  Uiso   1.00
C562   C     0.59481   0.19693   0.10548   0.00000  Uiso   1.00
C563   C     0.76254   0.42285   0.89457   0.00000  Uiso   1.00
C564   C     0.73114   0.40509   0.87087   0.00000  Uiso   1.00
C565   C     0.74031   0.37017   0.84764   0.00000  Uiso   1.00
C566   C     0.83002   0.08002   0.25000   0.00000  Uiso   1.00
C567   C     0.78075   0.35264   0.84797   0.00000  Uiso   1.00
C568   C     0.81217   0.37018   0.87138   0.00000  Uiso   1.00
C569   C     0.80319   0.40524   0.89457   0.00000  Uiso   1.00
C570   C     0.76246   0.07715   0.10544   0.00000  Uiso   1.00
C571   C     0.73102   0.09492   0.12908   0.00000  Uiso   1.00
C572   C     0.74014   0.12986   0.15231   0.00000  Uiso   1.00
C573   C     0.78057   0.14740   0.15202   0.00000  Uiso   1.00
C574   C     0.81203   0.12985   0.12866   0.00000  Uiso   1.00
C575   C     0.80310   0.09478   0.10548   0.00000  Uiso   1.00
C576   C     0.57714   0.26255   0.89457   0.00000  Uiso   1.00
C577   C     0.91998   0.33002   0.75000   0.00000  Uiso   1.00
C578   C     0.59491   0.23115   0.87088   0.00000  Uiso   1.00
C579   C     0.62983   0.24032   0.84764   0.00000  Uiso   1.00
C580   C     0.64734   0.28076   0.84797   0.00000  Uiso   1.00
C581   C     0.62980   0.31218   0.87138   0.00000  Uiso   1.00
C582   C     0.59475   0.30319   0.89457   0.00000  Uiso   1.00
C583   C     0.92284   0.26247   0.10544   0.00000  Uiso   1.00
C584   C     0.90510   0.23103   0.12910   0.00000  Uiso   1.00
C585   C     0.87017   0.24016   0.15235   0.00000  Uiso   1.00
C586   C     0.85263   0.28059   0.15205   0.00000  Uiso   1.00
C587   C     0.87016   0.31204   0.12867   0.00000  Uiso   1.00
C588   C     0.75000  -0.00000   0.64428   0.00000  Uiso   1.00
C589   C     0.58002   0.16998   0.25000   0.00000  Uiso   1.00
C590   C     0.90521   0.30310   0.10547   0.00000  Uiso   1.00
C591   C     0.95511   0.11909   0.46148   0.00000  Uiso   1.00
C592   C     0.95479   0.07361   0.44747   0.00000  Uiso   1.00
C593   C     0.95512   0.38092   0.53852   0.00000  Uiso   1.00
C594   C     0.95480   0.42639   0.55253   0.00000  Uiso   1.00
C595   C     0.88092   0.45512   0.46148   0.00000  Uiso   1.00
C596   C     0.92640   0.45481   0.44748   0.00000  Uiso   1.00
C597   C     0.61909   0.45511   0.53852   0.00000  Uiso   1.00
C598   C     0.57361   0.45479   0.55253   0.00000  Uiso   1.00
C599   C     0.54489   0.38091   0.46148   0.00000  Uiso   1.00
C600   C     0.83002   0.08002   0.75000   0.00000  Uiso   1.00
C601   C     0.54522   0.42638   0.44746   0.00000  Uiso   1.00
C602   C     0.54488   0.11908   0.53852   0.00000  Uiso   1.00
C603   C     0.54520   0.07360   0.55253   0.00000  Uiso   1.00
C604   C     0.61908   0.04489   0.46148   0.00000  Uiso   1.00
C605   C     0.57361   0.04520   0.44747   0.00000  Uiso   1.00
C606   C     0.88091   0.04489   0.53852   0.00000  Uiso   1.00
C607   C     0.92639   0.04522   0.55253   0.00000  Uiso   1.00
C608   C     0.70513   0.36909   0.96146   0.00000  Uiso   1.00
C609   C     0.70481   0.32362   0.94745   0.00000  Uiso   1.00
C610   C     0.70509   0.13093   0.03849   0.00000  Uiso   1.00
C611   C     0.66998   0.41998   0.25000   0.00000  Uiso   1.00
C612   C     0.70478   0.17640   0.05251   0.00000  Uiso   1.00
C613   C     0.63091   0.20513   0.96147   0.00000  Uiso   1.00
C614   C     0.67638   0.20481   0.94745   0.00000  Uiso   1.00
C615   C     0.86908   0.20509   0.03851   0.00000  Uiso   1.00
C616   C     0.82361   0.20477   0.05252   0.00000  Uiso   1.00
C617   C     0.79487   0.13091   0.96148   0.00000  Uiso   1.00
C618   C     0.79519   0.17638   0.94746   0.00000  Uiso   1.00
C619   C     0.79492   0.36908   0.03851   0.00000  Uiso   1.00
C620   C     0.79524   0.32361   0.05252   0.00000  Uiso   1.00
C621   C     0.86908   0.29487   0.96148   0.00000  Uiso   1.00
C622   C     0.58002   0.16998   0.75000   0.00000  Uiso   1.00
C623   C     0.82361   0.29519   0.94747   0.00000  Uiso   1.00
C624   C     0.63093   0.29493   0.03848   0.00000  Uiso   1.00
C625   C     0.67640   0.29525   0.05248   0.00000  Uiso   1.00
C626   C     0.91998   0.33002   0.25000   0.00000  Uiso   1.00
C627   C     0.63834   0.38834   0.25000   0.00000  Uiso   1.00
C628   C     0.86166   0.11166   0.75000   0.00000  Uiso   1.00
C629   C     0.61166   0.13834   0.25000   0.00000  Uiso   1.00
C630   C     0.88834   0.36166   0.75000   0.00000  Uiso   1.00
C631   C     0.86166   0.11166   0.25000   0.00000  Uiso   1.00
C632   C     0.50000   0.25000   0.35572   0.00000  Uiso   1.00
C633   C     0.63834   0.38834   0.75000   0.00000  Uiso   1.00
C634   C     0.88834   0.36166   0.25000   0.00000  Uiso   1.00
C635   C     0.61166   0.13834   0.75000   0.00000  Uiso   1.00
C636   C     0.63834   0.11166   0.75000   0.00000  Uiso   1.00
C637   C     0.86166   0.38834   0.25000   0.00000  Uiso   1.00
C638   C     0.61166   0.36166   0.75000   0.00000  Uiso   1.00
C639   C     0.88834   0.13834   0.25000   0.00000  Uiso   1.00
C640   C     0.86166   0.38834   0.75000   0.00000  Uiso   1.00
C641   C     0.63834   0.11166   0.25000   0.00000  Uiso   1.00
C642   C     0.88834   0.13834   0.75000   0.00000  Uiso   1.00
C643   C     0.50000   0.25000   0.64428   0.00000  Uiso   1.00
C644   C     0.61166   0.36166   0.25000   0.00000  Uiso   1.00
C645   C     0.99631   0.28847   0.41776   0.00000  Uiso   1.00
C646   C     0.99631   0.21153   0.58224   0.00000  Uiso   1.00
C647   C     0.71153   0.49631   0.41776   0.00000  Uiso   1.00
C648   C     0.78847   0.49631   0.58224   0.00000  Uiso   1.00
C649   C     0.50369   0.21153   0.41776   0.00000  Uiso   1.00
C650   C     0.50369   0.28847   0.58224   0.00000  Uiso   1.00
C651   C     0.78847   0.00369   0.41776   0.00000  Uiso   1.00
C652   C     0.71153   0.00369   0.58224   0.00000  Uiso   1.00
C653   C     0.74630   0.03847   0.91776   0.00000  Uiso   1.00
C654   C     0.50000   0.25000   0.85572   0.00000  Uiso   1.00
C655   C     0.74633   0.46152   0.08224   0.00000  Uiso   1.00
C656   C     0.96152   0.24630   0.91776   0.00000  Uiso   1.00
C657   C     0.53848   0.24634   0.08224   0.00000  Uiso   1.00
C658   C     0.75370   0.46153   0.91776   0.00000  Uiso   1.00
C659   C     0.75366   0.03847   0.08224   0.00000  Uiso   1.00
C660   C     0.53847   0.25370   0.91776   0.00000  Uiso   1.00
C661   C     0.96152   0.25367   0.08224   0.00000  Uiso   1.00
C662   C     0.50000   0.25000   0.39796   0.00000  Uiso   1.00
C663   C     0.50000   0.25000   0.60204   0.00000  Uiso   1.00
C664   C     0.75000  -0.00000   0.39796   0.00000  Uiso   1.00
C665   C     0.50000   0.25000   0.14428   0.00000  Uiso   1.00
C666   C     0.75000  -0.00000   0.60204   0.00000  Uiso   1.00
C667   C     0.75000  -0.00000   0.89796   0.00000  Uiso   1.00
C668   C     0.75000  -0.00000   0.10204   0.00000  Uiso   1.00
C669   C     0.50000   0.25000   0.89796   0.00000  Uiso   1.00
C670   C     0.50000   0.25000   0.10204   0.00000  Uiso   1.00
C671   C     0.50089   0.21101   0.45877   0.00000  Uiso   1.00
C672   C     0.50089   0.28899   0.54123   0.00000  Uiso   1.00
C673   C     0.78899   0.00089   0.45877   0.00000  Uiso   1.00
C674   C     0.71101   0.00089   0.54123   0.00000  Uiso   1.00
C675   C     0.99911   0.28899   0.45877   0.00000  Uiso   1.00
C676   C     0.75000  -0.00000   0.85572   0.00000  Uiso   1.00
C677   C     0.99911   0.21101   0.54123   0.00000  Uiso   1.00
C678   C     0.71101   0.49911   0.45877   0.00000  Uiso   1.00
C679   C     0.78899   0.49911   0.54123   0.00000  Uiso   1.00
C680   C     0.75090   0.46101   0.95877   0.00000  Uiso   1.00
C681   C     0.75087   0.03899   0.04123   0.00000  Uiso   1.00
C682   C     0.53899   0.25090   0.95877   0.00000  Uiso   1.00
C683   C     0.96101   0.25088   0.04123   0.00000  Uiso   1.00
C684   C     0.74910   0.03899   0.95877   0.00000  Uiso   1.00
C685   C     0.74912   0.46100   0.04123   0.00000  Uiso   1.00
C686   C     0.96101   0.24910   0.95877   0.00000  Uiso   1.00
C687   C     0.75000  -0.00000   0.14428   0.00000  Uiso   1.00
C688   C     0.53899   0.24913   0.04123   0.00000  Uiso   1.00
C689   C     0.50000   0.25000   0.47937   0.00000  Uiso   1.00
C690   C     0.50000   0.25000   0.52063   0.00000  Uiso   1.00
C691   C     0.75000  -0.00000   0.47937   0.00000  Uiso   1.00
C692   C     0.75000  -0.00000   0.52063   0.00000  Uiso   1.00
C693   C     0.75000  -0.00000   0.97937   0.00000  Uiso   1.00
C694   C     0.75000  -0.00000   0.02063   0.00000  Uiso   1.00
C695   C     0.50000   0.25000   0.97937   0.00000  Uiso   1.00
C696   C     0.50000   0.25000   0.02063   0.00000  Uiso   1.00
C697   C     0.99886   0.17269   0.47976   0.00000  Uiso   1.00
C698   C     0.66998   0.08002   0.25000   0.00000  Uiso   1.00
C699   C     0.99886   0.32731   0.52024   0.00000  Uiso   1.00
C700   C     0.82731   0.49886   0.47976   0.00000  Uiso   1.00
C701   C     0.67269   0.49886   0.52024   0.00000  Uiso   1.00
C702   C     0.50114   0.32731   0.47976   0.00000  Uiso   1.00
C703   C     0.50114   0.17269   0.52024   0.00000  Uiso   1.00
C704   C     0.67269   0.00114   0.47976   0.00000  Uiso   1.00
C705   C     0.82731   0.00114   0.52024   0.00000  Uiso   1.00
C706   C     0.74888   0.42269   0.97976   0.00000  Uiso   1.00
C707   C     0.74883   0.07731   0.02024   0.00000  Uiso   1.00
C708   C     0.57730   0.24888   0.97976   0.00000  Uiso   1.00
H709   H     0.55033   0.33154   0.37034   0.00000  Uiso   1.00
H710   H     0.92219   0.16877   0.58764   0.00000  Uiso   1.00
H711   H     0.57159   0.46787   0.58232   0.00000  Uiso   1.00
H712   H     0.56486   0.36161   0.44177   0.00000  Uiso   1.00
H713   H     0.55899   0.38027   0.49104   0.00000  Uiso   1.00
H714   H     0.52586   0.44626   0.46710   0.00000  Uiso   1.00
H715   H     0.57798   0.43859   0.44728   0.00000  Uiso   1.00
H716   H     0.53213   0.42840   0.41768   0.00000  Uiso   1.00
H717   H     0.56485   0.13837   0.55823   0.00000  Uiso   1.00
H718   H     0.55898   0.11973   0.50895   0.00000  Uiso   1.00
H719   H     0.52584   0.05374   0.53288   0.00000  Uiso   1.00
H720   H     0.57796   0.06139   0.55271   0.00000  Uiso   1.00
H721   H     0.66844   0.05033   0.37036   0.00000  Uiso   1.00
H722   H     0.53211   0.07158   0.58231   0.00000  Uiso   1.00
H723   H     0.63838   0.06485   0.44177   0.00000  Uiso   1.00
H724   H     0.61973   0.05898   0.49105   0.00000  Uiso   1.00
H725   H     0.55374   0.02585   0.46711   0.00000  Uiso   1.00
H726   H     0.56140   0.07796   0.44728   0.00000  Uiso   1.00
H727   H     0.57159   0.03212   0.41768   0.00000  Uiso   1.00
H728   H     0.86161   0.06486   0.55824   0.00000  Uiso   1.00
H729   H     0.88026   0.05899   0.50896   0.00000  Uiso   1.00
H730   H     0.94626   0.02586   0.53289   0.00000  Uiso   1.00
H731   H     0.93859   0.07797   0.55272   0.00000  Uiso   1.00
H732   H     0.60676   0.03398   0.32933   0.00000  Uiso   1.00
H733   H     0.92841   0.03213   0.58232   0.00000  Uiso   1.00
H734   H     0.68517   0.38839   0.94174   0.00000  Uiso   1.00
H735   H     0.69102   0.36975   0.99102   0.00000  Uiso   1.00
H736   H     0.72415   0.30375   0.96710   0.00000  Uiso   1.00
H737   H     0.67205   0.31142   0.94725   0.00000  Uiso   1.00
H738   H     0.71790   0.32160   0.91767   0.00000  Uiso   1.00
H739   H     0.68511   0.11164   0.05820   0.00000  Uiso   1.00
H740   H     0.69101   0.13028   0.00893   0.00000  Uiso   1.00
H741   H     0.72415   0.19627   0.03287   0.00000  Uiso   1.00
H742   H     0.67203   0.18862   0.05268   0.00000  Uiso   1.00
H743   H     0.57557   0.46233   0.32998   0.00000  Uiso   1.00
H744   H     0.71785   0.17842   0.08230   0.00000  Uiso   1.00
H745   H     0.61160   0.18517   0.94176   0.00000  Uiso   1.00
H746   H     0.63026   0.19103   0.99103   0.00000  Uiso   1.00
H747   H     0.69625   0.22414   0.96710   0.00000  Uiso   1.00
H748   H     0.68857   0.17205   0.94725   0.00000  Uiso   1.00
H749   H     0.67840   0.21791   0.91767   0.00000  Uiso   1.00
H750   H     0.88838   0.18511   0.05822   0.00000  Uiso   1.00
H751   H     0.86973   0.19100   0.00894   0.00000  Uiso   1.00
H752   H     0.80374   0.22412   0.03288   0.00000  Uiso   1.00
H753   H     0.81140   0.17201   0.05271   0.00000  Uiso   1.00
H754   H     0.60666   0.40653   0.37149   0.00000  Uiso   1.00
H755   H     0.82158   0.21785   0.08230   0.00000  Uiso   1.00
H756   H     0.81484   0.11161   0.94176   0.00000  Uiso   1.00
H757   H     0.80897   0.13026   0.99104   0.00000  Uiso   1.00
H758   H     0.77583   0.19625   0.96709   0.00000  Uiso   1.00
H759   H     0.82795   0.18860   0.94729   0.00000  Uiso   1.00
H760   H     0.78212   0.17840   0.91767   0.00000  Uiso   1.00
H761   H     0.81489   0.38838   0.05822   0.00000  Uiso   1.00
H762   H     0.80900   0.36973   0.00894   0.00000  Uiso   1.00
H763   H     0.77589   0.30374   0.03288   0.00000  Uiso   1.00
H764   H     0.82800   0.31140   0.05271   0.00000  Uiso   1.00
H765   H     0.66878   0.42219   0.41236   0.00000  Uiso   1.00
H766   H     0.78215   0.32159   0.08230   0.00000  Uiso   1.00
H767   H     0.88838   0.31484   0.94176   0.00000  Uiso   1.00
H768   H     0.86973   0.30897   0.99104   0.00000  Uiso   1.00
H769   H     0.80374   0.27583   0.96711   0.00000  Uiso   1.00
H770   H     0.81140   0.32794   0.94728   0.00000  Uiso   1.00
H771   H     0.82158   0.28210   0.91768   0.00000  Uiso   1.00
H772   H     0.61164   0.31492   0.05819   0.00000  Uiso   1.00
H773   H     0.63027   0.30901   0.00891   0.00000  Uiso   1.00
H774   H     0.67843   0.28219   0.08228   0.00000  Uiso   1.00
H775   H     0.69626   0.27587   0.03285   0.00000  Uiso   1.00
H776   H     0.83156   0.05032   0.62965   0.00000  Uiso   1.00
H777   H     0.68861   0.32800   0.05265   0.00000  Uiso   1.00
H778   H     0.89324   0.03397   0.67067   0.00000  Uiso   1.00
H779   H     0.92444   0.46232   0.67000   0.00000  Uiso   1.00
H780   H     0.89335   0.40653   0.62849   0.00000  Uiso   1.00
H781   H     0.53398   0.39323   0.32932   0.00000  Uiso   1.00
H782   H     0.83122   0.42219   0.58763   0.00000  Uiso   1.00
H783   H     0.94967   0.16844   0.37035   0.00000  Uiso   1.00
H784   H     0.96603   0.10676   0.32933   0.00000  Uiso   1.00
H785   H     0.53768   0.07557   0.32999   0.00000  Uiso   1.00
H786   H     0.59347   0.10665   0.37150   0.00000  Uiso   1.00
H787   H     0.57781   0.16878   0.41237   0.00000  Uiso   1.00
H788   H     0.94967   0.33156   0.62964   0.00000  Uiso   1.00
H789   H     0.96603   0.39324   0.67067   0.00000  Uiso   1.00
H790   H     0.53768   0.42443   0.67001   0.00000  Uiso   1.00
H791   H     0.59347   0.39334   0.62851   0.00000  Uiso   1.00
H792   H     0.96234   0.42445   0.33000   0.00000  Uiso   1.00
H793   H     0.57781   0.33122   0.58764   0.00000  Uiso   1.00
H794   H     0.83156   0.44967   0.37036   0.00000  Uiso   1.00
H795   H     0.89325   0.46603   0.32933   0.00000  Uiso   1.00
H796   H     0.92443   0.03768   0.32999   0.00000  Uiso   1.00
H797   H     0.89334   0.09347   0.37149   0.00000  Uiso   1.00
H798   H     0.83122   0.07781   0.41236   0.00000  Uiso   1.00
H799   H     0.66845   0.44967   0.62966   0.00000  Uiso   1.00
H800   H     0.60676   0.46603   0.67068   0.00000  Uiso   1.00
H801   H     0.57556   0.03767   0.67000   0.00000  Uiso   1.00
H802   H     0.60664   0.09346   0.62849   0.00000  Uiso   1.00
H803   H     0.90656   0.39338   0.37153   0.00000  Uiso   1.00
H804   H     0.66877   0.07781   0.58762   0.00000  Uiso   1.00
H805   H     0.80028   0.08158   0.87034   0.00000  Uiso   1.00
H806   H     0.78389   0.14326   0.82932   0.00000  Uiso   1.00
H807   H     0.71222   0.17441   0.83000   0.00000  Uiso   1.00
H808   H     0.65646   0.14330   0.87153   0.00000  Uiso   1.00
H809   H     0.67216   0.08118   0.91239   0.00000  Uiso   1.00
H810   H     0.80039   0.41847   0.12963   0.00000  Uiso   1.00
H811   H     0.78410   0.35675   0.17064   0.00000  Uiso   1.00
H812   H     0.71247   0.32551   0.16999   0.00000  Uiso   1.00
H813   H     0.65664   0.35656   0.12852   0.00000  Uiso   1.00
H814   H     0.92220   0.33125   0.41238   0.00000  Uiso   1.00
H815   H     0.67223   0.41872   0.08766   0.00000  Uiso   1.00
H816   H     0.91844   0.30031   0.87034   0.00000  Uiso   1.00
H817   H     0.85676   0.28395   0.82932   0.00000  Uiso   1.00
H818   H     0.82557   0.21231   0.82999   0.00000  Uiso   1.00
H819   H     0.85665   0.15652   0.87151   0.00000  Uiso   1.00
H820   H     0.91877   0.17218   0.91238   0.00000  Uiso   1.00
H821   H     0.58154   0.30044   0.12958   0.00000  Uiso   1.00
H822   H     0.64328   0.28419   0.17058   0.00000  Uiso   1.00
H823   H     0.67453   0.21256   0.16997   0.00000  Uiso   1.00
H824   H     0.64345   0.15669   0.12855   0.00000  Uiso   1.00
H825   H     0.55034   0.16844   0.62964   0.00000  Uiso   1.00
H826   H     0.58127   0.17225   0.08770   0.00000  Uiso   1.00
H827   H     0.69971   0.41844   0.87032   0.00000  Uiso   1.00
H828   H     0.71608   0.35676   0.82930   0.00000  Uiso   1.00
H829   H     0.78774   0.32556   0.83000   0.00000  Uiso   1.00
H830   H     0.84351   0.35664   0.87154   0.00000  Uiso   1.00
H831   H     0.82783   0.41878   0.91240   0.00000  Uiso   1.00
H832   H     0.69960   0.08156   0.12959   0.00000  Uiso   1.00
H833   H     0.71589   0.14328   0.17059   0.00000  Uiso   1.00
H834   H     0.78753   0.17449   0.16998   0.00000  Uiso   1.00
H835   H     0.84337   0.14339   0.12854   0.00000  Uiso   1.00
H836   H     0.53399   0.10676   0.67067   0.00000  Uiso   1.00
H837   H     0.82777   0.08124   0.08770   0.00000  Uiso   1.00
H838   H     0.58156   0.19972   0.87033   0.00000  Uiso   1.00
H839   H     0.64324   0.21610   0.82931   0.00000  Uiso   1.00
H840   H     0.67441   0.28776   0.83000   0.00000  Uiso   1.00
H841   H     0.64333   0.34352   0.87153   0.00000  Uiso   1.00
H842   H     0.58120   0.32783   0.91239   0.00000  Uiso   1.00
H843   H     0.91846   0.19961   0.12963   0.00000  Uiso   1.00
H844   H     0.85677   0.21591   0.17066   0.00000  Uiso   1.00
H845   H     0.82555   0.28755   0.17002   0.00000  Uiso   1.00
H846   H     0.85661   0.34337   0.12854   0.00000  Uiso   1.00
H847   H     0.96234   0.07557   0.67002   0.00000  Uiso   1.00
H848   H     0.91874   0.32777   0.08767   0.00000  Uiso   1.00
H849   H     0.93514   0.13838   0.44176   0.00000  Uiso   1.00
H850   H     0.94101   0.11974   0.49104   0.00000  Uiso   1.00
H851   H     0.97414   0.05374   0.46711   0.00000  Uiso   1.00
H852   H     0.92203   0.06141   0.44728   0.00000  Uiso   1.00
H853   H     0.96787   0.07159   0.41768   0.00000  Uiso   1.00
H854   H     0.93515   0.36163   0.55823   0.00000  Uiso   1.00
H855   H     0.94102   0.38027   0.50895   0.00000  Uiso   1.00
H856   H     0.97416   0.44626   0.53289   0.00000  Uiso   1.00
H857   H     0.92204   0.43861   0.55271   0.00000  Uiso   1.00
H858   H     0.90655   0.10665   0.62851   0.00000  Uiso   1.00
H859   H     0.96789   0.42842   0.58231   0.00000  Uiso   1.00
H860   H     0.86163   0.43515   0.44177   0.00000  Uiso   1.00
H861   H     0.88027   0.44102   0.49105   0.00000  Uiso   1.00
H862   H     0.94626   0.47416   0.46712   0.00000  Uiso   1.00
H863   H     0.93861   0.42205   0.44729   0.00000  Uiso   1.00
H864   H     0.92842   0.46789   0.41769   0.00000  Uiso   1.00
H865   H     0.63839   0.43514   0.55823   0.00000  Uiso   1.00
H866   H     0.61973   0.44101   0.50896   0.00000  Uiso   1.00
H867   H     0.55374   0.47414   0.53290   0.00000  Uiso   1.00
H868   H     0.56141   0.42203   0.55272   0.00000  Uiso   1.00
O869   O     0.75000  -0.00000   0.25000   0.00000  Uiso   1.00
O870   O     0.75000   0.46538   0.66251   0.00000  Uiso   1.00
O871   O     0.96538   0.25000   0.33749   0.00000  Uiso   1.00
O872   O     0.53461   0.25000   0.66251   0.00000  Uiso   1.00
O873   O     0.50000   0.21538   0.83749   0.00000  Uiso   1.00
O874   O     0.50000   0.28461   0.16251   0.00000  Uiso   1.00
O875   O     0.78461  -0.00000   0.83749   0.00000  Uiso   1.00
O876   O     0.71538  -0.00000   0.16251   0.00000  Uiso   1.00
O877   O     0.50000   0.28461   0.83749   0.00000  Uiso   1.00
O878   O     0.50000   0.21538   0.16251   0.00000  Uiso   1.00
O879   O     0.71538  -0.00000   0.83749   0.00000  Uiso   1.00
O880   O     0.75000  -0.00000   0.75000   0.00000  Uiso   1.00
O881   O     0.78461  -0.00000   0.16251   0.00000  Uiso   1.00
O882   O     0.70126   0.08332   0.27298   0.00000  Uiso   1.00
O883   O     0.79873   0.41668   0.72702   0.00000  Uiso   1.00
O884   O     0.91668   0.20126   0.27298   0.00000  Uiso   1.00
O885   O     0.58332   0.29873   0.72702   0.00000  Uiso   1.00
O886   O     0.79873   0.41668   0.27298   0.00000  Uiso   1.00
O887   O     0.70126   0.08332   0.72702   0.00000  Uiso   1.00
O888   O     0.58332   0.29873   0.27298   0.00000  Uiso   1.00
O889   O     0.91668   0.20126   0.72702   0.00000  Uiso   1.00
O890   O     0.70126   0.41668   0.72702   0.00000  Uiso   1.00
O891   O     0.50000   0.25000   0.25000   0.00000  Uiso   1.00
O892   O     0.79873   0.08332   0.27298   0.00000  Uiso   1.00
O893   O     0.91668   0.29873   0.72702   0.00000  Uiso   1.00
O894   O     0.58332   0.20126   0.27298   0.00000  Uiso   1.00
O895   O     0.79873   0.08332   0.72702   0.00000  Uiso   1.00
O896   O     0.70126   0.41668   0.27298   0.00000  Uiso   1.00
O897   O     0.58332   0.20126   0.72702   0.00000  Uiso   1.00
O898   O     0.91668   0.29873   0.27298   0.00000  Uiso   1.00
O899   O     0.95126   0.33332   0.77298   0.00000  Uiso   1.00
O900   O     0.54873   0.16668   0.22702   0.00000  Uiso   1.00
O901   O     0.66668   0.45126   0.77298   0.00000  Uiso   1.00
O902   O     0.50000   0.25000   0.75000   0.00000  Uiso   1.00
O903   O     0.83332   0.04873   0.22702   0.00000  Uiso   1.00
O904   O     0.54873   0.16668   0.77298   0.00000  Uiso   1.00
O905   O     0.95126   0.33332   0.22702   0.00000  Uiso   1.00
O906   O     0.83332   0.04873   0.77298   0.00000  Uiso   1.00
O907   O     0.66668   0.45126   0.22702   0.00000  Uiso   1.00
O908   O     0.95126   0.16668   0.22702   0.00000  Uiso   1.00
O909   O     0.54873   0.33332   0.77298   0.00000  Uiso   1.00
O910   O     0.66668   0.04873   0.22702   0.00000  Uiso   1.00
O911   O     0.83332   0.45126   0.77298   0.00000  Uiso   1.00
O912   O     0.54873   0.33332   0.22702   0.00000  Uiso   1.00
O913   O     0.75000   0.46538   0.33749   0.00000  Uiso   1.00
O914   O     0.95126   0.16668   0.77298   0.00000  Uiso   1.00
O915   O     0.83332   0.45126   0.22702   0.00000  Uiso   1.00
O916   O     0.66668   0.04873   0.77298   0.00000  Uiso   1.00
O917   O     0.99707   0.13406   0.46114   0.00000  Uiso   1.00
O918   O     0.99707   0.36594   0.53886   0.00000  Uiso   1.00
O919   O     0.86594   0.49708   0.46114   0.00000  Uiso   1.00
O920   O     0.63406   0.49707   0.53885   0.00000  Uiso   1.00
O921   O     0.50293   0.36594   0.46115   0.00000  Uiso   1.00
O922   O     0.50293   0.13406   0.53885   0.00000  Uiso   1.00
O923   O     0.63406   0.00293   0.46114   0.00000  Uiso   1.00
O924   O     0.75000   0.03461   0.66251   0.00000  Uiso   1.00
O925   O     0.86594   0.00293   0.53885   0.00000  Uiso   1.00
O926   O     0.74709   0.38406   0.96114   0.00000  Uiso   1.00
O927   O     0.74705   0.11594   0.03885   0.00000  Uiso   1.00
O928   O     0.61594   0.24709   0.96114   0.00000  Uiso   1.00
O929   O     0.88406   0.24705   0.03885   0.00000  Uiso   1.00
O930   O     0.75291   0.11594   0.96114   0.00000  Uiso   1.00
O931   O     0.75296   0.38406   0.03885   0.00000  Uiso   1.00
O932   O     0.88406   0.25291   0.96115   0.00000  Uiso   1.00
O933   O     0.61594   0.25297   0.03885   0.00000  Uiso   1.00
O934   O     0.53461   0.25000   0.33749   0.00000  Uiso   1.00
O935   O     0.96538   0.25000   0.66251   0.00000  Uiso   1.00
O936   O     0.75000   0.03461   0.33749   0.00000  Uiso   1.00
Zn937  Zn    0.70052  -0.00000   0.21730   0.00000  Uiso   1.00
Zn938  Zn    0.54947   0.25000   0.28270   0.00000  Uiso   1.00
Zn939  Zn    0.75000   0.45052   0.71730   0.00000  Uiso   1.00
Zn940  Zn    0.75000   0.04947   0.28270   0.00000  Uiso   1.00
Zn941  Zn    0.54947   0.25000   0.71730   0.00000  Uiso   1.00
Zn942  Zn    0.95052   0.25000   0.28270   0.00000  Uiso   1.00
Zn943  Zn    0.75000   0.04947   0.71730   0.00000  Uiso   1.00
Zn944  Zn    0.75000   0.45052   0.28270   0.00000  Uiso   1.00
Zn945  Zn    0.79947  -0.00000   0.78270   0.00000  Uiso   1.00
Zn946  Zn    0.50000   0.20052   0.21730   0.00000  Uiso   1.00
Zn947  Zn    0.50000   0.29947   0.78270   0.00000  Uiso   1.00
Zn948  Zn    0.79947  -0.00000   0.21730   0.00000  Uiso   1.00
Zn949  Zn    0.70052  -0.00000   0.78270   0.00000  Uiso   1.00
Zn950  Zn    0.50000   0.29947   0.21730   0.00000  Uiso   1.00
Zn951  Zn    0.50000   0.20052   0.78270   0.00000  Uiso   1.00
Zn952  Zn    0.95052   0.25000   0.71730   0.00000  Uiso   1.00
C953   C     0.25000   0.50000   0.35572   0.00000  Uiso   1.00
C954   C     0.33002   0.91998   0.75000   0.00000  Uiso   1.00
C955   C     0.42269   0.74884   0.02024   0.00000  Uiso   1.00
C956   C     0.25112   0.57730   0.97976   0.00000  Uiso   1.00
C957   C     0.25116   0.92269   0.02023   0.00000  Uiso   1.00
C958   C     0.42269   0.75113   0.97976   0.00000  Uiso   1.00
C959   C     0.07731   0.75118   0.02023   0.00000  Uiso   1.00
C960   C     0.48749   0.82715   0.39457   0.00000  Uiso   1.00
C961   C     0.01890   0.84490   0.37088   0.00000  Uiso   1.00
C962   C     0.00975   0.87983   0.34764   0.00000  Uiso   1.00
C963   C     0.46932   0.89737   0.34797   0.00000  Uiso   1.00
C964   C     0.43789   0.87983   0.37137   0.00000  Uiso   1.00
C965   C     0.41998   0.66998   0.25000   0.00000  Uiso   1.00
C966   C     0.44685   0.84478   0.39456   0.00000  Uiso   1.00
C967   C     0.48749   0.67285   0.60543   0.00000  Uiso   1.00
C968   C     0.01891   0.65509   0.62911   0.00000  Uiso   1.00
C969   C     0.00976   0.62017   0.65235   0.00000  Uiso   1.00
C970   C     0.46932   0.60265   0.65204   0.00000  Uiso   1.00
C971   C     0.43788   0.62018   0.62865   0.00000  Uiso   1.00
C972   C     0.44685   0.65524   0.60545   0.00000  Uiso   1.00
C973   C     0.17285   0.98748   0.39457   0.00000  Uiso   1.00
C974   C     0.15509   0.51890   0.37089   0.00000  Uiso   1.00
C975   C     0.12017   0.50974   0.34765   0.00000  Uiso   1.00
C976   C     0.08002   0.83002   0.75000   0.00000  Uiso   1.00
C977   C     0.10265   0.96931   0.34796   0.00000  Uiso   1.00
C978   C     0.12019   0.93787   0.37135   0.00000  Uiso   1.00
C979   C     0.15524   0.94684   0.39455   0.00000  Uiso   1.00
C980   C     0.32715   0.98748   0.60543   0.00000  Uiso   1.00
C981   C     0.34491   0.51889   0.62911   0.00000  Uiso   1.00
C982   C     0.37984   0.50974   0.65235   0.00000  Uiso   1.00
C983   C     0.39736   0.96930   0.65203   0.00000  Uiso   1.00
C984   C     0.37982   0.93787   0.62863   0.00000  Uiso   1.00
C985   C     0.34476   0.94684   0.60544   0.00000  Uiso   1.00
C986   C     0.01252   0.67285   0.39457   0.00000  Uiso   1.00
C987   C     0.33002   0.91998   0.25000   0.00000  Uiso   1.00
C988   C     0.48110   0.65509   0.37089   0.00000  Uiso   1.00
C989   C     0.49026   0.62016   0.34765   0.00000  Uiso   1.00
C990   C     0.03070   0.60264   0.34797   0.00000  Uiso   1.00
C991   C     0.06213   0.62019   0.37136   0.00000  Uiso   1.00
C992   C     0.05316   0.65524   0.39456   0.00000  Uiso   1.00
C993   C     0.01252   0.82715   0.60543   0.00000  Uiso   1.00
C994   C     0.48110   0.84491   0.62911   0.00000  Uiso   1.00
C995   C     0.49026   0.87984   0.65235   0.00000  Uiso   1.00
C996   C     0.03070   0.89735   0.65204   0.00000  Uiso   1.00
C997   C     0.06213   0.87981   0.62864   0.00000  Uiso   1.00
C998   C     0.16998   0.58002   0.75000   0.00000  Uiso   1.00
C999   C     0.05316   0.84476   0.60545   0.00000  Uiso   1.00
C1000  C     0.32715   0.51252   0.39457   0.00000  Uiso   1.00
C1001  C     0.34491   0.98110   0.37089   0.00000  Uiso   1.00
C1002  C     0.37984   0.99026   0.34765   0.00000  Uiso   1.00
C1003  C     0.39735   0.53070   0.34796   0.00000  Uiso   1.00
C1004  C     0.37981   0.56213   0.37136   0.00000  Uiso   1.00
C1005  C     0.34476   0.55316   0.39455   0.00000  Uiso   1.00
C1006  C     0.17285   0.51251   0.60543   0.00000  Uiso   1.00
C1007  C     0.15509   0.98110   0.62911   0.00000  Uiso   1.00
C1008  C     0.12017   0.99026   0.65235   0.00000  Uiso   1.00
C1009  C     0.08002   0.83002   0.25000   0.00000  Uiso   1.00
C1010  C     0.10264   0.53069   0.65203   0.00000  Uiso   1.00
C1011  C     0.12018   0.56212   0.62863   0.00000  Uiso   1.00
C1012  C     0.15523   0.55315   0.60544   0.00000  Uiso   1.00
C1013  C     0.23745   0.57714   0.89457   0.00000  Uiso   1.00
C1014  C     0.26885   0.59492   0.87089   0.00000  Uiso   1.00
C1015  C     0.25967   0.62984   0.84765   0.00000  Uiso   1.00
C1016  C     0.21922   0.64734   0.84798   0.00000  Uiso   1.00
C1017  C     0.18780   0.62978   0.87138   0.00000  Uiso   1.00
C1018  C     0.19680   0.59473   0.89457   0.00000  Uiso   1.00
C1019  C     0.23753   0.92284   0.10544   0.00000  Uiso   1.00
C1020  C     0.41998   0.66998   0.75000   0.00000  Uiso   1.00
C1021  C     0.26897   0.90509   0.12910   0.00000  Uiso   1.00
C1022  C     0.25985   0.87015   0.15234   0.00000  Uiso   1.00
C1023  C     0.21943   0.85260   0.15203   0.00000  Uiso   1.00
C1024  C     0.18797   0.87013   0.12865   0.00000  Uiso   1.00
C1025  C     0.19690   0.90520   0.10546   0.00000  Uiso   1.00
C1026  C     0.42285   0.73747   0.89457   0.00000  Uiso   1.00
C1027  C     0.40509   0.76888   0.87088   0.00000  Uiso   1.00
C1028  C     0.37017   0.75972   0.84764   0.00000  Uiso   1.00
C1029  C     0.35265   0.71929   0.84797   0.00000  Uiso   1.00
C1030  C     0.37019   0.68786   0.87137   0.00000  Uiso   1.00
C1031  C     0.16998   0.91998   0.75000   0.00000  Uiso   1.00
C1032  C     0.40524   0.69683   0.89456   0.00000  Uiso   1.00
C1033  C     0.07716   0.73756   0.10544   0.00000  Uiso   1.00
C1034  C     0.09492   0.76902   0.12907   0.00000  Uiso   1.00
C1035  C     0.12987   0.75992   0.15230   0.00000  Uiso   1.00
C1036  C     0.14743   0.71950   0.15201   0.00000  Uiso   1.00
C1037  C     0.12989   0.68802   0.12867   0.00000  Uiso   1.00
C1038  C     0.09481   0.69693   0.10548   0.00000  Uiso   1.00
C1039  C     0.26254   0.92285   0.89457   0.00000  Uiso   1.00
C1040  C     0.23114   0.90509   0.87087   0.00000  Uiso   1.00
C1041  C     0.24031   0.87017   0.84764   0.00000  Uiso   1.00
C1042  C     0.33002   0.58002   0.25000   0.00000  Uiso   1.00
C1043  C     0.28075   0.85264   0.84797   0.00000  Uiso   1.00
C1044  C     0.31217   0.87018   0.87138   0.00000  Uiso   1.00
C1045  C     0.30319   0.90524   0.89457   0.00000  Uiso   1.00
C1046  C     0.26246   0.57715   0.10544   0.00000  Uiso   1.00
C1047  C     0.23102   0.59492   0.12908   0.00000  Uiso   1.00
C1048  C     0.24014   0.62986   0.15231   0.00000  Uiso   1.00
C1049  C     0.28057   0.64740   0.15202   0.00000  Uiso   1.00
C1050  C     0.31203   0.62985   0.12866   0.00000  Uiso   1.00
C1051  C     0.30310   0.59478   0.10548   0.00000  Uiso   1.00
C1052  C     0.07714   0.76255   0.89457   0.00000  Uiso   1.00
C1053  C     0.41998   0.83002   0.75000   0.00000  Uiso   1.00
C1054  C     0.09491   0.73115   0.87088   0.00000  Uiso   1.00
C1055  C     0.12983   0.74032   0.84764   0.00000  Uiso   1.00
C1056  C     0.14734   0.78076   0.84797   0.00000  Uiso   1.00
C1057  C     0.12980   0.81218   0.87138   0.00000  Uiso   1.00
C1058  C     0.09475   0.80319   0.89457   0.00000  Uiso   1.00
C1059  C     0.42284   0.76247   0.10544   0.00000  Uiso   1.00
C1060  C     0.40510   0.73103   0.12910   0.00000  Uiso   1.00
C1061  C     0.37017   0.74016   0.15235   0.00000  Uiso   1.00
C1062  C     0.35263   0.78059   0.15205   0.00000  Uiso   1.00
C1063  C     0.37016   0.81204   0.12867   0.00000  Uiso   1.00
C1064  C     0.25000   0.50000   0.64428   0.00000  Uiso   1.00
C1065  C     0.08002   0.66998   0.25000   0.00000  Uiso   1.00
C1066  C     0.40521   0.80310   0.10547   0.00000  Uiso   1.00
C1067  C     0.45511   0.61909   0.46148   0.00000  Uiso   1.00
C1068  C     0.45479   0.57361   0.44747   0.00000  Uiso   1.00
C1069  C     0.45512   0.88092   0.53852   0.00000  Uiso   1.00
C1070  C     0.45480   0.92639   0.55253   0.00000  Uiso   1.00
C1071  C     0.38092   0.95512   0.46148   0.00000  Uiso   1.00
C1072  C     0.42640   0.95481   0.44748   0.00000  Uiso   1.00
C1073  C     0.11909   0.95511   0.53852   0.00000  Uiso   1.00
C1074  C     0.07361   0.95479   0.55253   0.00000  Uiso   1.00
C1075  C     0.04489   0.88091   0.46148   0.00000  Uiso   1.00
C1076  C     0.33002   0.58002   0.75000   0.00000  Uiso   1.00
C1077  C     0.04522   0.92638   0.44746   0.00000  Uiso   1.00
C1078  C     0.04488   0.61908   0.53852   0.00000  Uiso   1.00
C1079  C     0.04520   0.57360   0.55253   0.00000  Uiso   1.00
C1080  C     0.11908   0.54489   0.46148   0.00000  Uiso   1.00
C1081  C     0.07361   0.54520   0.44747   0.00000  Uiso   1.00
C1082  C     0.38091   0.54489   0.53852   0.00000  Uiso   1.00
C1083  C     0.42639   0.54522   0.55253   0.00000  Uiso   1.00
C1084  C     0.20513   0.86909   0.96146   0.00000  Uiso   1.00
C1085  C     0.20481   0.82362   0.94745   0.00000  Uiso   1.00
C1086  C     0.20509   0.63093   0.03849   0.00000  Uiso   1.00
C1087  C     0.16998   0.91998   0.25000   0.00000  Uiso   1.00
C1088  C     0.20478   0.67640   0.05251   0.00000  Uiso   1.00
C1089  C     0.13091   0.70513   0.96147   0.00000  Uiso   1.00
C1090  C     0.17638   0.70481   0.94745   0.00000  Uiso   1.00
C1091  C     0.36908   0.70509   0.03851   0.00000  Uiso   1.00
C1092  C     0.32361   0.70477   0.05252   0.00000  Uiso   1.00
C1093  C     0.29487   0.63091   0.96148   0.00000  Uiso   1.00
C1094  C     0.29519   0.67638   0.94746   0.00000  Uiso   1.00
C1095  C     0.29492   0.86908   0.03851   0.00000  Uiso   1.00
C1096  C     0.29524   0.82361   0.05252   0.00000  Uiso   1.00
C1097  C     0.36908   0.79487   0.96148   0.00000  Uiso   1.00
C1098  C     0.08002   0.66998   0.75000   0.00000  Uiso   1.00
C1099  C     0.32361   0.79519   0.94747   0.00000  Uiso   1.00
C1100  C     0.13093   0.79493   0.03848   0.00000  Uiso   1.00
C1101  C     0.17640   0.79525   0.05248   0.00000  Uiso   1.00
C1102  C     0.41998   0.83002   0.25000   0.00000  Uiso   1.00
C1103  C     0.13834   0.88834   0.25000   0.00000  Uiso   1.00
C1104  C     0.36166   0.61166   0.75000   0.00000  Uiso   1.00
C1105  C     0.11166   0.63834   0.25000   0.00000  Uiso   1.00
C1106  C     0.38834   0.86166   0.75000   0.00000  Uiso   1.00
C1107  C     0.36166   0.61166   0.25000   0.00000  Uiso   1.00
C1108  C    -0.00000   0.75000   0.35572   0.00000  Uiso   1.00
C1109  C     0.13834   0.88834   0.75000   0.00000  Uiso   1.00
C1110  C     0.38834   0.86166   0.25000   0.00000  Uiso   1.00
C1111  C     0.11166   0.63834   0.75000   0.00000  Uiso   1.00
C1112  C     0.13834   0.61166   0.75000   0.00000  Uiso   1.00
C1113  C     0.36166   0.88834   0.25000   0.00000  Uiso   1.00
C1114  C     0.11166   0.86166   0.75000   0.00000  Uiso   1.00
C1115  C     0.38834   0.63834   0.25000   0.00000  Uiso   1.00
C1116  C     0.36166   0.88834   0.75000   0.00000  Uiso   1.00
C1117  C     0.13834   0.61166   0.25000   0.00000  Uiso   1.00
C1118  C     0.38834   0.63834   0.75000   0.00000  Uiso   1.00
C1119  C     0.00000   0.75000   0.64428   0.00000  Uiso   1.00
C1120  C     0.11166   0.86166   0.25000   0.00000  Uiso   1.00
C1121  C     0.49631   0.78847   0.41776   0.00000  Uiso   1.00
C1122  C     0.49631   0.71153   0.58224   0.00000  Uiso   1.00
C1123  C     0.21153   0.99631   0.41776   0.00000  Uiso   1.00
C1124  C     0.28847   0.99631   0.58224   0.00000  Uiso   1.00
C1125  C     0.00369   0.71153   0.41776   0.00000  Uiso   1.00
C1126  C     0.00369   0.78847   0.58224   0.00000  Uiso   1.00
C1127  C     0.28847   0.50369   0.41776   0.00000  Uiso   1.00
C1128  C     0.21153   0.50369   0.58224   0.00000  Uiso   1.00
C1129  C     0.24630   0.53847   0.91776   0.00000  Uiso   1.00
C1130  C    -0.00000   0.75000   0.85572   0.00000  Uiso   1.00
C1131  C     0.24633   0.96152   0.08224   0.00000  Uiso   1.00
C1132  C     0.46152   0.74630   0.91776   0.00000  Uiso   1.00
C1133  C     0.03848   0.74634   0.08224   0.00000  Uiso   1.00
C1134  C     0.25370   0.96153   0.91776   0.00000  Uiso   1.00
C1135  C     0.25366   0.53847   0.08224   0.00000  Uiso   1.00
C1136  C     0.03847   0.75370   0.91776   0.00000  Uiso   1.00
C1137  C     0.46152   0.75367   0.08224   0.00000  Uiso   1.00
C1138  C    -0.00000   0.75000   0.39796   0.00000  Uiso   1.00
C1139  C     0.00000   0.75000   0.60204   0.00000  Uiso   1.00
C1140  C     0.25000   0.50000   0.39796   0.00000  Uiso   1.00
C1141  C     0.00000   0.75000   0.14428   0.00000  Uiso   1.00
C1142  C     0.25000   0.50000   0.60204   0.00000  Uiso   1.00
C1143  C     0.25000   0.50000   0.89796   0.00000  Uiso   1.00
C1144  C     0.25000   0.50000   0.10204   0.00000  Uiso   1.00
C1145  C    -0.00000   0.75000   0.89796   0.00000  Uiso   1.00
C1146  C     0.00000   0.75000   0.10204   0.00000  Uiso   1.00
C1147  C     0.00089   0.71101   0.45877   0.00000  Uiso   1.00
C1148  C     0.00089   0.78899   0.54123   0.00000  Uiso   1.00
C1149  C     0.28899   0.50089   0.45877   0.00000  Uiso   1.00
C1150  C     0.21101   0.50089   0.54123   0.00000  Uiso   1.00
C1151  C     0.49911   0.78899   0.45877   0.00000  Uiso   1.00
C1152  C     0.25000   0.50000   0.85572   0.00000  Uiso   1.00
C1153  C     0.49911   0.71101   0.54123   0.00000  Uiso   1.00
C1154  C     0.21101   0.99911   0.45877   0.00000  Uiso   1.00
C1155  C     0.28899   0.99911   0.54123   0.00000  Uiso   1.00
C1156  C     0.25090   0.96101   0.95877   0.00000  Uiso   1.00
C1157  C     0.25087   0.53899   0.04123   0.00000  Uiso   1.00
C1158  C     0.03899   0.75090   0.95877   0.00000  Uiso   1.00
C1159  C     0.46101   0.75088   0.04123   0.00000  Uiso   1.00
C1160  C     0.24910   0.53899   0.95877   0.00000  Uiso   1.00
C1161  C     0.24912   0.96100   0.04123   0.00000  Uiso   1.00
C1162  C     0.46101   0.74910   0.95877   0.00000  Uiso   1.00
C1163  C     0.25000   0.50000   0.14428   0.00000  Uiso   1.00
C1164  C     0.03899   0.74913   0.04123   0.00000  Uiso   1.00
C1165  C    -0.00000   0.75000   0.47937   0.00000  Uiso   1.00
C1166  C    -0.00000   0.75000   0.52063   0.00000  Uiso   1.00
C1167  C     0.25000   0.50000   0.47937   0.00000  Uiso   1.00
C1168  C     0.25000   0.50000   0.52063   0.00000  Uiso   1.00
C1169  C     0.25000   0.50000   0.97937   0.00000  Uiso   1.00
C1170  C     0.25000   0.50000   0.02063   0.00000  Uiso   1.00
C1171  C    -0.00000   0.75000   0.97937   0.00000  Uiso   1.00
C1172  C    -0.00000   0.75000   0.02063   0.00000  Uiso   1.00
C1173  C     0.49886   0.67269   0.47976   0.00000  Uiso   1.00
C1174  C     0.16998   0.58002   0.25000   0.00000  Uiso   1.00
C1175  C     0.49886   0.82731   0.52024   0.00000  Uiso   1.00
C1176  C     0.32731   0.99886   0.47976   0.00000  Uiso   1.00
C1177  C     0.17269   0.99886   0.52024   0.00000  Uiso   1.00
C1178  C     0.00114   0.82731   0.47976   0.00000  Uiso   1.00
C1179  C     0.00114   0.67269   0.52024   0.00000  Uiso   1.00
C1180  C     0.17269   0.50114   0.47976   0.00000  Uiso   1.00
C1181  C     0.32731   0.50114   0.52024   0.00000  Uiso   1.00
C1182  C     0.24888   0.92269   0.97976   0.00000  Uiso   1.00
C1183  C     0.24883   0.57731   0.02024   0.00000  Uiso   1.00
C1184  C     0.07730   0.74888   0.97976   0.00000  Uiso   1.00
H1185  H     0.05033   0.83154   0.37034   0.00000  Uiso   1.00
H1186  H     0.42219   0.66877   0.58764   0.00000  Uiso   1.00
H1187  H     0.07159   0.96787   0.58232   0.00000  Uiso   1.00
H1188  H     0.06486   0.86161   0.44177   0.00000  Uiso   1.00
H1189  H     0.05899   0.88027   0.49104   0.00000  Uiso   1.00
H1190  H     0.02586   0.94626   0.46710   0.00000  Uiso   1.00
H1191  H     0.07798   0.93859   0.44728   0.00000  Uiso   1.00
H1192  H     0.03213   0.92840   0.41768   0.00000  Uiso   1.00
H1193  H     0.06485   0.63837   0.55823   0.00000  Uiso   1.00
H1194  H     0.05898   0.61973   0.50895   0.00000  Uiso   1.00
H1195  H     0.02584   0.55374   0.53288   0.00000  Uiso   1.00
H1196  H     0.07796   0.56139   0.55271   0.00000  Uiso   1.00
H1197  H     0.16844   0.55033   0.37036   0.00000  Uiso   1.00
H1198  H     0.03211   0.57158   0.58231   0.00000  Uiso   1.00
H1199  H     0.13838   0.56485   0.44177   0.00000  Uiso   1.00
H1200  H     0.11973   0.55898   0.49105   0.00000  Uiso   1.00
H1201  H     0.05374   0.52585   0.46711   0.00000  Uiso   1.00
H1202  H     0.06140   0.57796   0.44728   0.00000  Uiso   1.00
H1203  H     0.07159   0.53212   0.41768   0.00000  Uiso   1.00
H1204  H     0.36161   0.56486   0.55824   0.00000  Uiso   1.00
H1205  H     0.38026   0.55899   0.50896   0.00000  Uiso   1.00
H1206  H     0.44626   0.52586   0.53289   0.00000  Uiso   1.00
H1207  H     0.43859   0.57797   0.55272   0.00000  Uiso   1.00
H1208  H     0.10676   0.53398   0.32933   0.00000  Uiso   1.00
H1209  H     0.42841   0.53213   0.58232   0.00000  Uiso   1.00
H1210  H     0.18517   0.88839   0.94174   0.00000  Uiso   1.00
H1211  H     0.19102   0.86975   0.99102   0.00000  Uiso   1.00
H1212  H     0.22415   0.80375   0.96710   0.00000  Uiso   1.00
H1213  H     0.17205   0.81142   0.94725   0.00000  Uiso   1.00
H1214  H     0.21790   0.82160   0.91767   0.00000  Uiso   1.00
H1215  H     0.18511   0.61164   0.05820   0.00000  Uiso   1.00
H1216  H     0.19101   0.63028   0.00893   0.00000  Uiso   1.00
H1217  H     0.22415   0.69627   0.03287   0.00000  Uiso   1.00
H1218  H     0.17203   0.68862   0.05268   0.00000  Uiso   1.00
H1219  H     0.07557   0.96233   0.32998   0.00000  Uiso   1.00
H1220  H     0.21785   0.67842   0.08230   0.00000  Uiso   1.00
H1221  H     0.11160   0.68517   0.94176   0.00000  Uiso   1.00
H1222  H     0.13026   0.69103   0.99103   0.00000  Uiso   1.00
H1223  H     0.19625   0.72414   0.96710   0.00000  Uiso   1.00
H1224  H     0.18857   0.67205   0.94725   0.00000  Uiso   1.00
H1225  H     0.17840   0.71791   0.91767   0.00000  Uiso   1.00
H1226  H     0.38838   0.68511   0.05822   0.00000  Uiso   1.00
H1227  H     0.36973   0.69100   0.00894   0.00000  Uiso   1.00
H1228  H     0.30374   0.72412   0.03288   0.00000  Uiso   1.00
H1229  H     0.31140   0.67201   0.05271   0.00000  Uiso   1.00
H1230  H     0.10666   0.90653   0.37149   0.00000  Uiso   1.00
H1231  H     0.32158   0.71785   0.08230   0.00000  Uiso   1.00
H1232  H     0.31484   0.61161   0.94176   0.00000  Uiso   1.00
H1233  H     0.30897   0.63026   0.99104   0.00000  Uiso   1.00
H1234  H     0.27583   0.69625   0.96709   0.00000  Uiso   1.00
H1235  H     0.32795   0.68860   0.94729   0.00000  Uiso   1.00
H1236  H     0.28212   0.67840   0.91767   0.00000  Uiso   1.00
H1237  H     0.31489   0.88838   0.05822   0.00000  Uiso   1.00
H1238  H     0.30900   0.86973   0.00894   0.00000  Uiso   1.00
H1239  H     0.27589   0.80374   0.03288   0.00000  Uiso   1.00
H1240  H     0.32800   0.81140   0.05271   0.00000  Uiso   1.00
H1241  H     0.16878   0.92219   0.41236   0.00000  Uiso   1.00
H1242  H     0.28215   0.82159   0.08230   0.00000  Uiso   1.00
H1243  H     0.38838   0.81484   0.94176   0.00000  Uiso   1.00
H1244  H     0.36973   0.80897   0.99104   0.00000  Uiso   1.00
H1245  H     0.30374   0.77583   0.96711   0.00000  Uiso   1.00
H1246  H     0.31140   0.82794   0.94728   0.00000  Uiso   1.00
H1247  H     0.32158   0.78210   0.91768   0.00000  Uiso   1.00
H1248  H     0.11164   0.81492   0.05819   0.00000  Uiso   1.00
H1249  H     0.13027   0.80901   0.00891   0.00000  Uiso   1.00
H1250  H     0.17843   0.78219   0.08228   0.00000  Uiso   1.00
H1251  H     0.19626   0.77587   0.03285   0.00000  Uiso   1.00
H1252  H     0.33156   0.55032   0.62965   0.00000  Uiso   1.00
H1253  H     0.18861   0.82800   0.05265   0.00000  Uiso   1.00
H1254  H     0.39324   0.53397   0.67067   0.00000  Uiso   1.00
H1255  H     0.42444   0.96232   0.67000   0.00000  Uiso   1.00
H1256  H     0.39335   0.90653   0.62849   0.00000  Uiso   1.00
H1257  H     0.03398   0.89323   0.32932   0.00000  Uiso   1.00
H1258  H     0.33122   0.92219   0.58763   0.00000  Uiso   1.00
H1259  H     0.44967   0.66844   0.37035   0.00000  Uiso   1.00
H1260  H     0.46603   0.60676   0.32933   0.00000  Uiso   1.00
H1261  H     0.03768   0.57557   0.32999   0.00000  Uiso   1.00
H1262  H     0.09347   0.60665   0.37150   0.00000  Uiso   1.00
H1263  H     0.07781   0.66878   0.41237   0.00000  Uiso   1.00
H1264  H     0.44967   0.83156   0.62964   0.00000  Uiso   1.00
H1265  H     0.46603   0.89324   0.67067   0.00000  Uiso   1.00
H1266  H     0.03768   0.92443   0.67001   0.00000  Uiso   1.00
H1267  H     0.09347   0.89334   0.62851   0.00000  Uiso   1.00
H1268  H     0.46234   0.92445   0.33000   0.00000  Uiso   1.00
H1269  H     0.07781   0.83122   0.58764   0.00000  Uiso   1.00
H1270  H     0.33156   0.94967   0.37036   0.00000  Uiso   1.00
H1271  H     0.39325   0.96603   0.32933   0.00000  Uiso   1.00
H1272  H     0.42443   0.53768   0.32999   0.00000  Uiso   1.00
H1273  H     0.39334   0.59347   0.37149   0.00000  Uiso   1.00
H1274  H     0.33122   0.57781   0.41236   0.00000  Uiso   1.00
H1275  H     0.16845   0.94967   0.62966   0.00000  Uiso   1.00
H1276  H     0.10676   0.96603   0.67068   0.00000  Uiso   1.00
H1277  H     0.07556   0.53767   0.67000   0.00000  Uiso   1.00
H1278  H     0.10664   0.59346   0.62849   0.00000  Uiso   1.00
H1279  H     0.40656   0.89338   0.37153   0.00000  Uiso   1.00
H1280  H     0.16877   0.57781   0.58762   0.00000  Uiso   1.00
H1281  H     0.30028   0.58158   0.87034   0.00000  Uiso   1.00
H1282  H     0.28389   0.64326   0.82932   0.00000  Uiso   1.00
H1283  H     0.21222   0.67441   0.83000   0.00000  Uiso   1.00
H1284  H     0.15646   0.64330   0.87153   0.00000  Uiso   1.00
H1285  H     0.17216   0.58118   0.91239   0.00000  Uiso   1.00
H1286  H     0.30039   0.91847   0.12963   0.00000  Uiso   1.00
H1287  H     0.28410   0.85675   0.17064   0.00000  Uiso   1.00
H1288  H     0.21247   0.82551   0.16999   0.00000  Uiso   1.00
H1289  H     0.15664   0.85656   0.12852   0.00000  Uiso   1.00
H1290  H     0.42220   0.83125   0.41238   0.00000  Uiso   1.00
H1291  H     0.17223   0.91872   0.08766   0.00000  Uiso   1.00
H1292  H     0.41844   0.80031   0.87034   0.00000  Uiso   1.00
H1293  H     0.35676   0.78395   0.82932   0.00000  Uiso   1.00
H1294  H     0.32557   0.71231   0.82999   0.00000  Uiso   1.00
H1295  H     0.35665   0.65652   0.87151   0.00000  Uiso   1.00
H1296  H     0.41877   0.67218   0.91238   0.00000  Uiso   1.00
H1297  H     0.08154   0.80044   0.12958   0.00000  Uiso   1.00
H1298  H     0.14328   0.78419   0.17058   0.00000  Uiso   1.00
H1299  H     0.17453   0.71256   0.16997   0.00000  Uiso   1.00
H1300  H     0.14345   0.65669   0.12855   0.00000  Uiso   1.00
H1301  H     0.05034   0.66844   0.62964   0.00000  Uiso   1.00
H1302  H     0.08127   0.67225   0.08770   0.00000  Uiso   1.00
H1303  H     0.19971   0.91844   0.87032   0.00000  Uiso   1.00
H1304  H     0.21608   0.85676   0.82930   0.00000  Uiso   1.00
H1305  H     0.28774   0.82556   0.83000   0.00000  Uiso   1.00
H1306  H     0.34351   0.85664   0.87154   0.00000  Uiso   1.00
H1307  H     0.32783   0.91878   0.91240   0.00000  Uiso   1.00
H1308  H     0.19960   0.58156   0.12959   0.00000  Uiso   1.00
H1309  H     0.21589   0.64328   0.17059   0.00000  Uiso   1.00
H1310  H     0.28753   0.67449   0.16998   0.00000  Uiso   1.00
H1311  H     0.34337   0.64339   0.12854   0.00000  Uiso   1.00
H1312  H     0.03399   0.60676   0.67067   0.00000  Uiso   1.00
H1313  H     0.32777   0.58124   0.08770   0.00000  Uiso   1.00
H1314  H     0.08156   0.69972   0.87033   0.00000  Uiso   1.00
H1315  H     0.14324   0.71610   0.82931   0.00000  Uiso   1.00
H1316  H     0.17441   0.78776   0.83000   0.00000  Uiso   1.00
H1317  H     0.14333   0.84352   0.87153   0.00000  Uiso   1.00
H1318  H     0.08120   0.82783   0.91239   0.00000  Uiso   1.00
H1319  H     0.41846   0.69961   0.12963   0.00000  Uiso   1.00
H1320  H     0.35677   0.71591   0.17066   0.00000  Uiso   1.00
H1321  H     0.32555   0.78755   0.17002   0.00000  Uiso   1.00
H1322  H     0.35661   0.84337   0.12854   0.00000  Uiso   1.00
H1323  H     0.46234   0.57557   0.67002   0.00000  Uiso   1.00
H1324  H     0.41874   0.82777   0.08767   0.00000  Uiso   1.00
H1325  H     0.43514   0.63838   0.44176   0.00000  Uiso   1.00
H1326  H     0.44101   0.61974   0.49104   0.00000  Uiso   1.00
H1327  H     0.47414   0.55374   0.46711   0.00000  Uiso   1.00
H1328  H     0.42203   0.56141   0.44728   0.00000  Uiso   1.00
H1329  H     0.46787   0.57159   0.41768   0.00000  Uiso   1.00
H1330  H     0.43515   0.86163   0.55823   0.00000  Uiso   1.00
H1331  H     0.44102   0.88027   0.50895   0.00000  Uiso   1.00
H1332  H     0.47416   0.94626   0.53289   0.00000  Uiso   1.00
H1333  H     0.42204   0.93861   0.55271   0.00000  Uiso   1.00
H1334  H     0.40655   0.60665   0.62851   0.00000  Uiso   1.00
H1335  H     0.46789   0.92842   0.58231   0.00000  Uiso   1.00
H1336  H     0.36163   0.93515   0.44177   0.00000  Uiso   1.00
H1337  H     0.38027   0.94102   0.49105   0.00000  Uiso   1.00
H1338  H     0.44626   0.97416   0.46712   0.00000  Uiso   1.00
H1339  H     0.43861   0.92205   0.44729   0.00000  Uiso   1.00
H1340  H     0.42842   0.96789   0.41769   0.00000  Uiso   1.00
H1341  H     0.13839   0.93514   0.55823   0.00000  Uiso   1.00
H1342  H     0.11973   0.94101   0.50896   0.00000  Uiso   1.00
H1343  H     0.05374   0.97414   0.53290   0.00000  Uiso   1.00
H1344  H     0.06141   0.92203   0.55272   0.00000  Uiso   1.00
O1345  O     0.25000   0.50000   0.25000   0.00000  Uiso   1.00
O1346  O     0.25000   0.96538   0.66251   0.00000  Uiso   1.00
O1347  O     0.46538   0.75000   0.33749   0.00000  Uiso   1.00
O1348  O     0.03461   0.75000   0.66251   0.00000  Uiso   1.00
O1349  O    -0.00000   0.71538   0.83749   0.00000  Uiso   1.00
O1350  O    -0.00000   0.78461   0.16251   0.00000  Uiso   1.00
O1351  O     0.28461   0.50000   0.83749   0.00000  Uiso   1.00
O1352  O     0.21538   0.50000   0.16251   0.00000  Uiso   1.00
O1353  O     0.00000   0.78461   0.83749   0.00000  Uiso   1.00
O1354  O    -0.00000   0.71538   0.16251   0.00000  Uiso   1.00
O1355  O     0.21538   0.50000   0.83749   0.00000  Uiso   1.00
O1356  O     0.25000   0.50000   0.75000   0.00000  Uiso   1.00
O1357  O     0.28461   0.50000   0.16251   0.00000  Uiso   1.00
O1358  O     0.20126   0.58332   0.27298   0.00000  Uiso   1.00
O1359  O     0.29873   0.91668   0.72702   0.00000  Uiso   1.00
O1360  O     0.41668   0.70126   0.27298   0.00000  Uiso   1.00
O1361  O     0.08332   0.79873   0.72702   0.00000  Uiso   1.00
O1362  O     0.29873   0.91668   0.27298   0.00000  Uiso   1.00
O1363  O     0.20126   0.58332   0.72702   0.00000  Uiso   1.00
O1364  O     0.08332   0.79873   0.27298   0.00000  Uiso   1.00
O1365  O     0.41668   0.70126   0.72702   0.00000  Uiso   1.00
O1366  O     0.20126   0.91668   0.72702   0.00000  Uiso   1.00
O1367  O    -0.00000   0.75000   0.25000   0.00000  Uiso   1.00
O1368  O     0.29873   0.58332   0.27298   0.00000  Uiso   1.00
O1369  O     0.41668   0.79873   0.72702   0.00000  Uiso   1.00
O1370  O     0.08332   0.70126   0.27298   0.00000  Uiso   1.00
O1371  O     0.29873   0.58332   0.72702   0.00000  Uiso   1.00
O1372  O     0.20126   0.91668   0.27298   0.00000  Uiso   1.00
O1373  O     0.08332   0.70126   0.72702   0.00000  Uiso   1.00
O1374  O     0.41668   0.79873   0.27298   0.00000  Uiso   1.00
O1375  O     0.45126   0.83332   0.77298   0.00000  Uiso   1.00
O1376  O     0.04873   0.66668   0.22702   0.00000  Uiso   1.00
O1377  O     0.16668   0.95126   0.77298   0.00000  Uiso   1.00
O1378  O     0.00000   0.75000   0.75000   0.00000  Uiso   1.00
O1379  O     0.33332   0.54873   0.22702   0.00000  Uiso   1.00
O1380  O     0.04873   0.66668   0.77298   0.00000  Uiso   1.00
O1381  O     0.45126   0.83332   0.22702   0.00000  Uiso   1.00
O1382  O     0.33332   0.54873   0.77298   0.00000  Uiso   1.00
O1383  O     0.16668   0.95126   0.22702   0.00000  Uiso   1.00
O1384  O     0.45126   0.66668   0.22702   0.00000  Uiso   1.00
O1385  O     0.04873   0.83332   0.77298   0.00000  Uiso   1.00
O1386  O     0.16668   0.54873   0.22702   0.00000  Uiso   1.00
O1387  O     0.33332   0.95126   0.77298   0.00000  Uiso   1.00
O1388  O     0.04873   0.83332   0.22702   0.00000  Uiso   1.00
O1389  O     0.25000   0.96538   0.33749   0.00000  Uiso   1.00
O1390  O     0.45126   0.66668   0.77298   0.00000  Uiso   1.00
O1391  O     0.33332   0.95126   0.22702   0.00000  Uiso   1.00
O1392  O     0.16668   0.54873   0.77298   0.00000  Uiso   1.00
O1393  O     0.49707   0.63406   0.46114   0.00000  Uiso   1.00
O1394  O     0.49707   0.86594   0.53886   0.00000  Uiso   1.00
O1395  O     0.36594   0.99708   0.46114   0.00000  Uiso   1.00
O1396  O     0.13406   0.99707   0.53885   0.00000  Uiso   1.00
O1397  O     0.00293   0.86594   0.46115   0.00000  Uiso   1.00
O1398  O     0.00293   0.63406   0.53885   0.00000  Uiso   1.00
O1399  O     0.13406   0.50293   0.46114   0.00000  Uiso   1.00
O1400  O     0.25000   0.53461   0.66251   0.00000  Uiso   1.00
O1401  O     0.36594   0.50293   0.53885   0.00000  Uiso   1.00
O1402  O     0.24709   0.88406   0.96114   0.00000  Uiso   1.00
O1403  O     0.24705   0.61594   0.03885   0.00000  Uiso   1.00
O1404  O     0.11594   0.74709   0.96114   0.00000  Uiso   1.00
O1405  O     0.38406   0.74705   0.03885   0.00000  Uiso   1.00
O1406  O     0.25291   0.61594   0.96114   0.00000  Uiso   1.00
O1407  O     0.25296   0.88406   0.03885   0.00000  Uiso   1.00
O1408  O     0.38406   0.75291   0.96115   0.00000  Uiso   1.00
O1409  O     0.11594   0.75297   0.03885   0.00000  Uiso   1.00
O1410  O     0.03461   0.75000   0.33749   0.00000  Uiso   1.00
O1411  O     0.46538   0.75000   0.66251   0.00000  Uiso   1.00
O1412  O     0.25000   0.53461   0.33749   0.00000  Uiso   1.00
Zn1413 Zn    0.20052   0.50000   0.21730   0.00000  Uiso   1.00
Zn1414 Zn    0.04947   0.75000   0.28270   0.00000  Uiso   1.00
Zn1415 Zn    0.25000   0.95052   0.71730   0.00000  Uiso   1.00
Zn1416 Zn    0.25000   0.54947   0.28270   0.00000  Uiso   1.00
Zn1417 Zn    0.04947   0.75000   0.71730   0.00000  Uiso   1.00
Zn1418 Zn    0.45052   0.75000   0.28270   0.00000  Uiso   1.00
Zn1419 Zn    0.25000   0.54947   0.71730   0.00000  Uiso   1.00
Zn1420 Zn    0.25000   0.95052   0.28270   0.00000  Uiso   1.00
Zn1421 Zn    0.29947   0.50000   0.78270   0.00000  Uiso   1.00
Zn1422 Zn   -0.00000   0.70052   0.21730   0.00000  Uiso   1.00
Zn1423 Zn   -0.00000   0.79947   0.78270   0.00000  Uiso   1.00
Zn1424 Zn    0.29947   0.50000   0.21730   0.00000  Uiso   1.00
Zn1425 Zn    0.20052   0.50000   0.78270   0.00000  Uiso   1.00
Zn1426 Zn   -0.00000   0.79947   0.21730   0.00000  Uiso   1.00
Zn1427 Zn   -0.00000   0.70052   0.78270   0.00000  Uiso   1.00
Zn1428 Zn    0.45052   0.75000   0.71730   0.00000  Uiso   1.00
C1429  C     0.75000   0.50000   0.35572   0.00000  Uiso   1.00
C1430  C     0.83002   0.91998   0.75000   0.00000  Uiso   1.00
C1431  C     0.92269   0.74884   0.02024   0.00000  Uiso   1.00
C1432  C     0.75112   0.57730   0.97976   0.00000  Uiso   1.00
C1433  C     0.75116   0.92269   0.02023   0.00000  Uiso   1.00
C1434  C     0.92269   0.75113   0.97976   0.00000  Uiso   1.00
C1435  C     0.57731   0.75118   0.02023   0.00000  Uiso   1.00
C1436  C     0.98749   0.82715   0.39457   0.00000  Uiso   1.00
C1437  C     0.51890   0.84490   0.37088   0.00000  Uiso   1.00
C1438  C     0.50975   0.87983   0.34764   0.00000  Uiso   1.00
C1439  C     0.96932   0.89737   0.34797   0.00000  Uiso   1.00
C1440  C     0.93789   0.87983   0.37137   0.00000  Uiso   1.00
C1441  C     0.91998   0.66998   0.25000   0.00000  Uiso   1.00
C1442  C     0.94685   0.84478   0.39456   0.00000  Uiso   1.00
C1443  C     0.98749   0.67285   0.60543   0.00000  Uiso   1.00
C1444  C     0.51891   0.65509   0.62911   0.00000  Uiso   1.00
C1445  C     0.50976   0.62017   0.65235   0.00000  Uiso   1.00
C1446  C     0.96932   0.60265   0.65204   0.00000  Uiso   1.00
C1447  C     0.93788   0.62018   0.62865   0.00000  Uiso   1.00
C1448  C     0.94685   0.65524   0.60545   0.00000  Uiso   1.00
C1449  C     0.67285   0.98748   0.39457   0.00000  Uiso   1.00
C1450  C     0.65509   0.51890   0.37089   0.00000  Uiso   1.00
C1451  C     0.62017   0.50974   0.34765   0.00000  Uiso   1.00
C1452  C     0.58002   0.83002   0.75000   0.00000  Uiso   1.00
C1453  C     0.60265   0.96931   0.34796   0.00000  Uiso   1.00
C1454  C     0.62019   0.93787   0.37135   0.00000  Uiso   1.00
C1455  C     0.65524   0.94684   0.39455   0.00000  Uiso   1.00
C1456  C     0.82715   0.98748   0.60543   0.00000  Uiso   1.00
C1457  C     0.84491   0.51889   0.62911   0.00000  Uiso   1.00
C1458  C     0.87984   0.50974   0.65235   0.00000  Uiso   1.00
C1459  C     0.89736   0.96930   0.65203   0.00000  Uiso   1.00
C1460  C     0.87982   0.93787   0.62863   0.00000  Uiso   1.00
C1461  C     0.84476   0.94684   0.60544   0.00000  Uiso   1.00
C1462  C     0.51252   0.67285   0.39457   0.00000  Uiso   1.00
C1463  C     0.83002   0.91998   0.25000   0.00000  Uiso   1.00
C1464  C     0.98110   0.65509   0.37089   0.00000  Uiso   1.00
C1465  C     0.99026   0.62016   0.34765   0.00000  Uiso   1.00
C1466  C     0.53070   0.60264   0.34797   0.00000  Uiso   1.00
C1467  C     0.56213   0.62019   0.37136   0.00000  Uiso   1.00
C1468  C     0.55316   0.65524   0.39456   0.00000  Uiso   1.00
C1469  C     0.51252   0.82715   0.60543   0.00000  Uiso   1.00
C1470  C     0.98110   0.84491   0.62911   0.00000  Uiso   1.00
C1471  C     0.99026   0.87984   0.65235   0.00000  Uiso   1.00
C1472  C     0.53070   0.89735   0.65204   0.00000  Uiso   1.00
C1473  C     0.56213   0.87981   0.62864   0.00000  Uiso   1.00
C1474  C     0.66998   0.58002   0.75000   0.00000  Uiso   1.00
C1475  C     0.55316   0.84476   0.60545   0.00000  Uiso   1.00
C1476  C     0.82715   0.51252   0.39457   0.00000  Uiso   1.00
C1477  C     0.84491   0.98110   0.37089   0.00000  Uiso   1.00
C1478  C     0.87984   0.99026   0.34765   0.00000  Uiso   1.00
C1479  C     0.89735   0.53070   0.34796   0.00000  Uiso   1.00
C1480  C     0.87981   0.56213   0.37136   0.00000  Uiso   1.00
C1481  C     0.84476   0.55316   0.39455   0.00000  Uiso   1.00
C1482  C     0.67285   0.51251   0.60543   0.00000  Uiso   1.00
C1483  C     0.65509   0.98110   0.62911   0.00000  Uiso   1.00
C1484  C     0.62017   0.99026   0.65235   0.00000  Uiso   1.00
C1485  C     0.58002   0.83002   0.25000   0.00000  Uiso   1.00
C1486  C     0.60264   0.53069   0.65203   0.00000  Uiso   1.00
C1487  C     0.62018   0.56212   0.62863   0.00000  Uiso   1.00
C1488  C     0.65523   0.55315   0.60544   0.00000  Uiso   1.00
C1489  C     0.73745   0.57714   0.89457   0.00000  Uiso   1.00
C1490  C     0.76885   0.59492   0.87089   0.00000  Uiso   1.00
C1491  C     0.75967   0.62984   0.84765   0.00000  Uiso   1.00
C1492  C     0.71922   0.64734   0.84798   0.00000  Uiso   1.00
C1493  C     0.68780   0.62978   0.87138   0.00000  Uiso   1.00
C1494  C     0.69680   0.59473   0.89457   0.00000  Uiso   1.00
C1495  C     0.73753   0.92284   0.10544   0.00000  Uiso   1.00
C1496  C     0.91998   0.66998   0.75000   0.00000  Uiso   1.00
C1497  C     0.76897   0.90509   0.12910   0.00000  Uiso   1.00
C1498  C     0.75985   0.87015   0.15234   0.00000  Uiso   1.00
C1499  C     0.71943   0.85260   0.15203   0.00000  Uiso   1.00
C1500  C     0.68797   0.87013   0.12865   0.00000  Uiso   1.00
C1501  C     0.69690   0.90520   0.10546   0.00000  Uiso   1.00
C1502  C     0.92285   0.73747   0.89457   0.00000  Uiso   1.00
C1503  C     0.90509   0.76888   0.87088   0.00000  Uiso   1.00
C1504  C     0.87017   0.75972   0.84764   0.00000  Uiso   1.00
C1505  C     0.85265   0.71929   0.84797   0.00000  Uiso   1.00
C1506  C     0.87019   0.68786   0.87137   0.00000  Uiso   1.00
C1507  C     0.66998   0.91998   0.75000   0.00000  Uiso   1.00
C1508  C     0.90524   0.69683   0.89456   0.00000  Uiso   1.00
C1509  C     0.57716   0.73756   0.10544   0.00000  Uiso   1.00
C1510  C     0.59492   0.76902   0.12907   0.00000  Uiso   1.00
C1511  C     0.62987   0.75992   0.15230   0.00000  Uiso   1.00
C1512  C     0.64743   0.71950   0.15201   0.00000  Uiso   1.00
C1513  C     0.62989   0.68802   0.12867   0.00000  Uiso   1.00
C1514  C     0.59481   0.69693   0.10548   0.00000  Uiso   1.00
C1515  C     0.76254   0.92285   0.89457   0.00000  Uiso   1.00
C1516  C     0.73114   0.90509   0.87087   0.00000  Uiso   1.00
C1517  C     0.74031   0.87017   0.84764   0.00000  Uiso   1.00
C1518  C     0.83002   0.58002   0.25000   0.00000  Uiso   1.00
C1519  C     0.78075   0.85264   0.84797   0.00000  Uiso   1.00
C1520  C     0.81217   0.87018   0.87138   0.00000  Uiso   1.00
C1521  C     0.80319   0.90524   0.89457   0.00000  Uiso   1.00
C1522  C     0.76246   0.57715   0.10544   0.00000  Uiso   1.00
C1523  C     0.73102   0.59492   0.12908   0.00000  Uiso   1.00
C1524  C     0.74014   0.62986   0.15231   0.00000  Uiso   1.00
C1525  C     0.78057   0.64740   0.15202   0.00000  Uiso   1.00
C1526  C     0.81203   0.62985   0.12866   0.00000  Uiso   1.00
C1527  C     0.80310   0.59478   0.10548   0.00000  Uiso   1.00
C1528  C     0.57714   0.76255   0.89457   0.00000  Uiso   1.00
C1529  C     0.91998   0.83002   0.75000   0.00000  Uiso   1.00
C1530  C     0.59491   0.73115   0.87088   0.00000  Uiso   1.00
C1531  C     0.62983   0.74032   0.84764   0.00000  Uiso   1.00
C1532  C     0.64734   0.78076   0.84797   0.00000  Uiso   1.00
C1533  C     0.62980   0.81218   0.87138   0.00000  Uiso   1.00
C1534  C     0.59475   0.80319   0.89457   0.00000  Uiso   1.00
C1535  C     0.92284   0.76247   0.10544   0.00000  Uiso   1.00
C1536  C     0.90510   0.73103   0.12910   0.00000  Uiso   1.00
C1537  C     0.87017   0.74016   0.15235   0.00000  Uiso   1.00
C1538  C     0.85263   0.78059   0.15205   0.00000  Uiso   1.00
C1539  C     0.87016   0.81204   0.12867   0.00000  Uiso   1.00
C1540  C     0.75000   0.50000   0.64428   0.00000  Uiso   1.00
C1541  C     0.58002   0.66998   0.25000   0.00000  Uiso   1.00
C1542  C     0.90521   0.80310   0.10547   0.00000  Uiso   1.00
C1543  C     0.95511   0.61909   0.46148   0.00000  Uiso   1.00
C1544  C     0.95479   0.57361   0.44747   0.00000  Uiso   1.00
C1545  C     0.95512   0.88092   0.53852   0.00000  Uiso   1.00
C1546  C     0.95480   0.92639   0.55253   0.00000  Uiso   1.00
C1547  C     0.88092   0.95512   0.46148   0.00000  Uiso   1.00
C1548  C     0.92640   0.95481   0.44748   0.00000  Uiso   1.00
C1549  C     0.61909   0.95511   0.53852   0.00000  Uiso   1.00
C1550  C     0.57361   0.95479   0.55253   0.00000  Uiso   1.00
C1551  C     0.54489   0.88091   0.46148   0.00000  Uiso   1.00
C1552  C     0.83002   0.58002   0.75000   0.00000  Uiso   1.00
C1553  C     0.54522   0.92638   0.44746   0.00000  Uiso   1.00
C1554  C     0.54488   0.61908   0.53852   0.00000  Uiso   1.00
C1555  C     0.54520   0.57360   0.55253   0.00000  Uiso   1.00
C1556  C     0.61908   0.54489   0.46148   0.00000  Uiso   1.00
C1557  C     0.57361   0.54520   0.44747   0.00000  Uiso   1.00
C1558  C     0.88091   0.54489   0.53852   0.00000  Uiso   1.00
C1559  C     0.92639   0.54522   0.55253   0.00000  Uiso   1.00
C1560  C     0.70513   0.86909   0.96146   0.00000  Uiso   1.00
C1561  C     0.70481   0.82362   0.94745   0.00000  Uiso   1.00
C1562  C     0.70509   0.63093   0.03849   0.00000  Uiso   1.00
C1563  C     0.66998   0.91998   0.25000   0.00000  Uiso   1.00
C1564  C     0.70478   0.67640   0.05251   0.00000  Uiso   1.00
C1565  C     0.63091   0.70513   0.96147   0.00000  Uiso   1.00
C1566  C     0.67638   0.70481   0.94745   0.00000  Uiso   1.00
C1567  C     0.86908   0.70509   0.03851   0.00000  Uiso   1.00
C1568  C     0.82361   0.70477   0.05252   0.00000  Uiso   1.00
C1569  C     0.79487   0.63091   0.96148   0.00000  Uiso   1.00
C1570  C     0.79519   0.67638   0.94746   0.00000  Uiso   1.00
C1571  C     0.79492   0.86908   0.03851   0.00000  Uiso   1.00
C1572  C     0.79524   0.82361   0.05252   0.00000  Uiso   1.00
C1573  C     0.86908   0.79487   0.96148   0.00000  Uiso   1.00
C1574  C     0.58002   0.66998   0.75000   0.00000  Uiso   1.00
C1575  C     0.82361   0.79519   0.94747   0.00000  Uiso   1.00
C1576  C     0.63093   0.79493   0.03848   0.00000  Uiso   1.00
C1577  C     0.67640   0.79525   0.05248   0.00000  Uiso   1.00
C1578  C     0.91998   0.83002   0.25000   0.00000  Uiso   1.00
C1579  C     0.63834   0.88834   0.25000   0.00000  Uiso   1.00
C1580  C     0.86166   0.61166   0.75000   0.00000  Uiso   1.00
C1581  C     0.61166   0.63834   0.25000   0.00000  Uiso   1.00
C1582  C     0.88834   0.86166   0.75000   0.00000  Uiso   1.00
C1583  C     0.86166   0.61166   0.25000   0.00000  Uiso   1.00
C1584  C     0.50000   0.75000   0.35572   0.00000  Uiso   1.00
C1585  C     0.63834   0.88834   0.75000   0.00000  Uiso   1.00
C1586  C     0.88834   0.86166   0.25000   0.00000  Uiso   1.00
C1587  C     0.61166   0.63834   0.75000   0.00000  Uiso   1.00
C1588  C     0.63834   0.61166   0.75000   0.00000  Uiso   1.00
C1589  C     0.86166   0.88834   0.25000   0.00000  Uiso   1.00
C1590  C     0.61166   0.86166   0.75000   0.00000  Uiso   1.00
C1591  C     0.88834   0.63834   0.25000   0.00000  Uiso   1.00
C1592  C     0.86166   0.88834   0.75000   0.00000  Uiso   1.00
C1593  C     0.63834   0.61166   0.25000   0.00000  Uiso   1.00
C1594  C     0.88834   0.63834   0.75000   0.00000  Uiso   1.00
C1595  C     0.50000   0.75000   0.64428   0.00000  Uiso   1.00
C1596  C     0.61166   0.86166   0.25000   0.00000  Uiso   1.00
C1597  C     0.99631   0.78847   0.41776   0.00000  Uiso   1.00
C1598  C     0.99631   0.71153   0.58224   0.00000  Uiso   1.00
C1599  C     0.71153   0.99631   0.41776   0.00000  Uiso   1.00
C1600  C     0.78847   0.99631   0.58224   0.00000  Uiso   1.00
C1601  C     0.50369   0.71153   0.41776   0.00000  Uiso   1.00
C1602  C     0.50369   0.78847   0.58224   0.00000  Uiso   1.00
C1603  C     0.78847   0.50369   0.41776   0.00000  Uiso   1.00
C1604  C     0.71153   0.50369   0.58224   0.00000  Uiso   1.00
C1605  C     0.74630   0.53847   0.91776   0.00000  Uiso   1.00
C1606  C     0.50000   0.75000   0.85572   0.00000  Uiso   1.00
C1607  C     0.74633   0.96152   0.08224   0.00000  Uiso   1.00
C1608  C     0.96152   0.74630   0.91776   0.00000  Uiso   1.00
C1609  C     0.53848   0.74634   0.08224   0.00000  Uiso   1.00
C1610  C     0.75370   0.96153   0.91776   0.00000  Uiso   1.00
C1611  C     0.75366   0.53847   0.08224   0.00000  Uiso   1.00
C1612  C     0.53847   0.75370   0.91776   0.00000  Uiso   1.00
C1613  C     0.96152   0.75367   0.08224   0.00000  Uiso   1.00
C1614  C     0.50000   0.75000   0.39796   0.00000  Uiso   1.00
C1615  C     0.50000   0.75000   0.60204   0.00000  Uiso   1.00
C1616  C     0.75000   0.50000   0.39796   0.00000  Uiso   1.00
C1617  C     0.50000   0.75000   0.14428   0.00000  Uiso   1.00
C1618  C     0.75000   0.50000   0.60204   0.00000  Uiso   1.00
C1619  C     0.75000   0.50000   0.89796   0.00000  Uiso   1.00
C1620  C     0.75000   0.50000   0.10204   0.00000  Uiso   1.00
C1621  C     0.50000   0.75000   0.89796   0.00000  Uiso   1.00
C1622  C     0.50000   0.75000   0.10204   0.00000  Uiso   1.00
C1623  C     0.50089   0.71101   0.45877   0.00000  Uiso   1.00
C1624  C     0.50089   0.78899   0.54123   0.00000  Uiso   1.00
C1625  C     0.78899   0.50089   0.45877   0.00000  Uiso   1.00
C1626  C     0.71101   0.50089   0.54123   0.00000  Uiso   1.00
C1627  C     0.99911   0.78899   0.45877   0.00000  Uiso   1.00
C1628  C     0.75000   0.50000   0.85572   0.00000  Uiso   1.00
C1629  C     0.99911   0.71101   0.54123   0.00000  Uiso   1.00
C1630  C     0.71101   0.99911   0.45877   0.00000  Uiso   1.00
C1631  C     0.78899   0.99911   0.54123   0.00000  Uiso   1.00
C1632  C     0.75090   0.96101   0.95877   0.00000  Uiso   1.00
C1633  C     0.75087   0.53899   0.04123   0.00000  Uiso   1.00
C1634  C     0.53899   0.75090   0.95877   0.00000  Uiso   1.00
C1635  C     0.96101   0.75088   0.04123   0.00000  Uiso   1.00
C1636  C     0.74910   0.53899   0.95877   0.00000  Uiso   1.00
C1637  C     0.74912   0.96100   0.04123   0.00000  Uiso   1.00
C1638  C     0.96101   0.74910   0.95877   0.00000  Uiso   1.00
C1639  C     0.75000   0.50000   0.14428   0.00000  Uiso   1.00
C1640  C     0.53899   0.74913   0.04123   0.00000  Uiso   1.00
C1641  C     0.50000   0.75000   0.47937   0.00000  Uiso   1.00
C1642  C     0.50000   0.75000   0.52063   0.00000  Uiso   1.00
C1643  C     0.75000   0.50000   0.47937   0.00000  Uiso   1.00
C1644  C     0.75000   0.50000   0.52063   0.00000  Uiso   1.00
C1645  C     0.75000   0.50000   0.97937   0.00000  Uiso   1.00
C1646  C     0.75000   0.50000   0.02063   0.00000  Uiso   1.00
C1647  C     0.50000   0.75000   0.97937   0.00000  Uiso   1.00
C1648  C     0.50000   0.75000   0.02063   0.00000  Uiso   1.00
C1649  C     0.99886   0.67269   0.47976   0.00000  Uiso   1.00
C1650  C     0.66998   0.58002   0.25000   0.00000  Uiso   1.00
C1651  C     0.99886   0.82731   0.52024   0.00000  Uiso   1.00
C1652  C     0.82731   0.99886   0.47976   0.00000  Uiso   1.00
C1653  C     0.67269   0.99886   0.52024   0.00000  Uiso   1.00
C1654  C     0.50114   0.82731   0.47976   0.00000  Uiso   1.00
C1655  C     0.50114   0.67269   0.52024   0.00000  Uiso   1.00
C1656  C     0.67269   0.50114   0.47976   0.00000  Uiso   1.00
C1657  C     0.82731   0.50114   0.52024   0.00000  Uiso   1.00
C1658  C     0.74888   0.92269   0.97976   0.00000  Uiso   1.00
C1659  C     0.74883   0.57731   0.02024   0.00000  Uiso   1.00
C1660  C     0.57730   0.74888   0.97976   0.00000  Uiso   1.00
H1661  H     0.55033   0.83154   0.37034   0.00000  Uiso   1.00
H1662  H     0.92219   0.66877   0.58764   0.00000  Uiso   1.00
H1663  H     0.57159   0.96787   0.58232   0.00000  Uiso   1.00
H1664  H     0.56486   0.86161   0.44177   0.00000  Uiso   1.00
H1665  H     0.55899   0.88027   0.49104   0.00000  Uiso   1.00
H1666  H     0.52586   0.94626   0.46710   0.00000  Uiso   1.00
H1667  H     0.57798   0.93859   0.44728   0.00000  Uiso   1.00
H1668  H     0.53213   0.92840   0.41768   0.00000  Uiso   1.00
H1669  H     0.56485   0.63837   0.55823   0.00000  Uiso   1.00
H1670  H     0.55898   0.61973   0.50895   0.00000  Uiso   1.00
H1671  H     0.52584   0.55374   0.53288   0.00000  Uiso   1.00
H1672  H     0.57796   0.56139   0.55271   0.00000  Uiso   1.00
H1673  H     0.66844   0.55033   0.37036   0.00000  Uiso   1.00
H1674  H     0.53211   0.57158   0.58231   0.00000  Uiso   1.00
H1675  H     0.63838   0.56485   0.44177   0.00000  Uiso   1.00
H1676  H     0.61973   0.55898   0.49105   0.00000  Uiso   1.00
H1677  H     0.55374   0.52585   0.46711   0.00000  Uiso   1.00
H1678  H     0.56140   0.57796   0.44728   0.00000  Uiso   1.00
H1679  H     0.57159   0.53212   0.41768   0.00000  Uiso   1.00
H1680  H     0.86161   0.56486   0.55824   0.00000  Uiso   1.00
H1681  H     0.88026   0.55899   0.50896   0.00000  Uiso   1.00
H1682  H     0.94626   0.52586   0.53289   0.00000  Uiso   1.00
H1683  H     0.93859   0.57797   0.55272   0.00000  Uiso   1.00
H1684  H     0.60676   0.53398   0.32933   0.00000  Uiso   1.00
H1685  H     0.92841   0.53213   0.58232   0.00000  Uiso   1.00
H1686  H     0.68517   0.88839   0.94174   0.00000  Uiso   1.00
H1687  H     0.69102   0.86975   0.99102   0.00000  Uiso   1.00
H1688  H     0.72415   0.80375   0.96710   0.00000  Uiso   1.00
H1689  H     0.67205   0.81142   0.94725   0.00000  Uiso   1.00
H1690  H     0.71790   0.82160   0.91767   0.00000  Uiso   1.00
H1691  H     0.68511   0.61164   0.05820   0.00000  Uiso   1.00
H1692  H     0.69101   0.63028   0.00893   0.00000  Uiso   1.00
H1693  H     0.72415   0.69627   0.03287   0.00000  Uiso   1.00
H1694  H     0.67203   0.68862   0.05268   0.00000  Uiso   1.00
H1695  H     0.57557   0.96233   0.32998   0.00000  Uiso   1.00
H1696  H     0.71785   0.67842   0.08230   0.00000  Uiso   1.00
H1697  H     0.61160   0.68517   0.94176   0.00000  Uiso   1.00
H1698  H     0.63026   0.69103   0.99103   0.00000  Uiso   1.00
H1699  H     0.69625   0.72414   0.96710   0.00000  Uiso   1.00
H1700  H     0.68857   0.67205   0.94725   0.00000  Uiso   1.00
H1701  H     0.67840   0.71791   0.91767   0.00000  Uiso   1.00
H1702  H     0.88838   0.68511   0.05822   0.00000  Uiso   1.00
H1703  H     0.86973   0.69100   0.00894   0.00000  Uiso   1.00
H1704  H     0.80374   0.72412   0.03288   0.00000  Uiso   1.00
H1705  H     0.81140   0.67201   0.05271   0.00000  Uiso   1.00
H1706  H     0.60666   0.90653   0.37149   0.00000  Uiso   1.00
H1707  H     0.82158   0.71785   0.08230   0.00000  Uiso   1.00
H1708  H     0.81484   0.61161   0.94176   0.00000  Uiso   1.00
H1709  H     0.80897   0.63026   0.99104   0.00000  Uiso   1.00
H1710  H     0.77583   0.69625   0.96709   0.00000  Uiso   1.00
H1711  H     0.82795   0.68860   0.94729   0.00000  Uiso   1.00
H1712  H     0.78212   0.67840   0.91767   0.00000  Uiso   1.00
H1713  H     0.81489   0.88838   0.05822   0.00000  Uiso   1.00
H1714  H     0.80900   0.86973   0.00894   0.00000  Uiso   1.00
H1715  H     0.77589   0.80374   0.03288   0.00000  Uiso   1.00
H1716  H     0.82800   0.81140   0.05271   0.00000  Uiso   1.00
H1717  H     0.66878   0.92219   0.41236   0.00000  Uiso   1.00
H1718  H     0.78215   0.82159   0.08230   0.00000  Uiso   1.00
H1719  H     0.88838   0.81484   0.94176   0.00000  Uiso   1.00
H1720  H     0.86973   0.80897   0.99104   0.00000  Uiso   1.00
H1721  H     0.80374   0.77583   0.96711   0.00000  Uiso   1.00
H1722  H     0.81140   0.82794   0.94728   0.00000  Uiso   1.00
H1723  H     0.82158   0.78210   0.91768   0.00000  Uiso   1.00
H1724  H     0.61164   0.81492   0.05819   0.00000  Uiso   1.00
H1725  H     0.63027   0.80901   0.00891   0.00000  Uiso   1.00
H1726  H     0.67843   0.78219   0.08228   0.00000  Uiso   1.00
H1727  H     0.69626   0.77587   0.03285   0.00000  Uiso   1.00
H1728  H     0.83156   0.55032   0.62965   0.00000  Uiso   1.00
H1729  H     0.68861   0.82800   0.05265   0.00000  Uiso   1.00
H1730  H     0.89324   0.53397   0.67067   0.00000  Uiso   1.00
H1731  H     0.92444   0.96232   0.67000   0.00000  Uiso   1.00
H1732  H     0.89335   0.90653   0.62849   0.00000  Uiso   1.00
H1733  H     0.53398   0.89323   0.32932   0.00000  Uiso   1.00
H1734  H     0.83122   0.92219   0.58763   0.00000  Uiso   1.00
H1735  H     0.94967   0.66844   0.37035   0.00000  Uiso   1.00
H1736  H     0.96603   0.60676   0.32933   0.00000  Uiso   1.00
H1737  H     0.53768   0.57557   0.32999   0.00000  Uiso   1.00
H1738  H     0.59347   0.60665   0.37150   0.00000  Uiso   1.00
H1739  H     0.57781   0.66878   0.41237   0.00000  Uiso   1.00
H1740  H     0.94967   0.83156   0.62964   0.00000  Uiso   1.00
H1741  H     0.96603   0.89324   0.67067   0.00000  Uiso   1.00
H1742  H     0.53768   0.92443   0.67001   0.00000  Uiso   1.00
H1743  H     0.59347   0.89334   0.62851   0.00000  Uiso   1.00
H1744  H     0.96234   0.92445   0.33000   0.00000  Uiso   1.00
H1745  H     0.57781   0.83122   0.58764   0.00000  Uiso   1.00
H1746  H     0.83156   0.94967   0.37036   0.00000  Uiso   1.00
H1747  H     0.89325   0.96603   0.32933   0.00000  Uiso   1.00
H1748  H     0.92443   0.53768   0.32999   0.00000  Uiso   1.00
H1749  H     0.89334   0.59347   0.37149   0.00000  Uiso   1.00
H1750  H     0.83122   0.57781   0.41236   0.00000  Uiso   1.00
H1751  H     0.66845   0.94967   0.62966   0.00000  Uiso   1.00
H1752  H     0.60676   0.96603   0.67068   0.00000  Uiso   1.00
H1753  H     0.57556   0.53767   0.67000   0.00000  Uiso   1.00
H1754  H     0.60664   0.59346   0.62849   0.00000  Uiso   1.00
H1755  H     0.90656   0.89338   0.37153   0.00000  Uiso   1.00
H1756  H     0.66877   0.57781   0.58762   0.00000  Uiso   1.00
H1757  H     0.80028   0.58158   0.87034   0.00000  Uiso   1.00
H1758  H     0.78389   0.64326   0.82932   0.00000  Uiso   1.00
H1759  H     0.71222   0.67441   0.83000   0.00000  Uiso   1.00
H1760  H     0.65646   0.64330   0.87153   0.00000  Uiso   1.00
H1761  H     0.67216   0.58118   0.91239   0.00000  Uiso   1.00
H1762  H     0.80039   0.91847   0.12963   0.00000  Uiso   1.00
H1763  H     0.78410   0.85675   0.17064   0.00000  Uiso   1.00
H1764  H     0.71247   0.82551   0.16999   0.00000  Uiso   1.00
H1765  H     0.65664   0.85656   0.12852   0.00000  Uiso   1.00
H1766  H     0.92220   0.83125   0.41238   0.00000  Uiso   1.00
H1767  H     0.67223   0.91872   0.08766   0.00000  Uiso   1.00
H1768  H     0.91844   0.80031   0.87034   0.00000  Uiso   1.00
H1769  H     0.85676   0.78395   0.82932   0.00000  Uiso   1.00
H1770  H     0.82557   0.71231   0.82999   0.00000  Uiso   1.00
H1771  H     0.85665   0.65652   0.87151   0.00000  Uiso   1.00
H1772  H     0.91877   0.67218   0.91238   0.00000  Uiso   1.00
H1773  H     0.58154   0.80044   0.12958   0.00000  Uiso   1.00
H1774  H     0.64328   0.78419   0.17058   0.00000  Uiso   1.00
H1775  H     0.67453   0.71256   0.16997   0.00000  Uiso   1.00
H1776  H     0.64345   0.65669   0.12855   0.00000  Uiso   1.00
H1777  H     0.55034   0.66844   0.62964   0.00000  Uiso   1.00
H1778  H     0.58127   0.67225   0.08770   0.00000  Uiso   1.00
H1779  H     0.69971   0.91844   0.87032   0.00000  Uiso   1.00
H1780  H     0.71608   0.85676   0.82930   0.00000  Uiso   1.00
H1781  H     0.78774   0.82556   0.83000   0.00000  Uiso   1.00
H1782  H     0.84351   0.85664   0.87154   0.00000  Uiso   1.00
H1783  H     0.82783   0.91878   0.91240   0.00000  Uiso   1.00
H1784  H     0.69960   0.58156   0.12959   0.00000  Uiso   1.00
H1785  H     0.71589   0.64328   0.17059   0.00000  Uiso   1.00
H1786  H     0.78753   0.67449   0.16998   0.00000  Uiso   1.00
H1787  H     0.84337   0.64339   0.12854   0.00000  Uiso   1.00
H1788  H     0.53399   0.60676   0.67067   0.00000  Uiso   1.00
H1789  H     0.82777   0.58124   0.08770   0.00000  Uiso   1.00
H1790  H     0.58156   0.69972   0.87033   0.00000  Uiso   1.00
H1791  H     0.64324   0.71610   0.82931   0.00000  Uiso   1.00
H1792  H     0.67441   0.78776   0.83000   0.00000  Uiso   1.00
H1793  H     0.64333   0.84352   0.87153   0.00000  Uiso   1.00
H1794  H     0.58120   0.82783   0.91239   0.00000  Uiso   1.00
H1795  H     0.91846   0.69961   0.12963   0.00000  Uiso   1.00
H1796  H     0.85677   0.71591   0.17066   0.00000  Uiso   1.00
H1797  H     0.82555   0.78755   0.17002   0.00000  Uiso   1.00
H1798  H     0.85661   0.84337   0.12854   0.00000  Uiso   1.00
H1799  H     0.96234   0.57557   0.67002   0.00000  Uiso   1.00
H1800  H     0.91874   0.82777   0.08767   0.00000  Uiso   1.00
H1801  H     0.93514   0.63838   0.44176   0.00000  Uiso   1.00
H1802  H     0.94101   0.61974   0.49104   0.00000  Uiso   1.00
H1803  H     0.97414   0.55374   0.46711   0.00000  Uiso   1.00
H1804  H     0.92203   0.56141   0.44728   0.00000  Uiso   1.00
H1805  H     0.96787   0.57159   0.41768   0.00000  Uiso   1.00
H1806  H     0.93515   0.86163   0.55823   0.00000  Uiso   1.00
H1807  H     0.94102   0.88027   0.50895   0.00000  Uiso   1.00
H1808  H     0.97416   0.94626   0.53289   0.00000  Uiso   1.00
H1809  H     0.92204   0.93861   0.55271   0.00000  Uiso   1.00
H1810  H     0.90655   0.60665   0.62851   0.00000  Uiso   1.00
H1811  H     0.96789   0.92842   0.58231   0.00000  Uiso   1.00
H1812  H     0.86163   0.93515   0.44177   0.00000  Uiso   1.00
H1813  H     0.88027   0.94102   0.49105   0.00000  Uiso   1.00
H1814  H     0.94626   0.97416   0.46712   0.00000  Uiso   1.00
H1815  H     0.93861   0.92205   0.44729   0.00000  Uiso   1.00
H1816  H     0.92842   0.96789   0.41769   0.00000  Uiso   1.00
H1817  H     0.63839   0.93514   0.55823   0.00000  Uiso   1.00
H1818  H     0.61973   0.94101   0.50896   0.00000  Uiso   1.00
H1819  H     0.55374   0.97414   0.53290   0.00000  Uiso   1.00
H1820  H     0.56141   0.92203   0.55272   0.00000  Uiso   1.00
O1821  O     0.75000   0.50000   0.25000   0.00000  Uiso   1.00
O1822  O     0.75000   0.96538   0.66251   0.00000  Uiso   1.00
O1823  O     0.96538   0.75000   0.33749   0.00000  Uiso   1.00
O1824  O     0.53461   0.75000   0.66251   0.00000  Uiso   1.00
O1825  O     0.50000   0.71538   0.83749   0.00000  Uiso   1.00
O1826  O     0.50000   0.78461   0.16251   0.00000  Uiso   1.00
O1827  O     0.78461   0.50000   0.83749   0.00000  Uiso   1.00
O1828  O     0.71538   0.50000   0.16251   0.00000  Uiso   1.00
O1829  O     0.50000   0.78461   0.83749   0.00000  Uiso   1.00
O1830  O     0.50000   0.71538   0.16251   0.00000  Uiso   1.00
O1831  O     0.71538   0.50000   0.83749   0.00000  Uiso   1.00
O1832  O     0.75000   0.50000   0.75000   0.00000  Uiso   1.00
O1833  O     0.78461   0.50000   0.16251   0.00000  Uiso   1.00
O1834  O     0.70126   0.58332   0.27298   0.00000  Uiso   1.00
O1835  O     0.79873   0.91668   0.72702   0.00000  Uiso   1.00
O1836  O     0.91668   0.70126   0.27298   0.00000  Uiso   1.00
O1837  O     0.58332   0.79873   0.72702   0.00000  Uiso   1.00
O1838  O     0.79873   0.91668   0.27298   0.00000  Uiso   1.00
O1839  O     0.70126   0.58332   0.72702   0.00000  Uiso   1.00
O1840  O     0.58332   0.79873   0.27298   0.00000  Uiso   1.00
O1841  O     0.91668   0.70126   0.72702   0.00000  Uiso   1.00
O1842  O     0.70126   0.91668   0.72702   0.00000  Uiso   1.00
O1843  O     0.50000   0.75000   0.25000   0.00000  Uiso   1.00
O1844  O     0.79873   0.58332   0.27298   0.00000  Uiso   1.00
O1845  O     0.91668   0.79873   0.72702   0.00000  Uiso   1.00
O1846  O     0.58332   0.70126   0.27298   0.00000  Uiso   1.00
O1847  O     0.79873   0.58332   0.72702   0.00000  Uiso   1.00
O1848  O     0.70126   0.91668   0.27298   0.00000  Uiso   1.00
O1849  O     0.58332   0.70126   0.72702   0.00000  Uiso   1.00
O1850  O     0.91668   0.79873   0.27298   0.00000  Uiso   1.00
O1851  O     0.95126   0.83332   0.77298   0.00000  Uiso   1.00
O1852  O     0.54873   0.66668   0.22702   0.00000  Uiso   1.00
O1853  O     0.66668   0.95126   0.77298   0.00000  Uiso   1.00
O1854  O     0.50000   0.75000   0.75000   0.00000  Uiso   1.00
O1855  O     0.83332   0.54873   0.22702   0.00000  Uiso   1.00
O1856  O     0.54873   0.66668   0.77298   0.00000  Uiso   1.00
O1857  O     0.95126   0.83332   0.22702   0.00000  Uiso   1.00
O1858  O     0.83332   0.54873   0.77298   0.00000  Uiso   1.00
O1859  O     0.66668   0.95126   0.22702   0.00000  Uiso   1.00
O1860  O     0.95126   0.66668   0.22702   0.00000  Uiso   1.00
O1861  O     0.54873   0.83332   0.77298   0.00000  Uiso   1.00
O1862  O     0.66668   0.54873   0.22702   0.00000  Uiso   1.00
O1863  O     0.83332   0.95126   0.77298   0.00000  Uiso   1.00
O1864  O     0.54873   0.83332   0.22702   0.00000  Uiso   1.00
O1865  O     0.75000   0.96538   0.33749   0.00000  Uiso   1.00
O1866  O     0.95126   0.66668   0.77298   0.00000  Uiso   1.00
O1867  O     0.83332   0.95126   0.22702   0.00000  Uiso   1.00
O1868  O     0.66668   0.54873   0.77298   0.00000  Uiso   1.00
O1869  O     0.99707   0.63406   0.46114   0.00000  Uiso   1.00
O1870  O     0.99707   0.86594   0.53886   0.00000  Uiso   1.00
O1871  O     0.86594   0.99708   0.46114   0.00000  Uiso   1.00
O1872  O     0.63406   0.99707   0.53885   0.00000  Uiso   1.00
O1873  O     0.50293   0.86594   0.46115   0.00000  Uiso   1.00
O1874  O     0.50293   0.63406   0.53885   0.00000  Uiso   1.00
O1875  O     0.63406   0.50293   0.46114   0.00000  Uiso   1.00
O1876  O     0.75000   0.53461   0.66251   0.00000  Uiso   1.00
O1877  O     0.86594   0.50293   0.53885   0.00000  Uiso   1.00
O1878  O     0.74709   0.88406   0.96114   0.00000  Uiso   1.00
O1879  O     0.74705   0.61594   0.03885   0.00000  Uiso   1.00
O1880  O     0.61594   0.74709   0.96114   0.00000  Uiso   1.00
O1881  O     0.88406   0.74705   0.03885   0.00000  Uiso   1.00
O1882  O     0.75291   0.61594   0.96114   0.00000  Uiso   1.00
O1883  O     0.75296   0.88406   0.03885   0.00000  Uiso   1.00
O1884  O     0.88406   0.75291   0.96115   0.00000  Uiso   1.00
O1885  O     0.61594   0.75297   0.03885   0.00000  Uiso   1.00
O1886  O     0.53461   0.75000   0.33749   0.00000  Uiso   1.00
O1887  O     0.96538   0.75000   0.66251   0.00000  Uiso   1.00
O1888  O     0.75000   0.53461   0.33749   0.00000  Uiso   1.00
Zn1889 Zn    0.70052   0.50000   0.21730   0.00000  Uiso   1.00
Zn1890 Zn    0.54947   0.75000   0.28270   0.00000  Uiso   1.00
Zn1891 Zn    0.75000   0.95052   0.71730   0.00000  Uiso   1.00
Zn1892 Zn    0.75000   0.54947   0.28270   0.00000  Uiso   1.00
Zn1893 Zn    0.54947   0.75000   0.71730   0.00000  Uiso   1.00
Zn1894 Zn    0.95052   0.75000   0.28270   0.00000  Uiso   1.00
Zn1895 Zn    0.75000   0.54947   0.71730   0.00000  Uiso   1.00
Zn1896 Zn    0.75000   0.95052   0.28270   0.00000  Uiso   1.00
Zn1897 Zn    0.79947   0.50000   0.78270   0.00000  Uiso   1.00
Zn1898 Zn    0.50000   0.70052   0.21730   0.00000  Uiso   1.00
Zn1899 Zn    0.50000   0.79947   0.78270   0.00000  Uiso   1.00
Zn1900 Zn    0.79947   0.50000   0.21730   0.00000  Uiso   1.00
Zn1901 Zn    0.70052   0.50000   0.78270   0.00000  Uiso   1.00
Zn1902 Zn    0.50000   0.79947   0.21730   0.00000  Uiso   1.00
Zn1903 Zn    0.50000   0.70052   0.78270   0.00000  Uiso   1.00
Zn1904 Zn    0.95052   0.75000   0.71730   0.00000  Uiso   1.00
loop_
_geom_bond_atom_site_label_1
_geom_bond_atom_site_label_2
_geom_bond_distance
_geom_bond_site_symmetry_2
_ccdc_geom_bond_type
C1     O460    1.265   .     A
C1     C188    1.457   .     S
C1     O1389   1.265   1_545 S
C2     O407    1.274   .     A
C2     C164    1.419   .     S
C2     O435    1.274   .     A
C3     C207    1.416   .     A
C3     O453    1.384   .     S
C3     C6      1.398   1_554 S
C4     C208    1.416   .     A
C4     O454    1.384   .     S
C4     C231    1.398   1_556 S
C5     O455    1.384   .     S
C5     C209    1.416   .     A
C5     C230    1.398   1_554 S
C6     O456    1.384   .     S
C6     C210    1.416   .     A
C6     C3      1.398   1_556 S
C7     C212    1.416   .     A
C7     O457    1.384   .     S
C7     C232    1.398   1_554 S
C8     C169    1.491   .     S
C8     C14     1.405   .     A
C8     C485    1.406   .     S
C9     H233    1.083   .     S
C9     C10     1.398   .     A
C9     C484    1.406   1_455 S
C10    H305    1.082   .     S
C10    C487    1.397   1_455 S
C11    H316    1.082   .     S
C11    C12     1.398   .     A
C11    C486    1.397   .     S
C12    H327    1.082   .     S
C12    C14     1.399   .     A
C13    C163    1.419   .     S
C13    O408    1.274   .     A
C13    O432    1.274   .     A
C14    H338    1.083   .     S
C15    C20     1.405   .     A
C15    C170    1.491   .     S
C15    C492    1.406   .     S
C16    H349    1.083   .     S
C16    C17     1.398   .     A
C16    C491    1.406   1_455 S
C17    H360    1.082   .     S
C17    C494    1.397   1_455 S
C18    C19     1.398   .     A
C18    H371    1.082   .     S
C18    C493    1.397   .     S
C19    C20     1.399   .     A
C19    H382    1.082   .     S
C20    H234    1.083   .     S
C21    C171    1.491   .     S
C21    C27     1.405   .     A
C21    C974    1.406   .     S
C22    C23     1.398   .     A
C22    H245    1.083   .     S
C22    C973    1.406   1_545 S
C23    H256    1.082   .     S
C23    C977    1.397   1_545 S
C24    O433    1.274   .     A
C24    O409    1.274   .     A
C24    C162    1.419   .     S
C25    H267    1.082   .     S
C25    C26     1.398   .     A
C25    C975    1.397   .     S
C26    H278    1.082   .     S
C26    C27     1.399   .     A
C27    H289    1.083   .     S
C28    C33     1.405   .     A
C28    C172    1.491   .     S
C28    C981    1.406   .     S
C29    C30     1.398   .     A
C29    H300    1.083   .     S
C29    C980    1.406   1_545 S
C30    H302    1.082   .     S
C30    C983    1.397   1_545 S
C31    H303    1.082   .     S
C31    C32     1.398   .     A
C31    C982    1.397   .     S
C32    H304    1.082   .     S
C32    C33     1.399   .     A
C33    H306    1.083   .     S
C34    C173    1.491   .     S
C34    C40     1.405   .     A
C34    C512    1.406   1_455 S
C35    C161    1.419   .     S
C35    O410    1.274   .     A
C35    O439    1.274   .     A
C36    H307    1.083   .     S
C36    C37     1.398   .     A
C36    C510    1.406   .     S
C37    H308    1.082   .     S
C37    C514    1.397   .     S
C38    C39     1.398   .     A
C38    H309    1.082   .     S
C38    C513    1.397   1_455 S
C39    C40     1.399   .     A
C39    H310    1.082   .     S
C40    H311    1.083   .     S
C41    C174    1.491   .     S
C41    C47     1.405   .     A
C41    C518    1.406   1_455 S
C42    H312    1.083   .     S
C42    C43     1.398   .     A
C42    C517    1.406   .     S
C43    H313    1.082   .     S
C43    C520    1.397   .     S
C44    C45     1.398   .     A
C44    H314    1.082   .     S
C44    C519    1.397   1_455 S
C45    C47     1.399   .     A
C45    H315    1.082   .     S
C46    O411    1.274   .     A
C46    C160    1.419   .     S
C46    O440    1.274   .     A
C47    H317    1.083   .     S
C48    C175    1.491   .     S
C48    C53     1.405   .     A
C48    C1001   1.406   1_545 S
C49    C50     1.398   .     A
C49    H318    1.083   .     S
C49    C1000   1.406   .     S
C50    H319    1.082   .     S
C50    C1003   1.397   .     S
C51    C52     1.398   .     A
C51    H320    1.082   .     S
C51    C1002   1.397   1_545 S
C52    C53     1.399   .     A
C52    H321    1.082   .     S
C53    H322    1.083   .     S
C54    C176    1.491   .     S
C54    C60     1.405   .     A
C54    C1007   1.406   1_545 S
C55    C56     1.398   .     A
C55    H323    1.083   .     S
C55    C1006   1.406   .     S
C56    H324    1.082   .     S
C56    C1010   1.397   .     S
C57    C168    1.419   .     S
C57    O436    1.274   .     A
C57    O412    1.274   .     A
C58    H325    1.082   .     S
C58    C59     1.398   .     A
C58    C1008   1.397   1_545 S
C59    C60     1.399   .     A
C59    H326    1.082   .     S
C60    H328    1.083   .     S
C61    C177    1.491   .     S
C61    C66     1.405   .     A
C61    C62     1.406   .     A
C62    C63     1.398   .     A
C62    H329    1.083   .     S
C63    C64     1.397   .     A
C63    H330    1.082   .     S
C64    H331    1.082   .     S
C64    C65     1.398   .     A
C65    H332    1.082   .     S
C65    C66     1.399   .     A
C66    H333    1.083   .     S
C67    C73     1.405   .     A
C67    C179    1.491   .     S
C67    C69     1.406   .     A
C68    C166    1.419   .     S
C68    O438    1.274   .     A
C68    O413    1.274   .     A
C69    H334    1.083   .     S
C69    C70     1.398   .     A
C70    H335    1.082   .     S
C70    C71     1.398   .     A
C71    C72     1.398   .     A
C71    H336    1.082   .     S
C72    C73     1.399   .     A
C72    H337    1.082   .     S
C73    H339    1.083   .     S
C74    C80     1.405   .     A
C74    C75     1.406   .     A
C74    C180    1.491   .     S
C75    C76     1.398   .     A
C75    H340    1.083   .     S
C76    C77     1.397   .     A
C76    H341    1.082   .     S
C77    H342    1.082   .     S
C77    C78     1.398   .     A
C78    C80     1.399   .     A
C78    H343    1.082   .     S
C79    O425    1.274   .     A
C79    C157    1.419   .     S
C79    O414    1.274   .     A
C80    H344    1.083   .     S
C81    C86     1.405   .     A
C81    C181    1.491   .     S
C81    C82     1.406   .     A
C82    C83     1.398   .     A
C82    H345    1.083   .     S
C83    C84     1.398   .     A
C83    H346    1.082   .     S
C84    C85     1.398   .     A
C84    H347    1.082   .     S
C85    C86     1.399   .     A
C85    H348    1.083   .     S
C86    H350    1.083   .     S
C87    C88     1.406   .     A
C87    C182    1.491   .     S
C87    C93     1.405   .     A
C88    C89     1.398   .     A
C88    H351    1.083   .     S
C89    C91     1.398   .     A
C89    H352    1.082   .     S
C90    O416    1.274   .     A
C90    O427    1.274   .     A
C90    C155    1.419   .     S
C91    C92     1.398   .     A
C91    H353    1.082   .     S
C92    H354    1.082   .     S
C92    C93     1.399   .     A
C93    H355    1.083   .     S
C94    C183    1.491   .     S
C94    C95     1.406   .     A
C94    C99     1.405   .     A
C95    C96     1.398   .     A
C95    H356    1.083   .     S
C96    H357    1.082   .     S
C96    C97     1.397   .     A
C97    H358    1.082   .     S
C97    C98     1.398   .     A
C98    H359    1.082   .     S
C98    C99     1.399   .     A
C99    H361    1.083   .     S
C100   C106    1.405   .     A
C100   C184    1.491   .     S
C100   C102    1.406   .     A
C101   O423    1.274   .     A
C101   O417    1.274   .     A
C101   C154    1.419   .     S
C102   H362    1.083   .     S
C102   C103    1.398   .     A
C103   H363    1.082   .     S
C103   C104    1.397   .     A
C104   C105    1.398   .     A
C104   H364    1.082   .     S
C105   H365    1.082   .     S
C105   C106    1.399   .     A
C106   H366    1.083   .     S
C107   C108    1.406   .     A
C107   C114    1.405   .     A
C107   C185    1.491   .     S
C108   C109    1.398   .     A
C108   H367    1.083   .     S
C109   H368    1.082   .     S
C109   C110    1.397   .     A
C110   C111    1.398   .     A
C110   H369    1.082   .     S
C111   H370    1.082   .     S
C111   C114    1.399   .     A
C112   C190    1.457   .     S
C112   O1346   1.265   1_545 A
C112   O448    1.265   .     S
C113   O424    1.274   .     A
C113   O418    1.274   .     A
C113   C153    1.419   .     S
C114   H372    1.083   .     S
C115   H373    1.113   .     S
C115   C116    1.521   .     S
C115   H374    1.114   .     S
C115   O441    1.413   .     S
C116   H375    1.110   .     S
C116   H377    1.110   .     S
C116   H376    1.109   .     S
C117   H379    1.114   .     S
C117   C118    1.521   .     S
C117   O442    1.413   .     S
C117   H378    1.113   .     S
C118   H380    1.110   .     S
C118   H383    1.110   .     S
C118   H381    1.109   .     S
C119   C120    1.521   .     S
C119   H384    1.113   .     S
C119   H385    1.114   .     S
C119   O443    1.413   .     S
C120   H386    1.110   .     S
C120   H388    1.110   .     S
C120   H387    1.109   .     S
C121   H390    1.114   .     S
C121   O444    1.413   .     S
C121   H389    1.113   .     S
C121   C122    1.521   .     S
C122   H391    1.110   .     S
C122   H235    1.110   .     S
C122   H392    1.109   .     S
C123   H236    1.113   .     S
C123   O445    1.413   .     S
C123   H237    1.114   .     S
C123   C125    1.521   .     S
C124   C152    1.419   .     S
C124   O430    1.274   .     A
C124   O419    1.274   .     A
C125   H238    1.110   .     S
C125   H240    1.110   .     S
C125   H239    1.109   .     S
C126   C127    1.521   .     S
C126   H242    1.114   .     S
C126   O446    1.413   .     S
C126   H241    1.113   .     S
C127   H243    1.110   .     S
C127   H246    1.110   .     S
C127   H244    1.109   .     S
C128   O447    1.413   .     S
C128   H247    1.113   .     S
C128   C129    1.521   .     S
C128   H248    1.114   .     S
C129   H249    1.110   .     S
C129   H251    1.110   .     S
C129   H250    1.109   .     S
C130   C131    1.521   .     S
C130   O449    1.413   .     S
C130   H252    1.113   .     S
C130   H253    1.114   .     S
C131   H255    1.109   .     S
C131   H254    1.110   .     S
C131   H257    1.110   .     S
C132   H258    1.113   .     S
C132   O450    1.413   .     S
C132   H259    1.114   .     S
C132   C133    1.521   .     S
C133   H261    1.109   .     S
C133   H260    1.110   .     S
C133   H262    1.110   .     S
C134   H263    1.113   .     S
C134   O451    1.413   .     S
C134   H264    1.114   .     S
C134   C136    1.521   .     S
C135   O420    1.274   .     A
C135   O431    1.274   .     A
C135   C151    1.419   .     S
C136   H266    1.109   .     S
C136   H268    1.110   .     S
C136   H265    1.110   .     S
C137   H269    1.113   .     S
C137   O452    1.413   .     S
C137   H270    1.114   .     S
C137   C138    1.521   .     S
C138   H272    1.109   .     S
C138   H271    1.110   .     S
C138   H273    1.110   .     S
C139   H274    1.113   .     S
C139   C140    1.521   .     S
C139   O453    1.413   .     S
C139   H275    1.114   .     S
C140   H277    1.109   .     S
C140   H279    1.110   .     S
C140   H276    1.110   .     S
C141   O454    1.413   .     S
C141   H280    1.113   .     S
C141   H281    1.114   .     S
C141   C142    1.521   .     S
C142   H284    1.110   .     S
C142   H282    1.110   .     S
C142   H283    1.109   .     S
C143   C144    1.521   .     S
C143   H286    1.114   .     S
C143   O455    1.413   .     S
C143   H285    1.113   .     S
C144   H287    1.110   .     S
C144   H290    1.110   .     S
C144   H288    1.109   .     S
C145   H292    1.114   .     S
C145   O456    1.413   .     S
C145   C147    1.521   .     S
C145   H291    1.113   .     S
C146   O421    1.274   .     A
C146   O428    1.274   .     A
C146   C159    1.419   .     S
C147   H294    1.109   .     S
C147   H295    1.110   .     S
C147   H293    1.110   .     S
C148   O457    1.413   .     S
C148   H297    1.114   .     S
C148   H296    1.113   .     S
C148   C149    1.521   .     S
C149   H301    1.109   .     S
C149   H298    1.110   .     S
C149   H299    1.110   .     S
C150   O429    1.274   .     A
C150   C158    1.419   .     S
C150   O422    1.274   .     A
C151   C168    1.196   .     T
C152   C166    1.196   .     T
C153   C165    1.196   .     T
C154   C164    1.196   .     T
C155   C163    1.196   .     T
C156   C186    1.457   .     S
C156   O871    1.265   1_455 A
C156   O458    1.265   .     S
C157   C162    1.196   .     T
C158   C161    1.196   .     T
C159   C160    1.196   .     T
C165   C222    1.419   .     S
C167   O396    1.265   .     A
C167   C187    1.457   .     S
C167   O935    1.265   1_455 S
C169   C662    1.403   .     A
C169   C199    1.418   .     A
C170   C201    1.418   .     A
C170   C663    1.403   .     S
C171   C202    1.418   .     A
C171   C1140   1.403   .     S
C172   C1142   1.403   .     A
C172   C203    1.418   .     A
C173   C195    1.418   .     A
C173   C186    1.403   .     S
C174   C196    1.418   .     A
C174   C187    1.403   .     A
C175   C188    1.403   .     A
C175   C197    1.418   .     A
C176   C198    1.418   .     A
C176   C190    1.403   .     S
C177   C208    1.418   .     A
C177   C191    1.403   .     S
C178   C193    1.457   .     S
C178   O397    1.265   .     A
C178   O401    1.265   .     S
C179   C1144   1.403   .     A
C179   C209    1.418   .     A
C180   C210    1.418   .     A
C180   C669    1.403   .     A
C181   C194    1.403   .     A
C181   C212    1.418   .     A
C182   C204    1.418   .     A
C182   C1143   1.403   .     A
C183   C205    1.418   .     A
C183   C192    1.403   .     S
C184   C206    1.418   .     A
C184   C193    1.403   .     S
C185   C207    1.418   .     A
C185   C670    1.403   .     S
C186   C645    1.403   1_455 A
C187   C646    1.403   1_455 S
C188   C1123   1.403   1_545 S
C189   C194    1.457   .     S
C189   O398    1.265   .     S
C189   O402    1.265   .     S
C190   C1124   1.403   1_545 A
C191   C1134   1.403   1_545 A
C191   C200    1.457   .     S
C192   C1131   1.403   1_545 A
C192   C211    1.457   .     S
C193   C656    1.403   1_455 A
C194   C661    1.403   1_455 S
C195   C213    1.426   .     S
C195   C697    1.416   1_455 S
C196   C214    1.426   .     S
C196   C699    1.416   1_455 S
C197   C215    1.426   .     A
C197   C1176   1.416   1_545 S
C198   C216    1.426   .     A
C198   C1177   1.416   1_545 S
C199   C689    1.426   .     A
C199   C702    1.416   .     S
C200   O399    1.265   .     S
C200   O403    1.265   .     S
C201   C690    1.426   .     A
C201   C703    1.416   .     S
C202   C1167   1.426   .     S
C202   C1180   1.416   .     S
C203   C1168   1.426   .     S
C203   C1181   1.416   .     S
C204   C1169   1.426   .     A
C204   C230    1.416   .     A
C205   C231    1.416   .     A
C205   C218    1.426   .     S
C206   C232    1.416   .     A
C206   C219    1.426   .     S
C207   C696    1.426   .     A
C208   C217    1.426   .     S
C209   C1170   1.426   .     A
C210   C695    1.426   .     A
C211   O400    1.265   .     S
C211   O405    1.265   .     S
C212   C220    1.426   .     S
C213   C214    1.423   .     A
C213   C675    1.426   1_455 A
C214   C677    1.426   1_455 A
C215   C216    1.423   .     A
C215   C1154   1.426   1_545 S
C216   C1155   1.426   1_545 S
C217   C1156   1.426   1_545 A
C217   C218    1.423   1_556 S
C218   C1161   1.426   1_545 A
C218   C217    1.423   1_554 S
C219   C686    1.426   1_455 A
C219   C220    1.423   1_556 S
C220   C683    1.426   1_455 A
C220   C219    1.423   1_554 S
C221   O441    1.384   .     S
C221   C671    1.416   .     S
C221   C703    1.398   .     S
C222   O434    1.274   .     A
C222   O406    1.274   .     A
C223   O442    1.384   .     S
C223   C672    1.416   .     S
C223   C702    1.398   .     S
C224   O443    1.384   .     S
C224   C1149   1.416   .     S
C224   C1181   1.398   .     S
C225   O444    1.384   .     S
C225   C1150   1.416   .     S
C225   C1180   1.398   .     S
C226   O445    1.384   .     S
C226   C675    1.416   1_455 S
C226   C699    1.398   1_455 S
C227   O446    1.384   .     S
C227   C677    1.416   1_455 S
C227   C697    1.398   1_455 S
C228   O447    1.384   .     S
C228   C1154   1.416   1_545 S
C228   C1177   1.398   1_545 S
C229   O449    1.384   .     S
C229   C1155   1.416   1_545 S
C229   C1176   1.398   1_545 S
C230   O450    1.384   .     S
C230   C5      1.398   1_556 S
C231   O451    1.384   .     S
C231   C4      1.398   1_554 S
C232   O452    1.384   .     S
C232   C7      1.398   1_556 S
O393   Zn461   1.932   .     S
O393   Zn464   1.932   .     S
O393   Zn472   1.932   .     S
O393   Zn1420  1.932   1_545 S
O394   Zn463   1.948   .     S
O394   C1064   1.265   .     A
O395   Zn466   1.948   .     S
O395   C632    1.265   .     A
O396   Zn465   1.948   .     S
O397   Zn475   1.948   .     S
O398   Zn474   1.948   .     S
O399   Zn469   1.948   .     S
O400   Zn461   1.948   .     S
O401   Zn471   1.948   .     S
O402   Zn470   1.948   .     S
O403   Zn473   1.948   .     S
O404   Zn469   1.932   .     S
O404   Zn473   1.932   .     S
O404   Zn1415  1.932   1_545 S
O404   Zn467   1.932   .     S
O405   Zn472   1.948   .     S
O406   Zn464   1.911   .     S
O407   Zn463   1.911   .     S
O408   Zn466   1.911   .     S
O409   Zn465   1.911   .     S
O410   Zn468   1.911   .     S
O411   Zn467   1.911   .     S
O412   Zn462   1.911   .     S
O413   Zn476   1.911   .     S
O414   Zn463   1.911   .     S
O415   Zn942   1.932   1_455 S
O415   Zn470   1.932   .     S
O415   Zn474   1.932   .     S
O415   Zn462   1.932   .     S
O416   Zn464   1.911   .     S
O417   Zn476   1.911   .     S
O418   Zn462   1.911   .     S
O419   Zn467   1.911   .     S
O420   Zn468   1.911   .     S
O421   Zn465   1.911   .     S
O422   Zn466   1.911   .     S
O423   Zn947   1.911   .     S
O424   Zn470   1.911   .     S
O425   Zn1425  1.911   .     S
O426   Zn465   1.932   .     S
O426   Zn471   1.932   .     S
O426   Zn475   1.932   .     S
O426   Zn952   1.932   1_455 S
O427   Zn472   1.911   .     S
O428   Zn475   1.911   .     S
O429   Zn950   1.911   .     S
O430   Zn469   1.911   .     S
O431   Zn1413  1.911   .     S
O432   Zn946   1.911   .     S
O433   Zn471   1.911   .     S
O434   Zn461   1.911   .     S
O435   Zn1421  1.911   .     S
O436   Zn474   1.911   .     S
O437   Zn468   1.948   .     S
O437   C953    1.265   .     S
O438   Zn951   1.911   .     S
O439   Zn1424  1.911   .     S
O440   Zn473   1.911   .     S
O448   Zn467   1.948   .     S
O458   Zn462   1.948   .     S
O459   Zn476   1.948   .     S
O459   C643    1.265   .     S
O460   Zn464   1.948   .     S
Zn461  O1383   1.911   1_545 S
Zn463  O1356   1.932   .     S
Zn466  O891    1.932   .     S
Zn468  O1345   1.932   .     S
Zn469  O1387   1.911   1_545 S
Zn470  O908    1.911   1_455 S
Zn471  O899    1.911   1_455 S
Zn472  O1391   1.911   1_545 S
Zn473  O1377   1.911   1_545 S
Zn474  O905    1.911   1_455 S
Zn475  O914    1.911   1_455 S
Zn476  O902    1.932   .     S
C477   O936    1.265   .     A
C477   C664    1.457   .     S
C477   O1865   1.265   1_545 S
C478   O883    1.274   .     A
C478   C640    1.419   .     S
C478   O911    1.274   .     A
C479   C683    1.416   .     A
C479   O929    1.384   .     S
C479   C482    1.398   1_554 S
C480   C684    1.416   .     A
C480   O930    1.384   .     S
C480   C707    1.398   1_556 S
C481   O931    1.384   .     S
C481   C685    1.416   .     A
C481   C706    1.398   1_554 S
C482   O932    1.384   .     S
C482   C686    1.416   .     A
C482   C479    1.398   1_556 S
C483   C688    1.416   .     A
C483   O933    1.384   .     S
C483   C708    1.398   1_554 S
C484   C645    1.491   .     S
C484   C490    1.405   .     A
C484   C9      1.406   1_655 S
C485   H709    1.083   .     S
C485   C486    1.398   .     A
C486   H781    1.082   .     S
C487   H792    1.082   .     S
C487   C488    1.398   .     A
C487   C10     1.397   1_655 S
C488   H803    1.082   .     S
C488   C490    1.399   .     A
C489   C639    1.419   .     S
C489   O884    1.274   .     A
C489   O908    1.274   .     A
C490   H814    1.083   .     S
C491   C496    1.405   .     A
C491   C646    1.491   .     S
C491   C16     1.406   1_655 S
C492   H825    1.083   .     S
C492   C493    1.398   .     A
C493   H836    1.082   .     S
C494   C495    1.398   .     A
C494   H847    1.082   .     S
C494   C17     1.397   1_655 S
C495   C496    1.399   .     A
C495   H858    1.082   .     S
C496   H710    1.083   .     S
C497   C647    1.491   .     S
C497   C503    1.405   .     A
C497   C1450   1.406   .     S
C498   C499    1.398   .     A
C498   H721    1.083   .     S
C498   C1449   1.406   1_545 S
C499   H732    1.082   .     S
C499   C1453   1.397   1_545 S
C500   O909    1.274   .     A
C500   O885    1.274   .     A
C500   C638    1.419   .     S
C501   H743    1.082   .     S
C501   C502    1.398   .     A
C501   C1451   1.397   .     S
C502   H754    1.082   .     S
C502   C503    1.399   .     A
C503   H765    1.083   .     S
C504   C509    1.405   .     A
C504   C648    1.491   .     S
C504   C1457   1.406   .     S
C505   C506    1.398   .     A
C505   H776    1.083   .     S
C505   C1456   1.406   1_545 S
C506   H778    1.082   .     S
C506   C1459   1.397   1_545 S
C507   H779    1.082   .     S
C507   C508    1.398   .     A
C507   C1458   1.397   .     S
C508   H780    1.082   .     S
C508   C509    1.399   .     A
C509   H782    1.083   .     S
C510   C649    1.491   .     S
C510   C516    1.405   .     A
C511   C637    1.419   .     S
C511   O886    1.274   .     A
C511   O915    1.274   .     A
C512   H783    1.083   .     S
C512   C513    1.398   .     A
C512   C34     1.406   1_655 S
C513   H784    1.082   .     S
C513   C38     1.397   1_655 S
C514   C515    1.398   .     A
C514   H785    1.082   .     S
C515   C516    1.399   .     A
C515   H786    1.082   .     S
C516   H787    1.083   .     S
C517   C650    1.491   .     S
C517   C523    1.405   .     A
C518   H788    1.083   .     S
C518   C519    1.398   .     A
C518   C41     1.406   1_655 S
C519   H789    1.082   .     S
C519   C44     1.397   1_655 S
C520   C521    1.398   .     A
C520   H790    1.082   .     S
C521   C523    1.399   .     A
C521   H791    1.082   .     S
C522   O887    1.274   .     A
C522   C636    1.419   .     S
C522   O916    1.274   .     A
C523   H793    1.083   .     S
C524   C651    1.491   .     S
C524   C529    1.405   .     A
C524   C1477   1.406   1_545 S
C525   C526    1.398   .     A
C525   H794    1.083   .     S
C525   C1476   1.406   .     S
C526   H795    1.082   .     S
C526   C1479   1.397   .     S
C527   C528    1.398   .     A
C527   H796    1.082   .     S
C527   C1478   1.397   1_545 S
C528   C529    1.399   .     A
C528   H797    1.082   .     S
C529   H798    1.083   .     S
C530   C652    1.491   .     S
C530   C536    1.405   .     A
C530   C1483   1.406   1_545 S
C531   C532    1.398   .     A
C531   H799    1.083   .     S
C531   C1482   1.406   .     S
C532   H800    1.082   .     S
C532   C1486   1.397   .     S
C533   C644    1.419   .     S
C533   O912    1.274   .     A
C533   O888    1.274   .     A
C534   H801    1.082   .     S
C534   C535    1.398   .     A
C534   C1484   1.397   1_545 S
C535   C536    1.399   .     A
C535   H802    1.082   .     S
C536   H804    1.083   .     S
C537   C653    1.491   .     S
C537   C542    1.405   .     A
C537   C538    1.406   .     A
C538   C539    1.398   .     A
C538   H805    1.083   .     S
C539   C540    1.397   .     A
C539   H806    1.082   .     S
C540   H807    1.082   .     S
C540   C541    1.398   .     A
C541   H808    1.082   .     S
C541   C542    1.399   .     A
C542   H809    1.083   .     S
C543   C549    1.405   .     A
C543   C655    1.491   .     S
C543   C545    1.406   .     A
C544   C642    1.419   .     S
C544   O914    1.274   .     A
C544   O889    1.274   .     A
C545   H810    1.083   .     S
C545   C546    1.398   .     A
C546   H811    1.082   .     S
C546   C547    1.398   .     A
C547   C548    1.398   .     A
C547   H812    1.082   .     S
C548   C549    1.399   .     A
C548   H813    1.082   .     S
C549   H815    1.083   .     S
C550   C556    1.405   .     A
C550   C551    1.406   .     A
C550   C656    1.491   .     S
C551   C552    1.398   .     A
C551   H816    1.083   .     S
C552   C553    1.397   .     A
C552   H817    1.082   .     S
C553   H818    1.082   .     S
C553   C554    1.398   .     A
C554   C556    1.399   .     A
C554   H819    1.082   .     S
C555   O901    1.274   .     A
C555   C633    1.419   .     S
C555   O890    1.274   .     A
C556   H820    1.083   .     S
C557   C562    1.405   .     A
C557   C657    1.491   .     S
C557   C558    1.406   .     A
C558   C559    1.398   .     A
C558   H821    1.083   .     S
C559   C560    1.398   .     A
C559   H822    1.082   .     S
C560   C561    1.398   .     A
C560   H823    1.082   .     S
C561   C562    1.399   .     A
C561   H824    1.083   .     S
C562   H826    1.083   .     S
C563   C564    1.406   .     A
C563   C658    1.491   .     S
C563   C569    1.405   .     A
C564   C565    1.398   .     A
C564   H827    1.083   .     S
C565   C567    1.398   .     A
C565   H828    1.082   .     S
C566   O892    1.274   .     A
C566   O903    1.274   .     A
C566   C631    1.419   .     S
C567   C568    1.398   .     A
C567   H829    1.082   .     S
C568   H830    1.082   .     S
C568   C569    1.399   .     A
C569   H831    1.083   .     S
C570   C659    1.491   .     S
C570   C571    1.406   .     A
C570   C575    1.405   .     A
C571   C572    1.398   .     A
C571   H832    1.083   .     S
C572   H833    1.082   .     S
C572   C573    1.397   .     A
C573   H834    1.082   .     S
C573   C574    1.398   .     A
C574   H835    1.082   .     S
C574   C575    1.399   .     A
C575   H837    1.083   .     S
C576   C582    1.405   .     A
C576   C660    1.491   .     S
C576   C578    1.406   .     A
C577   O899    1.274   .     A
C577   O893    1.274   .     A
C577   C630    1.419   .     S
C578   H838    1.083   .     S
C578   C579    1.398   .     A
C579   H839    1.082   .     S
C579   C580    1.397   .     A
C580   C581    1.398   .     A
C580   H840    1.082   .     S
C581   H841    1.082   .     S
C581   C582    1.399   .     A
C582   H842    1.083   .     S
C583   C584    1.406   .     A
C583   C590    1.405   .     A
C583   C661    1.491   .     S
C584   C585    1.398   .     A
C584   H843    1.083   .     S
C585   H844    1.082   .     S
C585   C586    1.397   .     A
C586   C587    1.398   .     A
C586   H845    1.082   .     S
C587   H846    1.082   .     S
C587   C590    1.399   .     A
C588   C666    1.457   .     S
C588   O1822   1.265   1_545 A
C588   O924    1.265   .     S
C589   O900    1.274   .     A
C589   O894    1.274   .     A
C589   C629    1.419   .     S
C590   H848    1.083   .     S
C591   H849    1.113   .     S
C591   C592    1.521   .     S
C591   H850    1.114   .     S
C591   O917    1.413   .     S
C592   H851    1.110   .     S
C592   H853    1.110   .     S
C592   H852    1.109   .     S
C593   H855    1.114   .     S
C593   C594    1.521   .     S
C593   O918    1.413   .     S
C593   H854    1.113   .     S
C594   H856    1.110   .     S
C594   H859    1.110   .     S
C594   H857    1.109   .     S
C595   C596    1.521   .     S
C595   H860    1.113   .     S
C595   H861    1.114   .     S
C595   O919    1.413   .     S
C596   H862    1.110   .     S
C596   H864    1.110   .     S
C596   H863    1.109   .     S
C597   H866    1.114   .     S
C597   O920    1.413   .     S
C597   H865    1.113   .     S
C597   C598    1.521   .     S
C598   H867    1.110   .     S
C598   H711    1.110   .     S
C598   H868    1.109   .     S
C599   H712    1.113   .     S
C599   O921    1.413   .     S
C599   H713    1.114   .     S
C599   C601    1.521   .     S
C600   C628    1.419   .     S
C600   O906    1.274   .     A
C600   O895    1.274   .     A
C601   H714    1.110   .     S
C601   H716    1.110   .     S
C601   H715    1.109   .     S
C602   C603    1.521   .     S
C602   H718    1.114   .     S
C602   O922    1.413   .     S
C602   H717    1.113   .     S
C603   H719    1.110   .     S
C603   H722    1.110   .     S
C603   H720    1.109   .     S
C604   O923    1.413   .     S
C604   H723    1.113   .     S
C604   C605    1.521   .     S
C604   H724    1.114   .     S
C605   H725    1.110   .     S
C605   H727    1.110   .     S
C605   H726    1.109   .     S
C606   C607    1.521   .     S
C606   O925    1.413   .     S
C606   H728    1.113   .     S
C606   H729    1.114   .     S
C607   H731    1.109   .     S
C607   H730    1.110   .     S
C607   H733    1.110   .     S
C608   H734    1.113   .     S
C608   O926    1.413   .     S
C608   H735    1.114   .     S
C608   C609    1.521   .     S
C609   H737    1.109   .     S
C609   H736    1.110   .     S
C609   H738    1.110   .     S
C610   H739    1.113   .     S
C610   O927    1.413   .     S
C610   H740    1.114   .     S
C610   C612    1.521   .     S
C611   O896    1.274   .     A
C611   O907    1.274   .     A
C611   C627    1.419   .     S
C612   H742    1.109   .     S
C612   H744    1.110   .     S
C612   H741    1.110   .     S
C613   H745    1.113   .     S
C613   O928    1.413   .     S
C613   H746    1.114   .     S
C613   C614    1.521   .     S
C614   H748    1.109   .     S
C614   H747    1.110   .     S
C614   H749    1.110   .     S
C615   H750    1.113   .     S
C615   C616    1.521   .     S
C615   O929    1.413   .     S
C615   H751    1.114   .     S
C616   H753    1.109   .     S
C616   H755    1.110   .     S
C616   H752    1.110   .     S
C617   O930    1.413   .     S
C617   H756    1.113   .     S
C617   H757    1.114   .     S
C617   C618    1.521   .     S
C618   H760    1.110   .     S
C618   H758    1.110   .     S
C618   H759    1.109   .     S
C619   C620    1.521   .     S
C619   H762    1.114   .     S
C619   O931    1.413   .     S
C619   H761    1.113   .     S
C620   H763    1.110   .     S
C620   H766    1.110   .     S
C620   H764    1.109   .     S
C621   H768    1.114   .     S
C621   O932    1.413   .     S
C621   C623    1.521   .     S
C621   H767    1.113   .     S
C622   O897    1.274   .     A
C622   O904    1.274   .     A
C622   C635    1.419   .     S
C623   H770    1.109   .     S
C623   H771    1.110   .     S
C623   H769    1.110   .     S
C624   O933    1.413   .     S
C624   H773    1.114   .     S
C624   H772    1.113   .     S
C624   C625    1.521   .     S
C625   H777    1.109   .     S
C625   H774    1.110   .     S
C625   H775    1.110   .     S
C626   O905    1.274   .     A
C626   C634    1.419   .     S
C626   O898    1.274   .     A
C627   C644    1.196   .     T
C628   C642    1.196   .     T
C629   C641    1.196   .     T
C630   C640    1.196   .     T
C631   C639    1.196   .     T
C632   C662    1.457   .     S
C632   O934    1.265   .     S
C633   C638    1.196   .     T
C634   C637    1.196   .     T
C635   C636    1.196   .     T
C641   C698    1.419   .     S
C643   O872    1.265   .     A
C643   C663    1.457   .     S
C645   C186    1.403   1_655 A
C645   C675    1.418   .     A
C646   C677    1.418   .     A
C646   C187    1.403   1_655 S
C647   C678    1.418   .     A
C647   C1616   1.403   .     S
C648   C1618   1.403   .     A
C648   C679    1.418   .     A
C649   C671    1.418   .     A
C649   C662    1.403   .     S
C650   C672    1.418   .     A
C650   C663    1.403   .     A
C651   C664    1.403   .     A
C651   C673    1.418   .     A
C652   C674    1.418   .     A
C652   C666    1.403   .     S
C653   C684    1.418   .     A
C653   C667    1.403   .     S
C654   C669    1.457   .     S
C654   O873    1.265   .     A
C654   O877    1.265   .     S
C655   C1620   1.403   .     A
C655   C685    1.418   .     A
C656   C686    1.418   .     A
C656   C193    1.403   1_655 A
C657   C670    1.403   .     A
C657   C688    1.418   .     A
C658   C680    1.418   .     A
C658   C1619   1.403   .     A
C659   C681    1.418   .     A
C659   C668    1.403   .     S
C660   C682    1.418   .     A
C660   C669    1.403   .     S
C661   C683    1.418   .     A
C661   C194    1.403   1_655 S
C664   C1599   1.403   1_545 S
C665   C670    1.457   .     S
C665   O874    1.265   .     S
C665   O878    1.265   .     S
C666   C1600   1.403   1_545 A
C667   C1610   1.403   1_545 A
C667   C676    1.457   .     S
C668   C1607   1.403   1_545 A
C668   C687    1.457   .     S
C671   C689    1.426   .     S
C672   C690    1.426   .     S
C673   C691    1.426   .     A
C673   C1652   1.416   1_545 S
C674   C692    1.426   .     A
C674   C1653   1.416   1_545 S
C675   C213    1.426   1_655 A
C675   C226    1.416   1_655 S
C676   O875    1.265   .     S
C676   O879    1.265   .     S
C677   C214    1.426   1_655 A
C677   C227    1.416   1_655 S
C678   C1643   1.426   .     S
C678   C1656   1.416   .     S
C679   C1644   1.426   .     S
C679   C1657   1.416   .     S
C680   C1645   1.426   .     A
C680   C706    1.416   .     A
C681   C707    1.416   .     A
C681   C694    1.426   .     S
C682   C708    1.416   .     A
C682   C695    1.426   .     S
C683   C220    1.426   1_655 A
C684   C693    1.426   .     S
C685   C1646   1.426   .     A
C686   C219    1.426   1_655 A
C687   O876    1.265   .     S
C687   O881    1.265   .     S
C688   C696    1.426   .     S
C689   C690    1.423   .     A
C691   C692    1.423   .     A
C691   C1630   1.426   1_545 S
C692   C1631   1.426   1_545 S
C693   C1632   1.426   1_545 A
C693   C694    1.423   1_556 S
C694   C1637   1.426   1_545 A
C694   C693    1.423   1_554 S
C695   C696    1.423   1_556 S
C696   C695    1.423   1_554 S
C697   O917    1.384   .     S
C697   C195    1.416   1_655 S
C697   C227    1.398   1_655 S
C698   O910    1.274   .     A
C698   O882    1.274   .     A
C699   O918    1.384   .     S
C699   C196    1.416   1_655 S
C699   C226    1.398   1_655 S
C700   O919    1.384   .     S
C700   C1625   1.416   .     S
C700   C1657   1.398   .     S
C701   O920    1.384   .     S
C701   C1626   1.416   .     S
C701   C1656   1.398   .     S
C702   O921    1.384   .     S
C703   O922    1.384   .     S
C704   O923    1.384   .     S
C704   C1630   1.416   1_545 S
C704   C1653   1.398   1_545 S
C705   O925    1.384   .     S
C705   C1631   1.416   1_545 S
C705   C1652   1.398   1_545 S
C706   O926    1.384   .     S
C706   C481    1.398   1_556 S
C707   O927    1.384   .     S
C707   C480    1.398   1_554 S
C708   O928    1.384   .     S
C708   C483    1.398   1_556 S
O869   Zn937   1.932   .     S
O869   Zn940   1.932   .     S
O869   Zn948   1.932   .     S
O869   Zn1896  1.932   1_545 S
O870   Zn939   1.948   .     S
O870   C1540   1.265   .     A
O871   Zn942   1.948   .     S
O871   C156    1.265   1_655 A
O872   Zn941   1.948   .     S
O873   Zn951   1.948   .     S
O874   Zn950   1.948   .     S
O875   Zn945   1.948   .     S
O876   Zn937   1.948   .     S
O877   Zn947   1.948   .     S
O878   Zn946   1.948   .     S
O879   Zn949   1.948   .     S
O880   Zn945   1.932   .     S
O880   Zn949   1.932   .     S
O880   Zn1891  1.932   1_545 S
O880   Zn943   1.932   .     S
O881   Zn948   1.948   .     S
O882   Zn940   1.911   .     S
O883   Zn939   1.911   .     S
O884   Zn942   1.911   .     S
O885   Zn941   1.911   .     S
O886   Zn944   1.911   .     S
O887   Zn943   1.911   .     S
O888   Zn938   1.911   .     S
O889   Zn952   1.911   .     S
O890   Zn939   1.911   .     S
O891   Zn946   1.932   .     S
O891   Zn950   1.932   .     S
O891   Zn938   1.932   .     S
O892   Zn940   1.911   .     S
O893   Zn952   1.911   .     S
O894   Zn938   1.911   .     S
O895   Zn943   1.911   .     S
O896   Zn944   1.911   .     S
O897   Zn941   1.911   .     S
O898   Zn942   1.911   .     S
O899   Zn471   1.911   1_655 S
O900   Zn946   1.911   .     S
O901   Zn1901  1.911   .     S
O902   Zn941   1.932   .     S
O902   Zn947   1.932   .     S
O902   Zn951   1.932   .     S
O903   Zn948   1.911   .     S
O904   Zn951   1.911   .     S
O905   Zn474   1.911   1_655 S
O906   Zn945   1.911   .     S
O907   Zn1889  1.911   .     S
O908   Zn470   1.911   1_655 S
O909   Zn947   1.911   .     S
O910   Zn937   1.911   .     S
O911   Zn1897  1.911   .     S
O912   Zn950   1.911   .     S
O913   Zn944   1.948   .     S
O913   C1429   1.265   .     S
O914   Zn475   1.911   1_655 S
O915   Zn1900  1.911   .     S
O916   Zn949   1.911   .     S
O924   Zn943   1.948   .     S
O934   Zn938   1.948   .     S
O935   Zn952   1.948   .     S
O935   C167    1.265   1_655 S
O936   Zn940   1.948   .     S
Zn937  O1859   1.911   1_545 S
Zn939  O1832   1.932   .     S
Zn942  O415    1.932   1_655 S
Zn944  O1821   1.932   .     S
Zn945  O1863   1.911   1_545 S
Zn948  O1867   1.911   1_545 S
Zn949  O1853   1.911   1_545 S
Zn952  O426    1.932   1_655 S
C953   O1412   1.265   .     A
C953   C1140   1.457   .     S
C954   O1359   1.274   .     A
C954   C1116   1.419   .     S
C954   O1387   1.274   .     A
C955   C1159   1.416   .     A
C955   O1405   1.384   .     S
C955   C958    1.398   1_554 S
C956   C1160   1.416   .     A
C956   O1406   1.384   .     S
C956   C1183   1.398   1_556 S
C957   O1407   1.384   .     S
C957   C1161   1.416   .     A
C957   C1182   1.398   1_554 S
C958   O1408   1.384   .     S
C958   C1162   1.416   .     A
C958   C955    1.398   1_556 S
C959   C1164   1.416   .     A
C959   O1409   1.384   .     S
C959   C1184   1.398   1_554 S
C960   C1121   1.491   .     S
C960   C966    1.405   .     A
C960   C1437   1.406   .     S
C961   H1185   1.083   .     S
C961   C962    1.398   .     A
C961   C1436   1.406   1_455 S
C962   H1257   1.082   .     S
C962   C1439   1.397   1_455 S
C963   H1268   1.082   .     S
C963   C964    1.398   .     A
C963   C1438   1.397   .     S
C964   H1279   1.082   .     S
C964   C966    1.399   .     A
C965   C1115   1.419   .     S
C965   O1360   1.274   .     A
C965   O1384   1.274   .     A
C966   H1290   1.083   .     S
C967   C972    1.405   .     A
C967   C1122   1.491   .     S
C967   C1444   1.406   .     S
C968   H1301   1.083   .     S
C968   C969    1.398   .     A
C968   C1443   1.406   1_455 S
C969   H1312   1.082   .     S
C969   C1446   1.397   1_455 S
C970   C971    1.398   .     A
C970   H1323   1.082   .     S
C970   C1445   1.397   .     S
C971   C972    1.399   .     A
C971   H1334   1.082   .     S
C972   H1186   1.083   .     S
C973   C1123   1.491   .     S
C973   C979    1.405   .     A
C973   C22     1.406   1_565 S
C974   C975    1.398   .     A
C974   H1197   1.083   .     S
C975   H1208   1.082   .     S
C976   O1385   1.274   .     A
C976   O1361   1.274   .     A
C976   C1114   1.419   .     S
C977   H1219   1.082   .     S
C977   C978    1.398   .     A
C977   C23     1.397   1_565 S
C978   H1230   1.082   .     S
C978   C979    1.399   .     A
C979   H1241   1.083   .     S
C980   C985    1.405   .     A
C980   C1124   1.491   .     S
C980   C29     1.406   1_565 S
C981   C982    1.398   .     A
C981   H1252   1.083   .     S
C982   H1254   1.082   .     S
C983   H1255   1.082   .     S
C983   C984    1.398   .     A
C983   C30     1.397   1_565 S
C984   H1256   1.082   .     S
C984   C985    1.399   .     A
C985   H1258   1.083   .     S
C986   C1125   1.491   .     S
C986   C992    1.405   .     A
C986   C1464   1.406   1_455 S
C987   C1113   1.419   .     S
C987   O1362   1.274   .     A
C987   O1391   1.274   .     A
C988   H1259   1.083   .     S
C988   C989    1.398   .     A
C988   C1462   1.406   .     S
C989   H1260   1.082   .     S
C989   C1466   1.397   .     S
C990   C991    1.398   .     A
C990   H1261   1.082   .     S
C990   C1465   1.397   1_455 S
C991   C992    1.399   .     A
C991   H1262   1.082   .     S
C992   H1263   1.083   .     S
C993   C1126   1.491   .     S
C993   C999    1.405   .     A
C993   C1470   1.406   1_455 S
C994   H1264   1.083   .     S
C994   C995    1.398   .     A
C994   C1469   1.406   .     S
C995   H1265   1.082   .     S
C995   C1472   1.397   .     S
C996   C997    1.398   .     A
C996   H1266   1.082   .     S
C996   C1471   1.397   1_455 S
C997   C999    1.399   .     A
C997   H1267   1.082   .     S
C998   O1363   1.274   .     A
C998   C1112   1.419   .     S
C998   O1392   1.274   .     A
C999   H1269   1.083   .     S
C1000  C1127   1.491   .     S
C1000  C1005   1.405   .     A
C1001  C1002   1.398   .     A
C1001  H1270   1.083   .     S
C1001  C48     1.406   1_565 S
C1002  H1271   1.082   .     S
C1002  C51     1.397   1_565 S
C1003  C1004   1.398   .     A
C1003  H1272   1.082   .     S
C1004  C1005   1.399   .     A
C1004  H1273   1.082   .     S
C1005  H1274   1.083   .     S
C1006  C1128   1.491   .     S
C1006  C1012   1.405   .     A
C1007  C1008   1.398   .     A
C1007  H1275   1.083   .     S
C1007  C54     1.406   1_565 S
C1008  H1276   1.082   .     S
C1008  C58     1.397   1_565 S
C1009  C1120   1.419   .     S
C1009  O1388   1.274   .     A
C1009  O1364   1.274   .     A
C1010  H1277   1.082   .     S
C1010  C1011   1.398   .     A
C1011  C1012   1.399   .     A
C1011  H1278   1.082   .     S
C1012  H1280   1.083   .     S
C1013  C1129   1.491   .     S
C1013  C1018   1.405   .     A
C1013  C1014   1.406   .     A
C1014  C1015   1.398   .     A
C1014  H1281   1.083   .     S
C1015  C1016   1.397   .     A
C1015  H1282   1.082   .     S
C1016  H1283   1.082   .     S
C1016  C1017   1.398   .     A
C1017  H1284   1.082   .     S
C1017  C1018   1.399   .     A
C1018  H1285   1.083   .     S
C1019  C1025   1.405   .     A
C1019  C1131   1.491   .     S
C1019  C1021   1.406   .     A
C1020  C1118   1.419   .     S
C1020  O1390   1.274   .     A
C1020  O1365   1.274   .     A
C1021  H1286   1.083   .     S
C1021  C1022   1.398   .     A
C1022  H1287   1.082   .     S
C1022  C1023   1.398   .     A
C1023  C1024   1.398   .     A
C1023  H1288   1.082   .     S
C1024  C1025   1.399   .     A
C1024  H1289   1.082   .     S
C1025  H1291   1.083   .     S
C1026  C1032   1.405   .     A
C1026  C1027   1.406   .     A
C1026  C1132   1.491   .     S
C1027  C1028   1.398   .     A
C1027  H1292   1.083   .     S
C1028  C1029   1.397   .     A
C1028  H1293   1.082   .     S
C1029  H1294   1.082   .     S
C1029  C1030   1.398   .     A
C1030  C1032   1.399   .     A
C1030  H1295   1.082   .     S
C1031  O1377   1.274   .     A
C1031  C1109   1.419   .     S
C1031  O1366   1.274   .     A
C1032  H1296   1.083   .     S
C1033  C1038   1.405   .     A
C1033  C1133   1.491   .     S
C1033  C1034   1.406   .     A
C1034  C1035   1.398   .     A
C1034  H1297   1.083   .     S
C1035  C1036   1.398   .     A
C1035  H1298   1.082   .     S
C1036  C1037   1.398   .     A
C1036  H1299   1.082   .     S
C1037  C1038   1.399   .     A
C1037  H1300   1.083   .     S
C1038  H1302   1.083   .     S
C1039  C1040   1.406   .     A
C1039  C1134   1.491   .     S
C1039  C1045   1.405   .     A
C1040  C1041   1.398   .     A
C1040  H1303   1.083   .     S
C1041  C1043   1.398   .     A
C1041  H1304   1.082   .     S
C1042  O1368   1.274   .     A
C1042  O1379   1.274   .     A
C1042  C1107   1.419   .     S
C1043  C1044   1.398   .     A
C1043  H1305   1.082   .     S
C1044  H1306   1.082   .     S
C1044  C1045   1.399   .     A
C1045  H1307   1.083   .     S
C1046  C1135   1.491   .     S
C1046  C1047   1.406   .     A
C1046  C1051   1.405   .     A
C1047  C1048   1.398   .     A
C1047  H1308   1.083   .     S
C1048  H1309   1.082   .     S
C1048  C1049   1.397   .     A
C1049  H1310   1.082   .     S
C1049  C1050   1.398   .     A
C1050  H1311   1.082   .     S
C1050  C1051   1.399   .     A
C1051  H1313   1.083   .     S
C1052  C1058   1.405   .     A
C1052  C1136   1.491   .     S
C1052  C1054   1.406   .     A
C1053  O1375   1.274   .     A
C1053  O1369   1.274   .     A
C1053  C1106   1.419   .     S
C1054  H1314   1.083   .     S
C1054  C1055   1.398   .     A
C1055  H1315   1.082   .     S
C1055  C1056   1.397   .     A
C1056  C1057   1.398   .     A
C1056  H1316   1.082   .     S
C1057  H1317   1.082   .     S
C1057  C1058   1.399   .     A
C1058  H1318   1.083   .     S
C1059  C1060   1.406   .     A
C1059  C1066   1.405   .     A
C1059  C1137   1.491   .     S
C1060  C1061   1.398   .     A
C1060  H1319   1.083   .     S
C1061  H1320   1.082   .     S
C1061  C1062   1.397   .     A
C1062  C1063   1.398   .     A
C1062  H1321   1.082   .     S
C1063  H1322   1.082   .     S
C1063  C1066   1.399   .     A
C1064  C1142   1.457   .     S
C1064  O1400   1.265   .     S
C1065  O1376   1.274   .     A
C1065  O1370   1.274   .     A
C1065  C1105   1.419   .     S
C1066  H1324   1.083   .     S
C1067  H1325   1.113   .     S
C1067  C1068   1.521   .     S
C1067  H1326   1.114   .     S
C1067  O1393   1.413   .     S
C1068  H1327   1.110   .     S
C1068  H1329   1.110   .     S
C1068  H1328   1.109   .     S
C1069  H1331   1.114   .     S
C1069  C1070   1.521   .     S
C1069  O1394   1.413   .     S
C1069  H1330   1.113   .     S
C1070  H1332   1.110   .     S
C1070  H1335   1.110   .     S
C1070  H1333   1.109   .     S
C1071  C1072   1.521   .     S
C1071  H1336   1.113   .     S
C1071  H1337   1.114   .     S
C1071  O1395   1.413   .     S
C1072  H1338   1.110   .     S
C1072  H1340   1.110   .     S
C1072  H1339   1.109   .     S
C1073  H1342   1.114   .     S
C1073  O1396   1.413   .     S
C1073  H1341   1.113   .     S
C1073  C1074   1.521   .     S
C1074  H1343   1.110   .     S
C1074  H1187   1.110   .     S
C1074  H1344   1.109   .     S
C1075  H1188   1.113   .     S
C1075  O1397   1.413   .     S
C1075  H1189   1.114   .     S
C1075  C1077   1.521   .     S
C1076  C1104   1.419   .     S
C1076  O1382   1.274   .     A
C1076  O1371   1.274   .     A
C1077  H1190   1.110   .     S
C1077  H1192   1.110   .     S
C1077  H1191   1.109   .     S
C1078  C1079   1.521   .     S
C1078  H1194   1.114   .     S
C1078  O1398   1.413   .     S
C1078  H1193   1.113   .     S
C1079  H1195   1.110   .     S
C1079  H1198   1.110   .     S
C1079  H1196   1.109   .     S
C1080  O1399   1.413   .     S
C1080  H1199   1.113   .     S
C1080  C1081   1.521   .     S
C1080  H1200   1.114   .     S
C1081  H1201   1.110   .     S
C1081  H1203   1.110   .     S
C1081  H1202   1.109   .     S
C1082  C1083   1.521   .     S
C1082  O1401   1.413   .     S
C1082  H1204   1.113   .     S
C1082  H1205   1.114   .     S
C1083  H1207   1.109   .     S
C1083  H1206   1.110   .     S
C1083  H1209   1.110   .     S
C1084  H1210   1.113   .     S
C1084  O1402   1.413   .     S
C1084  H1211   1.114   .     S
C1084  C1085   1.521   .     S
C1085  H1213   1.109   .     S
C1085  H1212   1.110   .     S
C1085  H1214   1.110   .     S
C1086  H1215   1.113   .     S
C1086  O1403   1.413   .     S
C1086  H1216   1.114   .     S
C1086  C1088   1.521   .     S
C1087  O1372   1.274   .     A
C1087  O1383   1.274   .     A
C1087  C1103   1.419   .     S
C1088  H1218   1.109   .     S
C1088  H1220   1.110   .     S
C1088  H1217   1.110   .     S
C1089  H1221   1.113   .     S
C1089  O1404   1.413   .     S
C1089  H1222   1.114   .     S
C1089  C1090   1.521   .     S
C1090  H1224   1.109   .     S
C1090  H1223   1.110   .     S
C1090  H1225   1.110   .     S
C1091  H1226   1.113   .     S
C1091  C1092   1.521   .     S
C1091  O1405   1.413   .     S
C1091  H1227   1.114   .     S
C1092  H1229   1.109   .     S
C1092  H1231   1.110   .     S
C1092  H1228   1.110   .     S
C1093  O1406   1.413   .     S
C1093  H1232   1.113   .     S
C1093  H1233   1.114   .     S
C1093  C1094   1.521   .     S
C1094  H1236   1.110   .     S
C1094  H1234   1.110   .     S
C1094  H1235   1.109   .     S
C1095  C1096   1.521   .     S
C1095  H1238   1.114   .     S
C1095  O1407   1.413   .     S
C1095  H1237   1.113   .     S
C1096  H1239   1.110   .     S
C1096  H1242   1.110   .     S
C1096  H1240   1.109   .     S
C1097  H1244   1.114   .     S
C1097  O1408   1.413   .     S
C1097  C1099   1.521   .     S
C1097  H1243   1.113   .     S
C1098  O1373   1.274   .     A
C1098  O1380   1.274   .     A
C1098  C1111   1.419   .     S
C1099  H1246   1.109   .     S
C1099  H1247   1.110   .     S
C1099  H1245   1.110   .     S
C1100  O1409   1.413   .     S
C1100  H1249   1.114   .     S
C1100  H1248   1.113   .     S
C1100  C1101   1.521   .     S
C1101  H1253   1.109   .     S
C1101  H1250   1.110   .     S
C1101  H1251   1.110   .     S
C1102  O1381   1.274   .     A
C1102  C1110   1.419   .     S
C1102  O1374   1.274   .     A
C1103  C1120   1.196   .     T
C1104  C1118   1.196   .     T
C1105  C1117   1.196   .     T
C1106  C1116   1.196   .     T
C1107  C1115   1.196   .     T
C1108  C1138   1.457   .     S
C1108  O1823   1.265   1_455 A
C1108  O1410   1.265   .     S
C1109  C1114   1.196   .     T
C1110  C1113   1.196   .     T
C1111  C1112   1.196   .     T
C1117  C1174   1.419   .     S
C1119  O1348   1.265   .     A
C1119  C1139   1.457   .     S
C1119  O1887   1.265   1_455 S
C1121  C1614   1.403   .     A
C1121  C1151   1.418   .     A
C1122  C1153   1.418   .     A
C1122  C1615   1.403   .     S
C1123  C1154   1.418   .     A
C1123  C188    1.403   1_565 S
C1124  C190    1.403   1_565 A
C1124  C1155   1.418   .     A
C1125  C1147   1.418   .     A
C1125  C1138   1.403   .     S
C1126  C1148   1.418   .     A
C1126  C1139   1.403   .     A
C1127  C1140   1.403   .     A
C1127  C1149   1.418   .     A
C1128  C1150   1.418   .     A
C1128  C1142   1.403   .     S
C1129  C1160   1.418   .     A
C1129  C1143   1.403   .     S
C1130  C1145   1.457   .     S
C1130  O1349   1.265   .     A
C1130  O1353   1.265   .     S
C1131  C192    1.403   1_565 A
C1131  C1161   1.418   .     A
C1132  C1162   1.418   .     A
C1132  C1621   1.403   .     A
C1133  C1146   1.403   .     A
C1133  C1164   1.418   .     A
C1134  C1156   1.418   .     A
C1134  C191    1.403   1_565 A
C1135  C1157   1.418   .     A
C1135  C1144   1.403   .     S
C1136  C1158   1.418   .     A
C1136  C1145   1.403   .     S
C1137  C1159   1.418   .     A
C1137  C1622   1.403   .     S
C1138  C1597   1.403   1_455 A
C1139  C1598   1.403   1_455 S
C1141  C1146   1.457   .     S
C1141  O1350   1.265   .     S
C1141  O1354   1.265   .     S
C1143  C1152   1.457   .     S
C1144  C1163   1.457   .     S
C1145  C1608   1.403   1_455 A
C1146  C1613   1.403   1_455 S
C1147  C1165   1.426   .     S
C1147  C1649   1.416   1_455 S
C1148  C1166   1.426   .     S
C1148  C1651   1.416   1_455 S
C1149  C1167   1.426   .     A
C1150  C1168   1.426   .     A
C1151  C1641   1.426   .     A
C1151  C1654   1.416   .     S
C1152  O1351   1.265   .     S
C1152  O1355   1.265   .     S
C1153  C1642   1.426   .     A
C1153  C1655   1.416   .     S
C1154  C215    1.426   1_565 S
C1154  C228    1.416   1_565 S
C1155  C216    1.426   1_565 S
C1155  C229    1.416   1_565 S
C1156  C217    1.426   1_565 A
C1156  C1182   1.416   .     A
C1157  C1183   1.416   .     A
C1157  C1170   1.426   .     S
C1158  C1184   1.416   .     A
C1158  C1171   1.426   .     S
C1159  C1648   1.426   .     A
C1160  C1169   1.426   .     S
C1161  C218    1.426   1_565 A
C1162  C1647   1.426   .     A
C1163  O1352   1.265   .     S
C1163  O1357   1.265   .     S
C1164  C1172   1.426   .     S
C1165  C1166   1.423   .     A
C1165  C1627   1.426   1_455 A
C1166  C1629   1.426   1_455 A
C1167  C1168   1.423   .     A
C1169  C1170   1.423   1_556 S
C1170  C1169   1.423   1_554 S
C1171  C1638   1.426   1_455 A
C1171  C1172   1.423   1_556 S
C1172  C1635   1.426   1_455 A
C1172  C1171   1.423   1_554 S
C1173  O1393   1.384   .     S
C1173  C1623   1.416   .     S
C1173  C1655   1.398   .     S
C1174  O1386   1.274   .     A
C1174  O1358   1.274   .     A
C1175  O1394   1.384   .     S
C1175  C1624   1.416   .     S
C1175  C1654   1.398   .     S
C1176  O1395   1.384   .     S
C1176  C197    1.416   1_565 S
C1176  C229    1.398   1_565 S
C1177  O1396   1.384   .     S
C1177  C198    1.416   1_565 S
C1177  C228    1.398   1_565 S
C1178  O1397   1.384   .     S
C1178  C1627   1.416   1_455 S
C1178  C1651   1.398   1_455 S
C1179  O1398   1.384   .     S
C1179  C1629   1.416   1_455 S
C1179  C1649   1.398   1_455 S
C1180  O1399   1.384   .     S
C1181  O1401   1.384   .     S
C1182  O1402   1.384   .     S
C1182  C957    1.398   1_556 S
C1183  O1403   1.384   .     S
C1183  C956    1.398   1_554 S
C1184  O1404   1.384   .     S
C1184  C959    1.398   1_556 S
O1345  Zn1413  1.932   .     S
O1345  Zn1416  1.932   .     S
O1345  Zn1424  1.932   .     S
O1346  Zn1415  1.948   .     S
O1346  C112    1.265   1_565 A
O1347  Zn1418  1.948   .     S
O1347  C1584   1.265   .     A
O1348  Zn1417  1.948   .     S
O1349  Zn1427  1.948   .     S
O1350  Zn1426  1.948   .     S
O1351  Zn1421  1.948   .     S
O1352  Zn1413  1.948   .     S
O1353  Zn1423  1.948   .     S
O1354  Zn1422  1.948   .     S
O1355  Zn1425  1.948   .     S
O1356  Zn1421  1.932   .     S
O1356  Zn1425  1.932   .     S
O1356  Zn1419  1.932   .     S
O1357  Zn1424  1.948   .     S
O1358  Zn1416  1.911   .     S
O1359  Zn1415  1.911   .     S
O1360  Zn1418  1.911   .     S
O1361  Zn1417  1.911   .     S
O1362  Zn1420  1.911   .     S
O1363  Zn1419  1.911   .     S
O1364  Zn1414  1.911   .     S
O1365  Zn1428  1.911   .     S
O1366  Zn1415  1.911   .     S
O1367  Zn1894  1.932   1_455 S
O1367  Zn1422  1.932   .     S
O1367  Zn1426  1.932   .     S
O1367  Zn1414  1.932   .     S
O1368  Zn1416  1.911   .     S
O1369  Zn1428  1.911   .     S
O1370  Zn1414  1.911   .     S
O1371  Zn1419  1.911   .     S
O1372  Zn1420  1.911   .     S
O1373  Zn1417  1.911   .     S
O1374  Zn1418  1.911   .     S
O1375  Zn1899  1.911   .     S
O1376  Zn1422  1.911   .     S
O1377  Zn473   1.911   1_565 S
O1378  Zn1417  1.932   .     S
O1378  Zn1423  1.932   .     S
O1378  Zn1427  1.932   .     S
O1378  Zn1904  1.932   1_455 S
O1379  Zn1424  1.911   .     S
O1380  Zn1427  1.911   .     S
O1381  Zn1902  1.911   .     S
O1382  Zn1421  1.911   .     S
O1383  Zn461   1.911   1_565 S
O1384  Zn1898  1.911   .     S
O1385  Zn1423  1.911   .     S
O1386  Zn1413  1.911   .     S
O1387  Zn469   1.911   1_565 S
O1388  Zn1426  1.911   .     S
O1389  Zn1420  1.948   .     S
O1389  C1      1.265   1_565 S
O1390  Zn1903  1.911   .     S
O1391  Zn472   1.911   1_565 S
O1392  Zn1425  1.911   .     S
O1400  Zn1419  1.948   .     S
O1410  Zn1414  1.948   .     S
O1411  Zn1428  1.948   .     S
O1411  C1595   1.265   .     S
O1412  Zn1416  1.948   .     S
Zn1415 O404    1.932   1_565 S
Zn1418 O1843   1.932   .     S
Zn1420 O393    1.932   1_565 S
Zn1422 O1860   1.911   1_455 S
Zn1423 O1851   1.911   1_455 S
Zn1426 O1857   1.911   1_455 S
Zn1427 O1866   1.911   1_455 S
Zn1428 O1854   1.932   .     S
C1429  O1888   1.265   .     A
C1429  C1616   1.457   .     S
C1430  O1835   1.274   .     A
C1430  C1592   1.419   .     S
C1430  O1863   1.274   .     A
C1431  C1635   1.416   .     A
C1431  O1881   1.384   .     S
C1431  C1434   1.398   1_554 S
C1432  C1636   1.416   .     A
C1432  O1882   1.384   .     S
C1432  C1659   1.398   1_556 S
C1433  O1883   1.384   .     S
C1433  C1637   1.416   .     A
C1433  C1658   1.398   1_554 S
C1434  O1884   1.384   .     S
C1434  C1638   1.416   .     A
C1434  C1431   1.398   1_556 S
C1435  C1640   1.416   .     A
C1435  O1885   1.384   .     S
C1435  C1660   1.398   1_554 S
C1436  C1597   1.491   .     S
C1436  C1442   1.405   .     A
C1436  C961    1.406   1_655 S
C1437  H1661   1.083   .     S
C1437  C1438   1.398   .     A
C1438  H1733   1.082   .     S
C1439  H1744   1.082   .     S
C1439  C1440   1.398   .     A
C1439  C962    1.397   1_655 S
C1440  H1755   1.082   .     S
C1440  C1442   1.399   .     A
C1441  C1591   1.419   .     S
C1441  O1836   1.274   .     A
C1441  O1860   1.274   .     A
C1442  H1766   1.083   .     S
C1443  C1448   1.405   .     A
C1443  C1598   1.491   .     S
C1443  C968    1.406   1_655 S
C1444  H1777   1.083   .     S
C1444  C1445   1.398   .     A
C1445  H1788   1.082   .     S
C1446  C1447   1.398   .     A
C1446  H1799   1.082   .     S
C1446  C969    1.397   1_655 S
C1447  C1448   1.399   .     A
C1447  H1810   1.082   .     S
C1448  H1662   1.083   .     S
C1449  C1599   1.491   .     S
C1449  C1455   1.405   .     A
C1449  C498    1.406   1_565 S
C1450  C1451   1.398   .     A
C1450  H1673   1.083   .     S
C1451  H1684   1.082   .     S
C1452  O1861   1.274   .     A
C1452  O1837   1.274   .     A
C1452  C1590   1.419   .     S
C1453  H1695   1.082   .     S
C1453  C1454   1.398   .     A
C1453  C499    1.397   1_565 S
C1454  H1706   1.082   .     S
C1454  C1455   1.399   .     A
C1455  H1717   1.083   .     S
C1456  C1461   1.405   .     A
C1456  C1600   1.491   .     S
C1456  C505    1.406   1_565 S
C1457  C1458   1.398   .     A
C1457  H1728   1.083   .     S
C1458  H1730   1.082   .     S
C1459  H1731   1.082   .     S
C1459  C1460   1.398   .     A
C1459  C506    1.397   1_565 S
C1460  H1732   1.082   .     S
C1460  C1461   1.399   .     A
C1461  H1734   1.083   .     S
C1462  C1601   1.491   .     S
C1462  C1468   1.405   .     A
C1463  C1589   1.419   .     S
C1463  O1838   1.274   .     A
C1463  O1867   1.274   .     A
C1464  H1735   1.083   .     S
C1464  C1465   1.398   .     A
C1464  C986    1.406   1_655 S
C1465  H1736   1.082   .     S
C1465  C990    1.397   1_655 S
C1466  C1467   1.398   .     A
C1466  H1737   1.082   .     S
C1467  C1468   1.399   .     A
C1467  H1738   1.082   .     S
C1468  H1739   1.083   .     S
C1469  C1602   1.491   .     S
C1469  C1475   1.405   .     A
C1470  H1740   1.083   .     S
C1470  C1471   1.398   .     A
C1470  C993    1.406   1_655 S
C1471  H1741   1.082   .     S
C1471  C996    1.397   1_655 S
C1472  C1473   1.398   .     A
C1472  H1742   1.082   .     S
C1473  C1475   1.399   .     A
C1473  H1743   1.082   .     S
C1474  O1839   1.274   .     A
C1474  C1588   1.419   .     S
C1474  O1868   1.274   .     A
C1475  H1745   1.083   .     S
C1476  C1603   1.491   .     S
C1476  C1481   1.405   .     A
C1477  C1478   1.398   .     A
C1477  H1746   1.083   .     S
C1477  C524    1.406   1_565 S
C1478  H1747   1.082   .     S
C1478  C527    1.397   1_565 S
C1479  C1480   1.398   .     A
C1479  H1748   1.082   .     S
C1480  C1481   1.399   .     A
C1480  H1749   1.082   .     S
C1481  H1750   1.083   .     S
C1482  C1604   1.491   .     S
C1482  C1488   1.405   .     A
C1483  C1484   1.398   .     A
C1483  H1751   1.083   .     S
C1483  C530    1.406   1_565 S
C1484  H1752   1.082   .     S
C1484  C534    1.397   1_565 S
C1485  C1596   1.419   .     S
C1485  O1864   1.274   .     A
C1485  O1840   1.274   .     A
C1486  H1753   1.082   .     S
C1486  C1487   1.398   .     A
C1487  C1488   1.399   .     A
C1487  H1754   1.082   .     S
C1488  H1756   1.083   .     S
C1489  C1605   1.491   .     S
C1489  C1494   1.405   .     A
C1489  C1490   1.406   .     A
C1490  C1491   1.398   .     A
C1490  H1757   1.083   .     S
C1491  C1492   1.397   .     A
C1491  H1758   1.082   .     S
C1492  H1759   1.082   .     S
C1492  C1493   1.398   .     A
C1493  H1760   1.082   .     S
C1493  C1494   1.399   .     A
C1494  H1761   1.083   .     S
C1495  C1501   1.405   .     A
C1495  C1607   1.491   .     S
C1495  C1497   1.406   .     A
C1496  C1594   1.419   .     S
C1496  O1866   1.274   .     A
C1496  O1841   1.274   .     A
C1497  H1762   1.083   .     S
C1497  C1498   1.398   .     A
C1498  H1763   1.082   .     S
C1498  C1499   1.398   .     A
C1499  C1500   1.398   .     A
C1499  H1764   1.082   .     S
C1500  C1501   1.399   .     A
C1500  H1765   1.082   .     S
C1501  H1767   1.083   .     S
C1502  C1508   1.405   .     A
C1502  C1503   1.406   .     A
C1502  C1608   1.491   .     S
C1503  C1504   1.398   .     A
C1503  H1768   1.083   .     S
C1504  C1505   1.397   .     A
C1504  H1769   1.082   .     S
C1505  H1770   1.082   .     S
C1505  C1506   1.398   .     A
C1506  C1508   1.399   .     A
C1506  H1771   1.082   .     S
C1507  O1853   1.274   .     A
C1507  C1585   1.419   .     S
C1507  O1842   1.274   .     A
C1508  H1772   1.083   .     S
C1509  C1514   1.405   .     A
C1509  C1609   1.491   .     S
C1509  C1510   1.406   .     A
C1510  C1511   1.398   .     A
C1510  H1773   1.083   .     S
C1511  C1512   1.398   .     A
C1511  H1774   1.082   .     S
C1512  C1513   1.398   .     A
C1512  H1775   1.082   .     S
C1513  C1514   1.399   .     A
C1513  H1776   1.083   .     S
C1514  H1778   1.083   .     S
C1515  C1516   1.406   .     A
C1515  C1610   1.491   .     S
C1515  C1521   1.405   .     A
C1516  C1517   1.398   .     A
C1516  H1779   1.083   .     S
C1517  C1519   1.398   .     A
C1517  H1780   1.082   .     S
C1518  O1844   1.274   .     A
C1518  O1855   1.274   .     A
C1518  C1583   1.419   .     S
C1519  C1520   1.398   .     A
C1519  H1781   1.082   .     S
C1520  H1782   1.082   .     S
C1520  C1521   1.399   .     A
C1521  H1783   1.083   .     S
C1522  C1611   1.491   .     S
C1522  C1523   1.406   .     A
C1522  C1527   1.405   .     A
C1523  C1524   1.398   .     A
C1523  H1784   1.083   .     S
C1524  H1785   1.082   .     S
C1524  C1525   1.397   .     A
C1525  H1786   1.082   .     S
C1525  C1526   1.398   .     A
C1526  H1787   1.082   .     S
C1526  C1527   1.399   .     A
C1527  H1789   1.083   .     S
C1528  C1534   1.405   .     A
C1528  C1612   1.491   .     S
C1528  C1530   1.406   .     A
C1529  O1851   1.274   .     A
C1529  O1845   1.274   .     A
C1529  C1582   1.419   .     S
C1530  H1790   1.083   .     S
C1530  C1531   1.398   .     A
C1531  H1791   1.082   .     S
C1531  C1532   1.397   .     A
C1532  C1533   1.398   .     A
C1532  H1792   1.082   .     S
C1533  H1793   1.082   .     S
C1533  C1534   1.399   .     A
C1534  H1794   1.083   .     S
C1535  C1536   1.406   .     A
C1535  C1542   1.405   .     A
C1535  C1613   1.491   .     S
C1536  C1537   1.398   .     A
C1536  H1795   1.083   .     S
C1537  H1796   1.082   .     S
C1537  C1538   1.397   .     A
C1538  C1539   1.398   .     A
C1538  H1797   1.082   .     S
C1539  H1798   1.082   .     S
C1539  C1542   1.399   .     A
C1540  C1618   1.457   .     S
C1540  O1876   1.265   .     S
C1541  O1852   1.274   .     A
C1541  O1846   1.274   .     A
C1541  C1581   1.419   .     S
C1542  H1800   1.083   .     S
C1543  H1801   1.113   .     S
C1543  C1544   1.521   .     S
C1543  H1802   1.114   .     S
C1543  O1869   1.413   .     S
C1544  H1803   1.110   .     S
C1544  H1805   1.110   .     S
C1544  H1804   1.109   .     S
C1545  H1807   1.114   .     S
C1545  C1546   1.521   .     S
C1545  O1870   1.413   .     S
C1545  H1806   1.113   .     S
C1546  H1808   1.110   .     S
C1546  H1811   1.110   .     S
C1546  H1809   1.109   .     S
C1547  C1548   1.521   .     S
C1547  H1812   1.113   .     S
C1547  H1813   1.114   .     S
C1547  O1871   1.413   .     S
C1548  H1814   1.110   .     S
C1548  H1816   1.110   .     S
C1548  H1815   1.109   .     S
C1549  H1818   1.114   .     S
C1549  O1872   1.413   .     S
C1549  H1817   1.113   .     S
C1549  C1550   1.521   .     S
C1550  H1819   1.110   .     S
C1550  H1663   1.110   .     S
C1550  H1820   1.109   .     S
C1551  H1664   1.113   .     S
C1551  O1873   1.413   .     S
C1551  H1665   1.114   .     S
C1551  C1553   1.521   .     S
C1552  C1580   1.419   .     S
C1552  O1858   1.274   .     A
C1552  O1847   1.274   .     A
C1553  H1666   1.110   .     S
C1553  H1668   1.110   .     S
C1553  H1667   1.109   .     S
C1554  C1555   1.521   .     S
C1554  H1670   1.114   .     S
C1554  O1874   1.413   .     S
C1554  H1669   1.113   .     S
C1555  H1671   1.110   .     S
C1555  H1674   1.110   .     S
C1555  H1672   1.109   .     S
C1556  O1875   1.413   .     S
C1556  H1675   1.113   .     S
C1556  C1557   1.521   .     S
C1556  H1676   1.114   .     S
C1557  H1677   1.110   .     S
C1557  H1679   1.110   .     S
C1557  H1678   1.109   .     S
C1558  C1559   1.521   .     S
C1558  O1877   1.413   .     S
C1558  H1680   1.113   .     S
C1558  H1681   1.114   .     S
C1559  H1683   1.109   .     S
C1559  H1682   1.110   .     S
C1559  H1685   1.110   .     S
C1560  H1686   1.113   .     S
C1560  O1878   1.413   .     S
C1560  H1687   1.114   .     S
C1560  C1561   1.521   .     S
C1561  H1689   1.109   .     S
C1561  H1688   1.110   .     S
C1561  H1690   1.110   .     S
C1562  H1691   1.113   .     S
C1562  O1879   1.413   .     S
C1562  H1692   1.114   .     S
C1562  C1564   1.521   .     S
C1563  O1848   1.274   .     A
C1563  O1859   1.274   .     A
C1563  C1579   1.419   .     S
C1564  H1694   1.109   .     S
C1564  H1696   1.110   .     S
C1564  H1693   1.110   .     S
C1565  H1697   1.113   .     S
C1565  O1880   1.413   .     S
C1565  H1698   1.114   .     S
C1565  C1566   1.521   .     S
C1566  H1700   1.109   .     S
C1566  H1699   1.110   .     S
C1566  H1701   1.110   .     S
C1567  H1702   1.113   .     S
C1567  C1568   1.521   .     S
C1567  O1881   1.413   .     S
C1567  H1703   1.114   .     S
C1568  H1705   1.109   .     S
C1568  H1707   1.110   .     S
C1568  H1704   1.110   .     S
C1569  O1882   1.413   .     S
C1569  H1708   1.113   .     S
C1569  H1709   1.114   .     S
C1569  C1570   1.521   .     S
C1570  H1712   1.110   .     S
C1570  H1710   1.110   .     S
C1570  H1711   1.109   .     S
C1571  C1572   1.521   .     S
C1571  H1714   1.114   .     S
C1571  O1883   1.413   .     S
C1571  H1713   1.113   .     S
C1572  H1715   1.110   .     S
C1572  H1718   1.110   .     S
C1572  H1716   1.109   .     S
C1573  H1720   1.114   .     S
C1573  O1884   1.413   .     S
C1573  C1575   1.521   .     S
C1573  H1719   1.113   .     S
C1574  O1849   1.274   .     A
C1574  O1856   1.274   .     A
C1574  C1587   1.419   .     S
C1575  H1722   1.109   .     S
C1575  H1723   1.110   .     S
C1575  H1721   1.110   .     S
C1576  O1885   1.413   .     S
C1576  H1725   1.114   .     S
C1576  H1724   1.113   .     S
C1576  C1577   1.521   .     S
C1577  H1729   1.109   .     S
C1577  H1726   1.110   .     S
C1577  H1727   1.110   .     S
C1578  O1857   1.274   .     A
C1578  C1586   1.419   .     S
C1578  O1850   1.274   .     A
C1579  C1596   1.196   .     T
C1580  C1594   1.196   .     T
C1581  C1593   1.196   .     T
C1582  C1592   1.196   .     T
C1583  C1591   1.196   .     T
C1584  C1614   1.457   .     S
C1584  O1886   1.265   .     S
C1585  C1590   1.196   .     T
C1586  C1589   1.196   .     T
C1587  C1588   1.196   .     T
C1593  C1650   1.419   .     S
C1595  O1824   1.265   .     A
C1595  C1615   1.457   .     S
C1597  C1138   1.403   1_655 A
C1597  C1627   1.418   .     A
C1598  C1629   1.418   .     A
C1598  C1139   1.403   1_655 S
C1599  C1630   1.418   .     A
C1599  C664    1.403   1_565 S
C1600  C666    1.403   1_565 A
C1600  C1631   1.418   .     A
C1601  C1623   1.418   .     A
C1601  C1614   1.403   .     S
C1602  C1624   1.418   .     A
C1602  C1615   1.403   .     A
C1603  C1616   1.403   .     A
C1603  C1625   1.418   .     A
C1604  C1626   1.418   .     A
C1604  C1618   1.403   .     S
C1605  C1636   1.418   .     A
C1605  C1619   1.403   .     S
C1606  C1621   1.457   .     S
C1606  O1825   1.265   .     A
C1606  O1829   1.265   .     S
C1607  C668    1.403   1_565 A
C1607  C1637   1.418   .     A
C1608  C1638   1.418   .     A
C1608  C1145   1.403   1_655 A
C1609  C1622   1.403   .     A
C1609  C1640   1.418   .     A
C1610  C1632   1.418   .     A
C1610  C667    1.403   1_565 A
C1611  C1633   1.418   .     A
C1611  C1620   1.403   .     S
C1612  C1634   1.418   .     A
C1612  C1621   1.403   .     S
C1613  C1635   1.418   .     A
C1613  C1146   1.403   1_655 S
C1617  C1622   1.457   .     S
C1617  O1826   1.265   .     S
C1617  O1830   1.265   .     S
C1619  C1628   1.457   .     S
C1620  C1639   1.457   .     S
C1623  C1641   1.426   .     S
C1624  C1642   1.426   .     S
C1625  C1643   1.426   .     A
C1626  C1644   1.426   .     A
C1627  C1165   1.426   1_655 A
C1627  C1178   1.416   1_655 S
C1628  O1827   1.265   .     S
C1628  O1831   1.265   .     S
C1629  C1166   1.426   1_655 A
C1629  C1179   1.416   1_655 S
C1630  C691    1.426   1_565 S
C1630  C704    1.416   1_565 S
C1631  C692    1.426   1_565 S
C1631  C705    1.416   1_565 S
C1632  C693    1.426   1_565 A
C1632  C1658   1.416   .     A
C1633  C1659   1.416   .     A
C1633  C1646   1.426   .     S
C1634  C1660   1.416   .     A
C1634  C1647   1.426   .     S
C1635  C1172   1.426   1_655 A
C1636  C1645   1.426   .     S
C1637  C694    1.426   1_565 A
C1638  C1171   1.426   1_655 A
C1639  O1828   1.265   .     S
C1639  O1833   1.265   .     S
C1640  C1648   1.426   .     S
C1641  C1642   1.423   .     A
C1643  C1644   1.423   .     A
C1645  C1646   1.423   1_556 S
C1646  C1645   1.423   1_554 S
C1647  C1648   1.423   1_556 S
C1648  C1647   1.423   1_554 S
C1649  O1869   1.384   .     S
C1649  C1147   1.416   1_655 S
C1649  C1179   1.398   1_655 S
C1650  O1862   1.274   .     A
C1650  O1834   1.274   .     A
C1651  O1870   1.384   .     S
C1651  C1148   1.416   1_655 S
C1651  C1178   1.398   1_655 S
C1652  O1871   1.384   .     S
C1652  C673    1.416   1_565 S
C1652  C705    1.398   1_565 S
C1653  O1872   1.384   .     S
C1653  C674    1.416   1_565 S
C1653  C704    1.398   1_565 S
C1654  O1873   1.384   .     S
C1655  O1874   1.384   .     S
C1656  O1875   1.384   .     S
C1657  O1877   1.384   .     S
C1658  O1878   1.384   .     S
C1658  C1433   1.398   1_556 S
C1659  O1879   1.384   .     S
C1659  C1432   1.398   1_554 S
C1660  O1880   1.384   .     S
C1660  C1435   1.398   1_556 S
O1821  Zn1889  1.932   .     S
O1821  Zn1892  1.932   .     S
O1821  Zn1900  1.932   .     S
O1822  Zn1891  1.948   .     S
O1822  C588    1.265   1_565 A
O1823  Zn1894  1.948   .     S
O1823  C1108   1.265   1_655 A
O1824  Zn1893  1.948   .     S
O1825  Zn1903  1.948   .     S
O1826  Zn1902  1.948   .     S
O1827  Zn1897  1.948   .     S
O1828  Zn1889  1.948   .     S
O1829  Zn1899  1.948   .     S
O1830  Zn1898  1.948   .     S
O1831  Zn1901  1.948   .     S
O1832  Zn1897  1.932   .     S
O1832  Zn1901  1.932   .     S
O1832  Zn1895  1.932   .     S
O1833  Zn1900  1.948   .     S
O1834  Zn1892  1.911   .     S
O1835  Zn1891  1.911   .     S
O1836  Zn1894  1.911   .     S
O1837  Zn1893  1.911   .     S
O1838  Zn1896  1.911   .     S
O1839  Zn1895  1.911   .     S
O1840  Zn1890  1.911   .     S
O1841  Zn1904  1.911   .     S
O1842  Zn1891  1.911   .     S
O1843  Zn1898  1.932   .     S
O1843  Zn1902  1.932   .     S
O1843  Zn1890  1.932   .     S
O1844  Zn1892  1.911   .     S
O1845  Zn1904  1.911   .     S
O1846  Zn1890  1.911   .     S
O1847  Zn1895  1.911   .     S
O1848  Zn1896  1.911   .     S
O1849  Zn1893  1.911   .     S
O1850  Zn1894  1.911   .     S
O1851  Zn1423  1.911   1_655 S
O1852  Zn1898  1.911   .     S
O1853  Zn949   1.911   1_565 S
O1854  Zn1893  1.932   .     S
O1854  Zn1899  1.932   .     S
O1854  Zn1903  1.932   .     S
O1855  Zn1900  1.911   .     S
O1856  Zn1903  1.911   .     S
O1857  Zn1426  1.911   1_655 S
O1858  Zn1897  1.911   .     S
O1859  Zn937   1.911   1_565 S
O1860  Zn1422  1.911   1_655 S
O1861  Zn1899  1.911   .     S
O1862  Zn1889  1.911   .     S
O1863  Zn945   1.911   1_565 S
O1864  Zn1902  1.911   .     S
O1865  Zn1896  1.948   .     S
O1865  C477    1.265   1_565 S
O1866  Zn1427  1.911   1_655 S
O1867  Zn948   1.911   1_565 S
O1868  Zn1901  1.911   .     S
O1876  Zn1895  1.948   .     S
O1886  Zn1890  1.948   .     S
O1887  Zn1904  1.948   .     S
O1887  C1119   1.265   1_655 S
O1888  Zn1892  1.948   .     S
Zn1891 O880    1.932   1_565 S
Zn1894 O1367   1.932   1_655 S
Zn1896 O869    1.932   1_565 S
Zn1904 O1378   1.932   1_655 S
