data_str_m1_o1_o17_pcu_sym.142
_audit_creation_date              2020-01-03
_audit_creation_method            'Materials Studio'
_symmetry_space_group_name_H-M    'P1'
_symmetry_Int_Tables_number       1
_symmetry_cell_setting            triclinic
loop_
_symmetry_equiv_pos_as_xyz
  x,y,z
_cell_length_a                    36.7118
_cell_length_b                    36.6413
_cell_length_c                    34.3285
_cell_angle_alpha                 90.0520
_cell_angle_beta                  89.8076
_cell_angle_gamma                 90.3075
loop_
_atom_site_label
_atom_site_type_symbol
_atom_site_fract_x
_atom_site_fract_y
_atom_site_fract_z
_atom_site_U_iso_or_equiv
_atom_site_adp_type
_atom_site_occupancy
C1     C     0.46915   0.26292   0.41832   0.00000  Uiso   1.00
C2     C     0.28048   0.48935   0.08110   0.00000  Uiso   1.00
C3     C     0.22242   0.01905   0.54110   0.00000  Uiso   1.00
C4     C     0.46838   0.26400   0.45918   0.00000  Uiso   1.00
C5     C     0.03034   0.23773   0.54040   0.00000  Uiso   1.00
C6     C     0.22118   0.01703   0.45917   0.00000  Uiso   1.00
C7     C     0.27580   0.47804   0.54092   0.00000  Uiso   1.00
C8     C     0.28231   0.49356   0.95899   0.00000  Uiso   1.00
C9     C     0.22019   0.01801   0.04107   0.00000  Uiso   1.00
C10    C     0.02289   0.22475   0.95895   0.00000  Uiso   1.00
C11    C     0.47471   0.27174   0.04100   0.00000  Uiso   1.00
C12    C     0.21886   0.01566   0.95916   0.00000  Uiso   1.00
C13    C     0.47538   0.27131   0.91843   0.00000  Uiso   1.00
C14    C     0.28091   0.48937   0.04033   0.00000  Uiso   1.00
C15    C     0.47287   0.26952   0.95920   0.00000  Uiso   1.00
C16    C     0.02125   0.22313   0.04092   0.00000  Uiso   1.00
C17    C     0.09764   0.34820   0.24985   0.00000  Uiso   1.00
C18    C     0.40169   0.15199   0.75013   0.00000  Uiso   1.00
C19    C     0.15102   0.09759   0.25150   0.00000  Uiso   1.00
C20    C     0.34784   0.40182   0.74951   0.00000  Uiso   1.00
C21    C     0.40190   0.15232   0.24991   0.00000  Uiso   1.00
C22    C     0.09854   0.34815   0.75022   0.00000  Uiso   1.00
C23    C     0.34852   0.40193   0.25024   0.00000  Uiso   1.00
C24    C     0.02145   0.22473   0.08180   0.00000  Uiso   1.00
C25    C     0.15205   0.09806   0.75025   0.00000  Uiso   1.00
C26    C     0.09803   0.15152   0.74941   0.00000  Uiso   1.00
C27    C     0.40218   0.34814   0.24987   0.00000  Uiso   1.00
C28    C     0.15215   0.40213   0.75009   0.00000  Uiso   1.00
C29    C     0.34793   0.09866   0.24993   0.00000  Uiso   1.00
C30    C     0.40110   0.34763   0.75174   0.00000  Uiso   1.00
C31    C     0.09773   0.15176   0.24975   0.00000  Uiso   1.00
C32    C     0.34791   0.09813   0.75002   0.00000  Uiso   1.00
C33    C     0.15279   0.40067   0.24954   0.00000  Uiso   1.00
C34    C     0.00001   0.25270   0.47956   0.00000  Uiso   1.00
C35    C     0.28112   0.49173   0.91841   0.00000  Uiso   1.00
C36    C     0.00007   0.25256   0.52029   0.00000  Uiso   1.00
C37    C     0.24927   0.49868   0.47963   0.00000  Uiso   1.00
C38    C     0.24917   0.49860   0.52048   0.00000  Uiso   1.00
C39    C     0.25052   0.00445   0.97953   0.00000  Uiso   1.00
C40    C     0.25060   0.00419   0.02027   0.00000  Uiso   1.00
C41    C     0.49787   0.24713   0.97962   0.00000  Uiso   1.00
C42    C     0.49792   0.24729   0.02044   0.00000  Uiso   1.00
C43    C     0.10090   0.23132   0.45897   0.00000  Uiso   1.00
C44    C     0.11109   0.26920   0.44328   0.00000  Uiso   1.00
C45    C     0.41128   0.30430   0.54269   0.00000  Uiso   1.00
C46    C     0.22031   0.01551   0.08187   0.00000  Uiso   1.00
C47    C     0.37929   0.28112   0.55720   0.00000  Uiso   1.00
C48    C     0.34012   0.45035   0.45773   0.00000  Uiso   1.00
C49    C     0.33688   0.41123   0.44267   0.00000  Uiso   1.00
C50    C     0.16716   0.06161   0.54300   0.00000  Uiso   1.00
C51    C     0.18499   0.09726   0.55640   0.00000  Uiso   1.00
C52    C     0.40165   0.28472   0.45800   0.00000  Uiso   1.00
C53    C     0.38321   0.24935   0.44454   0.00000  Uiso   1.00
C54    C     0.08665   0.19668   0.53917   0.00000  Uiso   1.00
C55    C     0.06699   0.16204   0.55308   0.00000  Uiso   1.00
C56    C     0.15736   0.04430   0.45790   0.00000  Uiso   1.00
C57    C     0.02220   0.22549   0.91802   0.00000  Uiso   1.00
C58    C     0.15826   0.08411   0.44480   0.00000  Uiso   1.00
C59    C     0.32746   0.43106   0.54200   0.00000  Uiso   1.00
C60    C     0.30604   0.39739   0.55546   0.00000  Uiso   1.00
C61    C     0.35157   0.48466   0.95890   0.00000  Uiso   1.00
C62    C     0.36067   0.02271   0.94296   0.00000  Uiso   1.00
C63    C     0.16232   0.05643   0.04286   0.00000  Uiso   1.00
C64    C     0.12975   0.03382   0.05685   0.00000  Uiso   1.00
C65    C     0.07874   0.18320   0.95755   0.00000  Uiso   1.00
C66    C     0.06792   0.14526   0.94290   0.00000  Uiso   1.00
C67    C     0.42569   0.32140   0.04273   0.00000  Uiso   1.00
C68    C     0.47684   0.27269   0.08184   0.00000  Uiso   1.00
C69    C     0.44823   0.35469   0.05497   0.00000  Uiso   1.00
C70    C     0.15251   0.03752   0.95801   0.00000  Uiso   1.00
C71    C     0.13310   0.00253   0.94496   0.00000  Uiso   1.00
C72    C     0.33797   0.44935   0.03888   0.00000  Uiso   1.00
C73    C     0.31907   0.41413   0.05225   0.00000  Uiso   1.00
C74    C     0.41265   0.30383   0.95816   0.00000  Uiso   1.00
C75    C     0.41714   0.34331   0.94478   0.00000  Uiso   1.00
C76    C     0.06409   0.16799   0.04240   0.00000  Uiso   1.00
C77    C     0.03736   0.13905   0.05753   0.00000  Uiso   1.00
C78    C     0.11851   0.43047   0.16417   0.00000  Uiso   1.00
C79    C     0.49985   0.25095   0.39828   0.00000  Uiso   1.00
C80    C     0.11823   0.42599   0.11991   0.00000  Uiso   1.00
C81    C     0.08758   0.44779   0.10137   0.00000  Uiso   1.00
C82    C     0.31474   0.11875   0.83016   0.00000  Uiso   1.00
C83    C     0.29722   0.10126   0.86606   0.00000  Uiso   1.00
C84    C     0.26086   0.11900   0.87604   0.00000  Uiso   1.00
C85    C     0.03447   0.09173   0.25887   0.00000  Uiso   1.00
C86    C     0.49493   0.08495   0.24667   0.00000  Uiso   1.00
C87    C     0.47369   0.06405   0.27779   0.00000  Uiso   1.00
C88    C     0.43844   0.38830   0.82369   0.00000  Uiso   1.00
C89    C     0.42942   0.42514   0.84277   0.00000  Uiso   1.00
C90    C     0.00010   0.25103   0.60165   0.00000  Uiso   1.00
C91    C     0.43162   0.42350   0.88710   0.00000  Uiso   1.00
C92    C     0.39674   0.05958   0.17896   0.00000  Uiso   1.00
C93    C     0.40283   0.05265   0.13550   0.00000  Uiso   1.00
C94    C     0.44095   0.03794   0.12752   0.00000  Uiso   1.00
C95    C     0.17118   0.39619   0.83778   0.00000  Uiso   1.00
C96    C     0.15817   0.36721   0.86689   0.00000  Uiso   1.00
C97    C     0.18858   0.35605   0.89457   0.00000  Uiso   1.00
C98    C     0.46480   0.41149   0.24994   0.00000  Uiso   1.00
C99    C     0.00253   0.42022   0.23315   0.00000  Uiso   1.00
C100   C     0.02517   0.44355   0.26093   0.00000  Uiso   1.00
C101   C     0.25004   0.49989   0.39817   0.00000  Uiso   1.00
C102   C     0.05715   0.10271   0.82091   0.00000  Uiso   1.00
C103   C     0.02880   0.07362   0.83165   0.00000  Uiso   1.00
C104   C     0.03257   0.06136   0.87392   0.00000  Uiso   1.00
C105   C     0.09152   0.03537   0.74431   0.00000  Uiso   1.00
C106   C     0.08323   0.49645   0.75766   0.00000  Uiso   1.00
C107   C     0.06420   0.47429   0.72603   0.00000  Uiso   1.00
C108   C     0.38378   0.44079   0.17507   0.00000  Uiso   1.00
C109   C     0.41892   0.43362   0.15210   0.00000  Uiso   1.00
C110   C     0.41437   0.44209   0.10896   0.00000  Uiso   1.00
C111   C     0.05304   0.39006   0.81675   0.00000  Uiso   1.00
C112   C     0.03015   0.23828   0.58116   0.00000  Uiso   1.00
C113   C     0.24992   0.49966   0.60187   0.00000  Uiso   1.00
C114   C     0.06247   0.42589   0.83764   0.00000  Uiso   1.00
C115   C     0.02879   0.44921   0.84432   0.00000  Uiso   1.00
C116   C     0.39798   0.17231   0.16312   0.00000  Uiso   1.00
C117   C     0.36726   0.16212   0.13500   0.00000  Uiso   1.00
C118   C     0.35520   0.19504   0.11118   0.00000  Uiso   1.00
C119   C     0.41304   0.46114   0.73528   0.00000  Uiso   1.00
C120   C     0.42382   0.00055   0.74448   0.00000  Uiso   1.00
C121   C     0.44657   0.01728   0.71173   0.00000  Uiso   1.00
C122   C     0.09754   0.05317   0.18462   0.00000  Uiso   1.00
C123   C     0.06459   0.02767   0.17989   0.00000  Uiso   1.00
C124   C     0.25001   0.00171   0.89827   0.00000  Uiso   1.00
C125   C     0.04363   0.03548   0.14253   0.00000  Uiso   1.00
C126   C     0.42222   0.13385   0.84127   0.00000  Uiso   1.00
C127   C     0.43399   0.15481   0.87771   0.00000  Uiso   1.00
C128   C     0.46568   0.13631   0.89819   0.00000  Uiso   1.00
C129   C     0.11197   0.32291   0.16508   0.00000  Uiso   1.00
C130   C     0.09334   0.30947   0.12794   0.00000  Uiso   1.00
C131   C     0.11020   0.27407   0.11316   0.00000  Uiso   1.00
C132   C     0.37925   0.16967   0.65617   0.00000  Uiso   1.00
C133   C     0.38523   0.15833   0.61371   0.00000  Uiso   1.00
C134   C     0.35570   0.17314   0.58696   0.00000  Uiso   1.00
C135   C     0.25021   0.00156   0.10162   0.00000  Uiso   1.00
C136   C     0.07207   0.36052   0.33431   0.00000  Uiso   1.00
C137   C     0.08253   0.39338   0.35961   0.00000  Uiso   1.00
C138   C     0.04946   0.40877   0.38094   0.00000  Uiso   1.00
C139   C     0.28524   0.34154   0.76448   0.00000  Uiso   1.00
C140   C     0.24663   0.33023   0.75298   0.00000  Uiso   1.00
C141   C     0.22676   0.31090   0.78618   0.00000  Uiso   1.00
C142   C     0.18717   0.13561   0.32608   0.00000  Uiso   1.00
C143   C     0.17711   0.17146   0.34663   0.00000  Uiso   1.00
C144   C     0.18017   0.16846   0.39081   0.00000  Uiso   1.00
C145   C     0.14131   0.30183   0.68582   0.00000  Uiso   1.00
C146   C     0.49957   0.24935   0.89822   0.00000  Uiso   1.00
C147   C     0.17889   0.31136   0.66890   0.00000  Uiso   1.00
C148   C     0.20250   0.27752   0.66432   0.00000  Uiso   1.00
C149   C     0.42059   0.14656   0.33742   0.00000  Uiso   1.00
C150   C     0.40786   0.11672   0.36565   0.00000  Uiso   1.00
C151   C     0.43883   0.10414   0.39187   0.00000  Uiso   1.00
C152   C     0.21317   0.16291   0.75328   0.00000  Uiso   1.00
C153   C     0.25235   0.17024   0.74002   0.00000  Uiso   1.00
C154   C     0.27243   0.19534   0.76829   0.00000  Uiso   1.00
C155   C     0.31157   0.36414   0.32639   0.00000  Uiso   1.00
C156   C     0.31393   0.32694   0.34676   0.00000  Uiso   1.00
C157   C     0.49984   0.24947   0.10179   0.00000  Uiso   1.00
C158   C     0.30863   0.33011   0.39072   0.00000  Uiso   1.00
C159   C     0.34051   0.28655   0.24391   0.00000  Uiso   1.00
C160   C     0.33033   0.24809   0.25734   0.00000  Uiso   1.00
C161   C     0.31098   0.22653   0.22545   0.00000  Uiso   1.00
C162   C     0.13352   0.18872   0.67417   0.00000  Uiso   1.00
C163   C     0.16832   0.17897   0.65169   0.00000  Uiso   1.00
C164   C     0.16435   0.18639   0.60824   0.00000  Uiso   1.00
C165   C     0.30196   0.14062   0.31580   0.00000  Uiso   1.00
C166   C     0.31083   0.17660   0.33665   0.00000  Uiso   1.00
C167   C     0.27678   0.19954   0.34297   0.00000  Uiso   1.00
C168   C     0.06366   0.23127   0.47938   0.00000  Uiso   1.00
C169   C     0.14675   0.42188   0.66303   0.00000  Uiso   1.00
C170   C     0.11554   0.41045   0.63606   0.00000  Uiso   1.00
C171   C     0.10302   0.44226   0.61084   0.00000  Uiso   1.00
C172   C     0.16054   0.21248   0.23974   0.00000  Uiso   1.00
C173   C     0.16878   0.25224   0.25011   0.00000  Uiso   1.00
C174   C     0.18948   0.27165   0.21750   0.00000  Uiso   1.00
C175   C     0.34773   0.29683   0.69294   0.00000  Uiso   1.00
C176   C     0.32557   0.26155   0.68951   0.00000  Uiso   1.00
C177   C     0.31529   0.25362   0.64736   0.00000  Uiso   1.00
C178   C     0.19343   0.36098   0.31959   0.00000  Uiso   1.00
C179   C     0.43948   0.28152   0.52083   0.00000  Uiso   1.00
C180   C     0.18125   0.32462   0.33784   0.00000  Uiso   1.00
C181   C     0.21354   0.29999   0.34651   0.00000  Uiso   1.00
C182   C     0.36861   0.06647   0.66874   0.00000  Uiso   1.00
C183   C     0.35135   0.04965   0.63242   0.00000  Uiso   1.00
C184   C     0.37146   0.01539   0.61945   0.00000  Uiso   1.00
C185   C     0.30579   0.46237   0.47935   0.00000  Uiso   1.00
C186   C     0.19423   0.03756   0.52077   0.00000  Uiso   1.00
C187   C     0.43723   0.27696   0.47976   0.00000  Uiso   1.00
C188   C     0.22316   0.01853   0.41831   0.00000  Uiso   1.00
C189   C     0.06043   0.22321   0.51953   0.00000  Uiso   1.00
C190   C     0.19196   0.03367   0.47965   0.00000  Uiso   1.00
C191   C     0.30287   0.45797   0.52036   0.00000  Uiso   1.00
C192   C     0.31434   0.48370   0.97929   0.00000  Uiso   1.00
C193   C     0.19015   0.03332   0.02088   0.00000  Uiso   1.00
C194   C     0.04753   0.20182   0.97930   0.00000  Uiso   1.00
C195   C     0.44912   0.29370   0.02067   0.00000  Uiso   1.00
C196   C     0.18789   0.02900   0.97978   0.00000  Uiso   1.00
C197   C     0.31125   0.47546   0.01939   0.00000  Uiso   1.00
C198   C     0.44613   0.28985   0.97966   0.00000  Uiso   1.00
C199   C     0.27516   0.47874   0.58184   0.00000  Uiso   1.00
C200   C     0.04425   0.19843   0.02043   0.00000  Uiso   1.00
C201   C     0.25008   0.00000   0.35586   0.00000  Uiso   1.00
C202   C     0.25007   0.49995   0.64416   0.00000  Uiso   1.00
C203   C     0.49994   0.25009   0.35589   0.00000  Uiso   1.00
C204   C     0.00004   0.25016   0.64408   0.00000  Uiso   1.00
C205   C     0.00001   0.24993   0.85588   0.00000  Uiso   1.00
C206   C     0.00016   0.24993   0.14413   0.00000  Uiso   1.00
C207   C     0.24995   0.00021   0.85589   0.00000  Uiso   1.00
C208   C     0.25005   0.00023   0.14407   0.00000  Uiso   1.00
C209   C     0.17964   0.06986   0.25053   0.00000  Uiso   1.00
C210   C     0.03077   0.24039   0.41841   0.00000  Uiso   1.00
C211   C     0.32004   0.43002   0.74975   0.00000  Uiso   1.00
C212   C     0.43005   0.18005   0.25003   0.00000  Uiso   1.00
C213   C     0.07019   0.32006   0.75009   0.00000  Uiso   1.00
C214   C     0.32021   0.42996   0.25011   0.00000  Uiso   1.00
C215   C     0.18004   0.07008   0.75013   0.00000  Uiso   1.00
C216   C     0.06981   0.32007   0.25004   0.00000  Uiso   1.00
C217   C     0.42990   0.18004   0.75013   0.00000  Uiso   1.00
C218   C     0.18009   0.43004   0.75005   0.00000  Uiso   1.00
C219   C     0.32006   0.07015   0.25003   0.00000  Uiso   1.00
C220   C     0.42963   0.31984   0.75063   0.00000  Uiso   1.00
C221   C     0.47011   0.26475   0.58187   0.00000  Uiso   1.00
C222   C     0.06999   0.17999   0.24984   0.00000  Uiso   1.00
C223   C     0.31997   0.06998   0.74996   0.00000  Uiso   1.00
C224   C     0.18022   0.42963   0.24983   0.00000  Uiso   1.00
C225   C     0.07001   0.17979   0.74978   0.00000  Uiso   1.00
C226   C     0.43002   0.32004   0.24997   0.00000  Uiso   1.00
C227   C     0.13437   0.39242   0.21466   0.00000  Uiso   1.00
C228   C     0.36044   0.11225   0.78567   0.00000  Uiso   1.00
C229   C     0.08870   0.11585   0.23861   0.00000  Uiso   1.00
C230   C     0.40910   0.38331   0.76509   0.00000  Uiso   1.00
C231   C     0.37004   0.10373   0.21664   0.00000  Uiso   1.00
C232   C     0.27648   0.48052   0.41804   0.00000  Uiso   1.00
C233   C     0.13314   0.39431   0.78470   0.00000  Uiso   1.00
C234   C     0.41060   0.38338   0.23616   0.00000  Uiso   1.00
C235   C     0.09049   0.11700   0.76593   0.00000  Uiso   1.00
C236   C     0.11661   0.08947   0.76316   0.00000  Uiso   1.00
C237   C     0.38286   0.40909   0.23284   0.00000  Uiso   1.00
C238   C     0.10369   0.37027   0.78360   0.00000  Uiso   1.00
C239   C     0.39418   0.13320   0.21537   0.00000  Uiso   1.00
C240   C     0.38374   0.41102   0.75946   0.00000  Uiso   1.00
C241   C     0.11615   0.08939   0.23635   0.00000  Uiso   1.00
C242   C     0.38814   0.13860   0.78582   0.00000  Uiso   1.00
C243   C     0.22396   0.01958   0.58201   0.00000  Uiso   1.00
C244   C     0.10850   0.36423   0.21443   0.00000  Uiso   1.00
C245   C     0.38802   0.13910   0.71437   0.00000  Uiso   1.00
C246   C     0.11444   0.35812   0.28497   0.00000  Uiso   1.00
C247   C     0.33836   0.36544   0.74078   0.00000  Uiso   1.00
C248   C     0.15843   0.13266   0.26695   0.00000  Uiso   1.00
C249   C     0.12085   0.35327   0.71692   0.00000  Uiso   1.00
C250   C     0.38250   0.14483   0.28439   0.00000  Uiso   1.00
C251   C     0.16049   0.13337   0.73692   0.00000  Uiso   1.00
C252   C     0.34149   0.36754   0.26752   0.00000  Uiso   1.00
C253   C     0.36699   0.33979   0.26342   0.00000  Uiso   1.00
C254   C     0.21942   0.01403   0.91829   0.00000  Uiso   1.00
C255   C     0.13265   0.15881   0.73281   0.00000  Uiso   1.00
C256   C     0.35296   0.12094   0.28321   0.00000  Uiso   1.00
C257   C     0.14446   0.38303   0.71557   0.00000  Uiso   1.00
C258   C     0.13322   0.16049   0.26177   0.00000  Uiso   1.00
C259   C     0.36558   0.33871   0.73920   0.00000  Uiso   1.00
C260   C     0.14472   0.38114   0.28406   0.00000  Uiso   1.00
C261   C     0.36186   0.11107   0.71441   0.00000  Uiso   1.00
C262   C     0.03180   0.24170   0.45904   0.00000  Uiso   1.00
C263   C     0.46972   0.26662   0.54105   0.00000  Uiso   1.00
C264   C     0.27754   0.48055   0.45897   0.00000  Uiso   1.00
H265   H     0.44633   0.27196   0.40122   0.00000  Uiso   1.00
H266   H     0.30360   0.47978   0.09750   0.00000  Uiso   1.00
H267   H     0.11456   0.39670   0.11244   0.00000  Uiso   1.00
H268   H     0.06068   0.43791   0.11204   0.00000  Uiso   1.00
H269   H     0.08864   0.44461   0.06922   0.00000  Uiso   1.00
H270   H     0.09068   0.47710   0.10861   0.00000  Uiso   1.00
H271   H     0.29467   0.11783   0.80587   0.00000  Uiso   1.00
H272   H     0.32159   0.14773   0.83688   0.00000  Uiso   1.00
H273   H     0.29259   0.07173   0.86047   0.00000  Uiso   1.00
H274   H     0.31594   0.10397   0.89130   0.00000  Uiso   1.00
H275   H     0.26480   0.14852   0.88220   0.00000  Uiso   1.00
H276   H     0.24900   0.10568   0.90226   0.00000  Uiso   1.00
H277   H     0.45848   0.28944   0.90161   0.00000  Uiso   1.00
H278   H     0.24146   0.11570   0.85149   0.00000  Uiso   1.00
H279   H     0.03455   0.11061   0.28438   0.00000  Uiso   1.00
H280   H     0.04694   0.06531   0.26750   0.00000  Uiso   1.00
H281   H     0.48148   0.11153   0.24146   0.00000  Uiso   1.00
H282   H     0.49417   0.06914   0.21905   0.00000  Uiso   1.00
H283   H     0.48511   0.03626   0.28140   0.00000  Uiso   1.00
H284   H     0.44470   0.06154   0.26893   0.00000  Uiso   1.00
H285   H     0.47501   0.07869   0.30603   0.00000  Uiso   1.00
H286   H     0.46506   0.37891   0.83501   0.00000  Uiso   1.00
H287   H     0.41808   0.36716   0.83281   0.00000  Uiso   1.00
H288   H     0.03906   0.20768   0.09902   0.00000  Uiso   1.00
H289   H     0.44845   0.44643   0.83175   0.00000  Uiso   1.00
H290   H     0.40123   0.43319   0.83541   0.00000  Uiso   1.00
H291   H     0.40855   0.40711   0.89863   0.00000  Uiso   1.00
H292   H     0.42953   0.45150   0.89928   0.00000  Uiso   1.00
H293   H     0.45768   0.41133   0.89677   0.00000  Uiso   1.00
H294   H     0.39183   0.03306   0.19384   0.00000  Uiso   1.00
H295   H     0.42226   0.07146   0.19140   0.00000  Uiso   1.00
H296   H     0.38206   0.03291   0.12478   0.00000  Uiso   1.00
H297   H     0.39964   0.07855   0.11911   0.00000  Uiso   1.00
H298   H     0.46169   0.05911   0.13450   0.00000  Uiso   1.00
H299   H     0.30405   0.48146   0.90198   0.00000  Uiso   1.00
H300   H     0.44362   0.03058   0.09627   0.00000  Uiso   1.00
H301   H     0.44616   0.01340   0.14551   0.00000  Uiso   1.00
H302   H     0.18566   0.41817   0.85393   0.00000  Uiso   1.00
H303   H     0.19146   0.38436   0.81714   0.00000  Uiso   1.00
H304   H     0.13511   0.37817   0.88434   0.00000  Uiso   1.00
H305   H     0.14845   0.34273   0.85078   0.00000  Uiso   1.00
H306   H     0.21219   0.34521   0.87805   0.00000  Uiso   1.00
H307   H     0.17842   0.33448   0.91460   0.00000  Uiso   1.00
H308   H     0.19761   0.37985   0.91222   0.00000  Uiso   1.00
H309   H     0.46811   0.39513   0.27705   0.00000  Uiso   1.00
H310   H     0.19721   0.02409   0.09903   0.00000  Uiso   1.00
H311   H     0.45086   0.43760   0.25705   0.00000  Uiso   1.00
H312   H     0.01721   0.39436   0.22720   0.00000  Uiso   1.00
H313   H     0.49949   0.43513   0.20517   0.00000  Uiso   1.00
H314   H     0.01166   0.47017   0.26615   0.00000  Uiso   1.00
H315   H     0.05246   0.44872   0.24792   0.00000  Uiso   1.00
H316   H     0.02877   0.42923   0.28909   0.00000  Uiso   1.00
H317   H     0.05029   0.12860   0.83610   0.00000  Uiso   1.00
H318   H     0.08427   0.09376   0.83184   0.00000  Uiso   1.00
H319   H     0.00104   0.08468   0.82697   0.00000  Uiso   1.00
H320   H     0.03220   0.04948   0.81241   0.00000  Uiso   1.00
H321   H     0.03914   0.20779   0.90061   0.00000  Uiso   1.00
H322   H     0.05928   0.04790   0.87836   0.00000  Uiso   1.00
H323   H     0.01058   0.04152   0.88107   0.00000  Uiso   1.00
H324   H     0.03040   0.08499   0.89398   0.00000  Uiso   1.00
H325   H     0.11029   0.03420   0.71873   0.00000  Uiso   1.00
H326   H     0.06554   0.04858   0.73556   0.00000  Uiso   1.00
H327   H     0.10906   0.48274   0.76561   0.00000  Uiso   1.00
H328   H     0.06545   0.49735   0.78386   0.00000  Uiso   1.00
H329   H     0.03722   0.48627   0.71942   0.00000  Uiso   1.00
H330   H     0.06016   0.44579   0.73618   0.00000  Uiso   1.00
H331   H     0.08094   0.47390   0.69910   0.00000  Uiso   1.00
H332   H     0.45996   0.29044   0.09923   0.00000  Uiso   1.00
H333   H     0.37298   0.46786   0.16639   0.00000  Uiso   1.00
H334   H     0.36244   0.42035   0.16688   0.00000  Uiso   1.00
H335   H     0.44141   0.45060   0.16405   0.00000  Uiso   1.00
H336   H     0.42644   0.40444   0.15468   0.00000  Uiso   1.00
H337   H     0.39385   0.42334   0.09612   0.00000  Uiso   1.00
H338   H     0.44075   0.43826   0.09362   0.00000  Uiso   1.00
H339   H     0.40551   0.47068   0.10473   0.00000  Uiso   1.00
H340   H     0.03043   0.37656   0.83286   0.00000  Uiso   1.00
H341   H     0.04252   0.39580   0.78690   0.00000  Uiso   1.00
H342   H     0.07538   0.41993   0.86615   0.00000  Uiso   1.00
H343   H     0.09241   0.27835   0.42001   0.00000  Uiso   1.00
H344   H     0.08175   0.44196   0.81961   0.00000  Uiso   1.00
H345   H     0.01493   0.45474   0.81623   0.00000  Uiso   1.00
H346   H     0.03691   0.47563   0.85765   0.00000  Uiso   1.00
H347   H     0.00978   0.43505   0.86443   0.00000  Uiso   1.00
H348   H     0.42038   0.18546   0.14628   0.00000  Uiso   1.00
H349   H     0.38827   0.19315   0.18441   0.00000  Uiso   1.00
H350   H     0.37680   0.14052   0.11474   0.00000  Uiso   1.00
H351   H     0.34357   0.15139   0.15174   0.00000  Uiso   1.00
H352   H     0.34544   0.21716   0.13065   0.00000  Uiso   1.00
H353   H     0.33264   0.18688   0.09151   0.00000  Uiso   1.00
H354   H     0.11066   0.28953   0.46730   0.00000  Uiso   1.00
H355   H     0.37820   0.20550   0.09318   0.00000  Uiso   1.00
H356   H     0.39597   0.46083   0.70847   0.00000  Uiso   1.00
H357   H     0.43832   0.44515   0.73001   0.00000  Uiso   1.00
H358   H     0.39884   0.01708   0.74890   0.00000  Uiso   1.00
H359   H     0.43987   0.00128   0.77189   0.00000  Uiso   1.00
H360   H     0.47270   0.00245   0.70858   0.00000  Uiso   1.00
H361   H     0.45257   0.04632   0.71856   0.00000  Uiso   1.00
H362   H     0.43161   0.01591   0.68373   0.00000  Uiso   1.00
H363   H     0.12061   0.04206   0.16731   0.00000  Uiso   1.00
H364   H     0.09128   0.08046   0.17194   0.00000  Uiso   1.00
H365   H     0.13903   0.26846   0.43079   0.00000  Uiso   1.00
H366   H     0.07383   0.49888   0.17977   0.00000  Uiso   1.00
H367   H     0.04571   0.03086   0.20494   0.00000  Uiso   1.00
H368   H     0.03117   0.06301   0.14405   0.00000  Uiso   1.00
H369   H     0.02164   0.01485   0.13887   0.00000  Uiso   1.00
H370   H     0.06199   0.03430   0.11687   0.00000  Uiso   1.00
H371   H     0.44670   0.12755   0.82329   0.00000  Uiso   1.00
H372   H     0.40924   0.10774   0.85053   0.00000  Uiso   1.00
H373   H     0.44243   0.18295   0.86951   0.00000  Uiso   1.00
H374   H     0.41054   0.15680   0.89815   0.00000  Uiso   1.00
H375   H     0.45850   0.10769   0.90577   0.00000  Uiso   1.00
H376   H     0.05328   0.22874   0.59757   0.00000  Uiso   1.00
H377   H     0.12349   0.22467   0.47884   0.00000  Uiso   1.00
H378   H     0.47235   0.15139   0.92534   0.00000  Uiso   1.00
H379   H     0.49004   0.13661   0.87895   0.00000  Uiso   1.00
H380   H     0.11179   0.30023   0.18669   0.00000  Uiso   1.00
H381   H     0.14070   0.33046   0.15805   0.00000  Uiso   1.00
H382   H     0.06396   0.30469   0.13388   0.00000  Uiso   1.00
H383   H     0.09574   0.33070   0.10496   0.00000  Uiso   1.00
H384   H     0.13965   0.27814   0.10693   0.00000  Uiso   1.00
H385   H     0.09638   0.26541   0.08592   0.00000  Uiso   1.00
H386   H     0.10682   0.25209   0.13518   0.00000  Uiso   1.00
H387   H     0.38497   0.19936   0.65895   0.00000  Uiso   1.00
H388   H     0.10158   0.21069   0.43529   0.00000  Uiso   1.00
H389   H     0.35005   0.16536   0.66417   0.00000  Uiso   1.00
H390   H     0.41228   0.16844   0.60365   0.00000  Uiso   1.00
H391   H     0.38517   0.12810   0.61159   0.00000  Uiso   1.00
H392   H     0.32845   0.16305   0.59630   0.00000  Uiso   1.00
H393   H     0.36084   0.16381   0.55667   0.00000  Uiso   1.00
H394   H     0.35593   0.20335   0.58728   0.00000  Uiso   1.00
H395   H     0.05698   0.34048   0.35263   0.00000  Uiso   1.00
H396   H     0.05294   0.36898   0.31084   0.00000  Uiso   1.00
H397   H     0.10318   0.38498   0.38139   0.00000  Uiso   1.00
H398   H     0.09459   0.41511   0.34096   0.00000  Uiso   1.00
H399   H     0.38894   0.25970   0.57740   0.00000  Uiso   1.00
H400   H     0.02831   0.41730   0.35983   0.00000  Uiso   1.00
H401   H     0.05783   0.43292   0.39837   0.00000  Uiso   1.00
H402   H     0.03773   0.38795   0.40094   0.00000  Uiso   1.00
H403   H     0.28366   0.36227   0.78820   0.00000  Uiso   1.00
H404   H     0.29982   0.31700   0.77535   0.00000  Uiso   1.00
H405   H     0.23104   0.35487   0.74448   0.00000  Uiso   1.00
H406   H     0.24799   0.31151   0.72755   0.00000  Uiso   1.00
H407   H     0.24066   0.28496   0.79347   0.00000  Uiso   1.00
H408   H     0.19834   0.30465   0.77726   0.00000  Uiso   1.00
H409   H     0.22610   0.32856   0.81238   0.00000  Uiso   1.00
H410   H     0.35964   0.29875   0.57299   0.00000  Uiso   1.00
H411   H     0.21389   0.12637   0.33728   0.00000  Uiso   1.00
H412   H     0.16720   0.11368   0.33398   0.00000  Uiso   1.00
H413   H     0.19518   0.19381   0.33611   0.00000  Uiso   1.00
H414   H     0.14850   0.17864   0.33997   0.00000  Uiso   1.00
H415   H     0.15879   0.14974   0.40208   0.00000  Uiso   1.00
H416   H     0.17598   0.19574   0.40417   0.00000  Uiso   1.00
H417   H     0.20740   0.15826   0.39944   0.00000  Uiso   1.00
H418   H     0.12924   0.27965   0.66794   0.00000  Uiso   1.00
H419   H     0.14427   0.29069   0.71591   0.00000  Uiso   1.00
H420   H     0.17568   0.32464   0.64003   0.00000  Uiso   1.00
H421   H     0.36493   0.26777   0.53262   0.00000  Uiso   1.00
H422   H     0.19318   0.33049   0.68872   0.00000  Uiso   1.00
H423   H     0.20470   0.26273   0.69246   0.00000  Uiso   1.00
H424   H     0.23025   0.28571   0.65466   0.00000  Uiso   1.00
H425   H     0.19066   0.25915   0.64201   0.00000  Uiso   1.00
H426   H     0.43466   0.16833   0.35429   0.00000  Uiso   1.00
H427   H     0.44117   0.13550   0.31663   0.00000  Uiso   1.00
H428   H     0.38539   0.12735   0.38417   0.00000  Uiso   1.00
H429   H     0.39745   0.09295   0.34884   0.00000  Uiso   1.00
H430   H     0.46171   0.09337   0.37412   0.00000  Uiso   1.00
H431   H     0.42884   0.08213   0.41145   0.00000  Uiso   1.00
H432   H     0.42384   0.31889   0.56763   0.00000  Uiso   1.00
H433   H     0.44884   0.12719   0.41003   0.00000  Uiso   1.00
H434   H     0.21384   0.14785   0.78149   0.00000  Uiso   1.00
H435   H     0.19922   0.18954   0.75754   0.00000  Uiso   1.00
H436   H     0.26715   0.14394   0.73782   0.00000  Uiso   1.00
H437   H     0.25220   0.18317   0.71073   0.00000  Uiso   1.00
H438   H     0.25963   0.22273   0.76859   0.00000  Uiso   1.00
H439   H     0.30128   0.19836   0.75892   0.00000  Uiso   1.00
H440   H     0.27178   0.18381   0.79819   0.00000  Uiso   1.00
H441   H     0.28647   0.37809   0.33653   0.00000  Uiso   1.00
H442   H     0.33486   0.38191   0.33558   0.00000  Uiso   1.00
H443   H     0.40143   0.32729   0.52465   0.00000  Uiso   1.00
H444   H     0.29302   0.30818   0.33464   0.00000  Uiso   1.00
H445   H     0.34112   0.31481   0.34177   0.00000  Uiso   1.00
H446   H     0.33245   0.34413   0.40383   0.00000  Uiso   1.00
H447   H     0.30650   0.30239   0.40361   0.00000  Uiso   1.00
H448   H     0.28341   0.34538   0.39782   0.00000  Uiso   1.00
H449   H     0.35910   0.28453   0.21825   0.00000  Uiso   1.00
H450   H     0.31516   0.30106   0.23534   0.00000  Uiso   1.00
H451   H     0.35542   0.23333   0.26590   0.00000  Uiso   1.00
H452   H     0.31211   0.25000   0.28317   0.00000  Uiso   1.00
H453   H     0.28518   0.24018   0.21726   0.00000  Uiso   1.00
H454   H     0.33296   0.39168   0.46698   0.00000  Uiso   1.00
H455   H     0.30454   0.19865   0.23619   0.00000  Uiso   1.00
H456   H     0.32874   0.22420   0.19938   0.00000  Uiso   1.00
H457   H     0.12386   0.21574   0.66413   0.00000  Uiso   1.00
H458   H     0.11127   0.16895   0.66690   0.00000  Uiso   1.00
H459   H     0.19169   0.19505   0.66314   0.00000  Uiso   1.00
H460   H     0.17422   0.14951   0.65546   0.00000  Uiso   1.00
H461   H     0.14181   0.16959   0.59629   0.00000  Uiso   1.00
H462   H     0.18998   0.17913   0.59291   0.00000  Uiso   1.00
H463   H     0.15856   0.21566   0.60290   0.00000  Uiso   1.00
H464   H     0.27929   0.12697   0.33166   0.00000  Uiso   1.00
H465   H     0.31350   0.40850   0.42248   0.00000  Uiso   1.00
H466   H     0.29171   0.14617   0.28580   0.00000  Uiso   1.00
H467   H     0.32355   0.17084   0.36532   0.00000  Uiso   1.00
H468   H     0.33019   0.19277   0.31879   0.00000  Uiso   1.00
H469   H     0.26285   0.20458   0.31481   0.00000  Uiso   1.00
H470   H     0.28446   0.22623   0.35602   0.00000  Uiso   1.00
H471   H     0.25788   0.18531   0.36319   0.00000  Uiso   1.00
H472   H     0.16843   0.43515   0.64527   0.00000  Uiso   1.00
H473   H     0.13728   0.44288   0.68423   0.00000  Uiso   1.00
H474   H     0.12474   0.38787   0.61680   0.00000  Uiso   1.00
H475   H     0.09215   0.40052   0.65381   0.00000  Uiso   1.00
H476   H     0.36217   0.40388   0.42674   0.00000  Uiso   1.00
H477   H     0.09363   0.46524   0.62936   0.00000  Uiso   1.00
H478   H     0.08008   0.43324   0.59210   0.00000  Uiso   1.00
H479   H     0.12566   0.45189   0.59182   0.00000  Uiso   1.00
H480   H     0.14301   0.21189   0.21326   0.00000  Uiso   1.00
H481   H     0.18670   0.19829   0.23347   0.00000  Uiso   1.00
H482   H     0.14281   0.26682   0.25569   0.00000  Uiso   1.00
H483   H     0.18539   0.25320   0.27710   0.00000  Uiso   1.00
H484   H     0.21649   0.25878   0.21299   0.00000  Uiso   1.00
H485   H     0.19369   0.30075   0.22549   0.00000  Uiso   1.00
H486   H     0.17382   0.27035   0.18991   0.00000  Uiso   1.00
H487   H     0.20386   0.03386   0.40128   0.00000  Uiso   1.00
H488   H     0.34642   0.46898   0.43313   0.00000  Uiso   1.00
H489   H     0.37342   0.29403   0.67596   0.00000  Uiso   1.00
H490   H     0.33163   0.31940   0.67992   0.00000  Uiso   1.00
H491   H     0.34174   0.23842   0.70108   0.00000  Uiso   1.00
H492   H     0.30027   0.26390   0.70722   0.00000  Uiso   1.00
H493   H     0.29768   0.27562   0.63580   0.00000  Uiso   1.00
H494   H     0.30025   0.22729   0.64571   0.00000  Uiso   1.00
H495   H     0.34022   0.25174   0.62920   0.00000  Uiso   1.00
H496   H     0.21501   0.37316   0.33820   0.00000  Uiso   1.00
H497   H     0.20626   0.35595   0.29054   0.00000  Uiso   1.00
H498   H     0.16609   0.32992   0.36534   0.00000  Uiso   1.00
H499   H     0.36469   0.45350   0.47614   0.00000  Uiso   1.00
H500   H     0.16316   0.30977   0.31735   0.00000  Uiso   1.00
H501   H     0.22930   0.29465   0.31944   0.00000  Uiso   1.00
H502   H     0.20357   0.27351   0.35825   0.00000  Uiso   1.00
H503   H     0.23145   0.31293   0.36856   0.00000  Uiso   1.00
H504   H     0.36812   0.04560   0.69232   0.00000  Uiso   1.00
H505   H     0.39736   0.07417   0.66206   0.00000  Uiso   1.00
H506   H     0.32250   0.04243   0.63874   0.00000  Uiso   1.00
H507   H     0.35179   0.06985   0.60831   0.00000  Uiso   1.00
H508   H     0.40049   0.02183   0.61320   0.00000  Uiso   1.00
H509   H     0.35874   0.00459   0.59249   0.00000  Uiso   1.00
H510   H     0.20938   0.09248   0.57459   0.00000  Uiso   1.00
H511   H     0.36982   0.49410   0.64242   0.00000  Uiso   1.00
H512   H     0.19326   0.11388   0.53079   0.00000  Uiso   1.00
H513   H     0.16505   0.11296   0.57387   0.00000  Uiso   1.00
H514   H     0.14315   0.06963   0.52591   0.00000  Uiso   1.00
H515   H     0.15522   0.04655   0.56804   0.00000  Uiso   1.00
H516   H     0.40090   0.23338   0.42469   0.00000  Uiso   1.00
H517   H     0.37625   0.23211   0.47013   0.00000  Uiso   1.00
H518   H     0.35769   0.25591   0.42882   0.00000  Uiso   1.00
H519   H     0.29479   0.46412   0.59910   0.00000  Uiso   1.00
H520   H     0.38109   0.29913   0.47562   0.00000  Uiso   1.00
H521   H     0.40658   0.30336   0.43307   0.00000  Uiso   1.00
H522   H     0.04719   0.16776   0.57670   0.00000  Uiso   1.00
H523   H     0.05239   0.14902   0.52836   0.00000  Uiso   1.00
H524   H     0.08719   0.14230   0.56445   0.00000  Uiso   1.00
H525   H     0.10804   0.18644   0.51939   0.00000  Uiso   1.00
H526   H     0.10088   0.21037   0.56360   0.00000  Uiso   1.00
H527   H     0.15909   0.10286   0.47013   0.00000  Uiso   1.00
H528   H     0.18250   0.08950   0.42623   0.00000  Uiso   1.00
H529   H     0.13339   0.09005   0.42768   0.00000  Uiso   1.00
H530   H     0.05366   0.23014   0.40190   0.00000  Uiso   1.00
H531   H     0.15291   0.02644   0.43222   0.00000  Uiso   1.00
H532   H     0.13261   0.03859   0.47548   0.00000  Uiso   1.00
H533   H     0.28368   0.40471   0.57574   0.00000  Uiso   1.00
H534   H     0.29419   0.38306   0.52990   0.00000  Uiso   1.00
H535   H     0.32460   0.37834   0.57070   0.00000  Uiso   1.00
H536   H     0.35018   0.42052   0.52428   0.00000  Uiso   1.00
H537   H     0.34120   0.44447   0.56693   0.00000  Uiso   1.00
H538   H     0.34190   0.03104   0.91943   0.00000  Uiso   1.00
H539   H     0.35938   0.04321   0.96679   0.00000  Uiso   1.00
H540   H     0.38873   0.02278   0.93076   0.00000  Uiso   1.00
H541   H     0.44716   0.27365   0.59907   0.00000  Uiso   1.00
H542   H     0.37430   0.47877   0.97887   0.00000  Uiso   1.00
H543   H     0.35283   0.46394   0.93534   0.00000  Uiso   1.00
H544   H     0.11489   0.02151   0.03200   0.00000  Uiso   1.00
H545   H     0.13879   0.01161   0.07642   0.00000  Uiso   1.00
H546   H     0.11074   0.05172   0.07313   0.00000  Uiso   1.00
H547   H     0.17503   0.07040   0.06812   0.00000  Uiso   1.00
H548   H     0.15311   0.07986   0.02508   0.00000  Uiso   1.00
H549   H     0.04510   0.14714   0.92198   0.00000  Uiso   1.00
H550   H     0.09147   0.13251   0.92787   0.00000  Uiso   1.00
H551   H     0.05942   0.12737   0.96738   0.00000  Uiso   1.00
H552   H     0.29605   0.46570   0.40069   0.00000  Uiso   1.00
H553   H     0.08848   0.20010   0.93280   0.00000  Uiso   1.00
H554   H     0.10358   0.18169   0.97572   0.00000  Uiso   1.00
H555   H     0.47203   0.34705   0.07293   0.00000  Uiso   1.00
H556   H     0.45823   0.36954   0.02883   0.00000  Uiso   1.00
H557   H     0.43086   0.37326   0.07232   0.00000  Uiso   1.00
H558   H     0.40261   0.33202   0.02578   0.00000  Uiso   1.00
H559   H     0.41233   0.30849   0.06831   0.00000  Uiso   1.00
H560   H     0.15032   0.48591   0.92526   0.00000  Uiso   1.00
H561   H     0.12574   0.48571   0.97073   0.00000  Uiso   1.00
H562   H     0.10773   0.00964   0.92923   0.00000  Uiso   1.00
H563   H     0.20453   0.03438   0.59950   0.00000  Uiso   1.00
H564   H     0.13244   0.05273   0.97549   0.00000  Uiso   1.00
H565   H     0.15792   0.05578   0.93286   0.00000  Uiso   1.00
H566   H     0.29880   0.41917   0.07559   0.00000  Uiso   1.00
H567   H     0.30515   0.40089   0.02722   0.00000  Uiso   1.00
H568   H     0.33964   0.39488   0.06380   0.00000  Uiso   1.00
H569   H     0.35974   0.43986   0.01913   0.00000  Uiso   1.00
H570   H     0.35171   0.46315   0.06353   0.00000  Uiso   1.00
H571   H     0.44091   0.34620   0.92496   0.00000  Uiso   1.00
H572   H     0.39222   0.35157   0.92892   0.00000  Uiso   1.00
H573   H     0.42095   0.36203   0.96981   0.00000  Uiso   1.00
H574   H     0.19652   0.02281   0.90115   0.00000  Uiso   1.00
H575   H     0.40631   0.28640   0.93258   0.00000  Uiso   1.00
H576   H     0.38770   0.30069   0.97618   0.00000  Uiso   1.00
H577   H     0.01719   0.15072   0.07808   0.00000  Uiso   1.00
H578   H     0.02251   0.12642   0.03276   0.00000  Uiso   1.00
H579   H     0.05259   0.11734   0.07297   0.00000  Uiso   1.00
H580   H     0.08395   0.15293   0.02450   0.00000  Uiso   1.00
H581   H     0.08066   0.17943   0.06650   0.00000  Uiso   1.00
H582   H     0.12535   0.45928   0.17128   0.00000  Uiso   1.00
H583   H     0.09054   0.42481   0.17566   0.00000  Uiso   1.00
H584   H     0.14478   0.43538   0.10774   0.00000  Uiso   1.00
O585   O     0.25000  -0.00000   0.25000   0.00000  Uiso   1.00
O586   O     0.25000   0.46963   0.66245   0.00000  Uiso   1.00
O587   O     0.46963   0.25000   0.33755   0.00000  Uiso   1.00
O588   O     0.03036   0.25000   0.66245   0.00000  Uiso   1.00
O589   O     0.00000   0.21964   0.83755   0.00000  Uiso   1.00
O590   O     0.00000   0.28037   0.16245   0.00000  Uiso   1.00
O591   O     0.28036  -0.00000   0.83755   0.00000  Uiso   1.00
O592   O     0.21963   0.00000   0.16245   0.00000  Uiso   1.00
O593   O     0.00000   0.28037   0.83755   0.00000  Uiso   1.00
O594   O    -0.00000   0.21963   0.16245   0.00000  Uiso   1.00
O595   O     0.21963  -0.00000   0.83755   0.00000  Uiso   1.00
O596   O     0.25000  -0.00000   0.75000   0.00000  Uiso   1.00
O597   O     0.28036  -0.00000   0.16245   0.00000  Uiso   1.00
O598   O     0.20724   0.07307   0.27302   0.00000  Uiso   1.00
O599   O     0.29275   0.42692   0.72698   0.00000  Uiso   1.00
O600   O     0.42692   0.20724   0.27302   0.00000  Uiso   1.00
O601   O     0.07307   0.29276   0.72698   0.00000  Uiso   1.00
O602   O     0.29275   0.42692   0.27302   0.00000  Uiso   1.00
O603   O     0.20724   0.07307   0.72698   0.00000  Uiso   1.00
O604   O     0.07307   0.29276   0.27302   0.00000  Uiso   1.00
O605   O     0.42692   0.20724   0.72698   0.00000  Uiso   1.00
O606   O     0.20724   0.42692   0.72698   0.00000  Uiso   1.00
O607   O     0.00000   0.25000   0.25000   0.00000  Uiso   1.00
O608   O     0.29275   0.07307   0.27302   0.00000  Uiso   1.00
O609   O     0.42692   0.29275   0.72698   0.00000  Uiso   1.00
O610   O     0.07307   0.20725   0.27302   0.00000  Uiso   1.00
O611   O     0.29275   0.07307   0.72698   0.00000  Uiso   1.00
O612   O     0.20724   0.42692   0.27302   0.00000  Uiso   1.00
O613   O     0.07307   0.20725   0.72698   0.00000  Uiso   1.00
O614   O     0.42692   0.29275   0.27302   0.00000  Uiso   1.00
O615   O     0.45724   0.32307   0.77302   0.00000  Uiso   1.00
O616   O     0.04275   0.17693   0.22698   0.00000  Uiso   1.00
O617   O     0.17692   0.45725   0.77302   0.00000  Uiso   1.00
O618   O     0.00000   0.25000   0.75000   0.00000  Uiso   1.00
O619   O     0.32307   0.04275   0.22698   0.00000  Uiso   1.00
O620   O     0.04275   0.17693   0.77302   0.00000  Uiso   1.00
O621   O     0.45724   0.32307   0.22698   0.00000  Uiso   1.00
O622   O     0.32307   0.04275   0.77302   0.00000  Uiso   1.00
O623   O     0.17692   0.45725   0.22698   0.00000  Uiso   1.00
O624   O     0.45724   0.17692   0.22698   0.00000  Uiso   1.00
O625   O     0.04275   0.32308   0.77302   0.00000  Uiso   1.00
O626   O     0.17692   0.04275   0.22698   0.00000  Uiso   1.00
O627   O     0.32307   0.45724   0.77302   0.00000  Uiso   1.00
O628   O     0.04275   0.32308   0.22698   0.00000  Uiso   1.00
O629   O     0.25000   0.46963   0.33755   0.00000  Uiso   1.00
O630   O     0.45724   0.17692   0.77302   0.00000  Uiso   1.00
O631   O     0.32307   0.45724   0.22698   0.00000  Uiso   1.00
O632   O     0.17692   0.04275   0.77302   0.00000  Uiso   1.00
O633   O     0.14590   0.40777   0.17983   0.00000  Uiso   1.00
O634   O     0.34665   0.09931   0.82063   0.00000  Uiso   1.00
O635   O     0.05357   0.10716   0.22709   0.00000  Uiso   1.00
O636   O     0.44202   0.39180   0.78260   0.00000  Uiso   1.00
O637   O     0.36571   0.08206   0.18385   0.00000  Uiso   1.00
O638   O     0.14105   0.41244   0.81911   0.00000  Uiso   1.00
O639   O     0.44503   0.39146   0.22189   0.00000  Uiso   1.00
O640   O     0.25000   0.03036   0.66245   0.00000  Uiso   1.00
O641   O     0.05601   0.10863   0.78010   0.00000  Uiso   1.00
O642   O     0.10783   0.05453   0.77546   0.00000  Uiso   1.00
O643   O     0.39079   0.44244   0.21567   0.00000  Uiso   1.00
O644   O     0.08287   0.36558   0.81699   0.00000  Uiso   1.00
O645   O     0.41247   0.14067   0.18083   0.00000  Uiso   1.00
O646   O     0.39320   0.44693   0.76714   0.00000  Uiso   1.00
O647   O     0.10775   0.05408   0.22445   0.00000  Uiso   1.00
O648   O     0.39755   0.15574   0.82034   0.00000  Uiso   1.00
O649   O     0.09296   0.35351   0.17952   0.00000  Uiso   1.00
O650   O     0.40420   0.15040   0.67980   0.00000  Uiso   1.00
O651   O     0.03036   0.25000   0.33755   0.00000  Uiso   1.00
O652   O     0.10363   0.34285   0.32012   0.00000  Uiso   1.00
O653   O     0.30280   0.35635   0.73141   0.00000  Uiso   1.00
O654   O     0.19108   0.14076   0.28524   0.00000  Uiso   1.00
O655   O     0.11711   0.33186   0.68388   0.00000  Uiso   1.00
O656   O     0.39036   0.16284   0.31891   0.00000  Uiso   1.00
O657   O     0.19540   0.14198   0.72442   0.00000  Uiso   1.00
O658   O     0.30847   0.35964   0.28541   0.00000  Uiso   1.00
O659   O     0.35800   0.30473   0.27495   0.00000  Uiso   1.00
O660   O     0.14043   0.19173   0.71471   0.00000  Uiso   1.00
O661   O     0.33201   0.11643   0.31654   0.00000  Uiso   1.00
O662   O     0.46963   0.25000   0.66245   0.00000  Uiso   1.00
O663   O     0.16238   0.39095   0.68095   0.00000  Uiso   1.00
O664   O     0.14251   0.19598   0.27157   0.00000  Uiso   1.00
O665   O     0.35607   0.30256   0.73267   0.00000  Uiso   1.00
O666   O     0.16440   0.38644   0.31799   0.00000  Uiso   1.00
O667   O     0.34857   0.09766   0.67948   0.00000  Uiso   1.00
O668   O     0.25000   0.03036   0.33755   0.00000  Uiso   1.00
Zn669  Zn    0.20659   0.00000   0.21735   0.00000  Uiso   1.00
Zn670  Zn    0.04340   0.25000   0.28265   0.00000  Uiso   1.00
Zn671  Zn    0.25000   0.45659   0.71735   0.00000  Uiso   1.00
Zn672  Zn    0.25000   0.04340   0.28265   0.00000  Uiso   1.00
Zn673  Zn    0.04340   0.25000   0.71735   0.00000  Uiso   1.00
Zn674  Zn    0.45659   0.25000   0.28265   0.00000  Uiso   1.00
Zn675  Zn    0.25000   0.04340   0.71735   0.00000  Uiso   1.00
Zn676  Zn    0.25000   0.45659   0.28265   0.00000  Uiso   1.00
Zn677  Zn    0.29340  -0.00000   0.78265   0.00000  Uiso   1.00
Zn678  Zn   -0.00000   0.20659   0.21735   0.00000  Uiso   1.00
Zn679  Zn    0.00000   0.29341   0.78265   0.00000  Uiso   1.00
Zn680  Zn    0.29340  -0.00000   0.21735   0.00000  Uiso   1.00
Zn681  Zn    0.20659   0.00000   0.78265   0.00000  Uiso   1.00
Zn682  Zn   -0.00000   0.29340   0.21735   0.00000  Uiso   1.00
Zn683  Zn    0.00000   0.20660   0.78265   0.00000  Uiso   1.00
Zn684  Zn    0.45659   0.25000   0.71735   0.00000  Uiso   1.00
C685   C     0.96915   0.26292   0.41832   0.00000  Uiso   1.00
C686   C     0.78048   0.48935   0.08110   0.00000  Uiso   1.00
C687   C     0.72242   0.01905   0.54110   0.00000  Uiso   1.00
C688   C     0.96838   0.26400   0.45918   0.00000  Uiso   1.00
C689   C     0.53034   0.23773   0.54040   0.00000  Uiso   1.00
C690   C     0.72118   0.01703   0.45917   0.00000  Uiso   1.00
C691   C     0.77580   0.47804   0.54092   0.00000  Uiso   1.00
C692   C     0.78231   0.49356   0.95899   0.00000  Uiso   1.00
C693   C     0.72019   0.01801   0.04107   0.00000  Uiso   1.00
C694   C     0.52289   0.22475   0.95895   0.00000  Uiso   1.00
C695   C     0.97471   0.27174   0.04100   0.00000  Uiso   1.00
C696   C     0.71886   0.01566   0.95916   0.00000  Uiso   1.00
C697   C     0.97538   0.27131   0.91843   0.00000  Uiso   1.00
C698   C     0.78091   0.48937   0.04033   0.00000  Uiso   1.00
C699   C     0.97287   0.26952   0.95920   0.00000  Uiso   1.00
C700   C     0.52125   0.22313   0.04092   0.00000  Uiso   1.00
C701   C     0.59764   0.34820   0.24985   0.00000  Uiso   1.00
C702   C     0.90169   0.15199   0.75013   0.00000  Uiso   1.00
C703   C     0.65102   0.09759   0.25150   0.00000  Uiso   1.00
C704   C     0.84784   0.40182   0.74951   0.00000  Uiso   1.00
C705   C     0.90190   0.15232   0.24991   0.00000  Uiso   1.00
C706   C     0.59854   0.34815   0.75022   0.00000  Uiso   1.00
C707   C     0.84852   0.40193   0.25024   0.00000  Uiso   1.00
C708   C     0.52145   0.22473   0.08180   0.00000  Uiso   1.00
C709   C     0.65205   0.09806   0.75025   0.00000  Uiso   1.00
C710   C     0.59803   0.15152   0.74941   0.00000  Uiso   1.00
C711   C     0.90218   0.34814   0.24987   0.00000  Uiso   1.00
C712   C     0.65215   0.40213   0.75009   0.00000  Uiso   1.00
C713   C     0.84793   0.09866   0.24993   0.00000  Uiso   1.00
C714   C     0.90110   0.34763   0.75174   0.00000  Uiso   1.00
C715   C     0.59773   0.15176   0.24975   0.00000  Uiso   1.00
C716   C     0.84791   0.09813   0.75002   0.00000  Uiso   1.00
C717   C     0.65279   0.40067   0.24954   0.00000  Uiso   1.00
C718   C     0.50001   0.25270   0.47956   0.00000  Uiso   1.00
C719   C     0.78112   0.49173   0.91841   0.00000  Uiso   1.00
C720   C     0.50007   0.25256   0.52029   0.00000  Uiso   1.00
C721   C     0.74927   0.49868   0.47963   0.00000  Uiso   1.00
C722   C     0.74917   0.49860   0.52048   0.00000  Uiso   1.00
C723   C     0.75052   0.00445   0.97953   0.00000  Uiso   1.00
C724   C     0.75060   0.00419   0.02027   0.00000  Uiso   1.00
C725   C     0.99787   0.24713   0.97962   0.00000  Uiso   1.00
C726   C     0.99792   0.24729   0.02044   0.00000  Uiso   1.00
C727   C     0.60090   0.23132   0.45897   0.00000  Uiso   1.00
C728   C     0.61109   0.26920   0.44328   0.00000  Uiso   1.00
C729   C     0.91128   0.30430   0.54269   0.00000  Uiso   1.00
C730   C     0.72031   0.01551   0.08187   0.00000  Uiso   1.00
C731   C     0.87929   0.28112   0.55720   0.00000  Uiso   1.00
C732   C     0.84012   0.45035   0.45773   0.00000  Uiso   1.00
C733   C     0.83688   0.41123   0.44267   0.00000  Uiso   1.00
C734   C     0.66716   0.06161   0.54300   0.00000  Uiso   1.00
C735   C     0.68499   0.09726   0.55640   0.00000  Uiso   1.00
C736   C     0.90165   0.28472   0.45800   0.00000  Uiso   1.00
C737   C     0.88321   0.24935   0.44454   0.00000  Uiso   1.00
C738   C     0.58665   0.19668   0.53917   0.00000  Uiso   1.00
C739   C     0.56699   0.16204   0.55308   0.00000  Uiso   1.00
C740   C     0.65736   0.04430   0.45790   0.00000  Uiso   1.00
C741   C     0.52220   0.22549   0.91802   0.00000  Uiso   1.00
C742   C     0.65826   0.08411   0.44480   0.00000  Uiso   1.00
C743   C     0.82746   0.43106   0.54200   0.00000  Uiso   1.00
C744   C     0.80604   0.39739   0.55546   0.00000  Uiso   1.00
C745   C     0.85157   0.48466   0.95890   0.00000  Uiso   1.00
C746   C     0.86067   0.02271   0.94296   0.00000  Uiso   1.00
C747   C     0.66232   0.05643   0.04286   0.00000  Uiso   1.00
C748   C     0.62975   0.03382   0.05685   0.00000  Uiso   1.00
C749   C     0.57874   0.18320   0.95755   0.00000  Uiso   1.00
C750   C     0.56792   0.14526   0.94290   0.00000  Uiso   1.00
C751   C     0.92569   0.32140   0.04273   0.00000  Uiso   1.00
C752   C     0.97684   0.27269   0.08184   0.00000  Uiso   1.00
C753   C     0.94823   0.35469   0.05497   0.00000  Uiso   1.00
C754   C     0.65251   0.03752   0.95801   0.00000  Uiso   1.00
C755   C     0.63310   0.00253   0.94496   0.00000  Uiso   1.00
C756   C     0.83797   0.44935   0.03888   0.00000  Uiso   1.00
C757   C     0.81907   0.41413   0.05225   0.00000  Uiso   1.00
C758   C     0.91265   0.30383   0.95816   0.00000  Uiso   1.00
C759   C     0.91714   0.34331   0.94478   0.00000  Uiso   1.00
C760   C     0.56409   0.16799   0.04240   0.00000  Uiso   1.00
C761   C     0.53736   0.13905   0.05753   0.00000  Uiso   1.00
C762   C     0.61851   0.43047   0.16417   0.00000  Uiso   1.00
C763   C     0.99985   0.25095   0.39828   0.00000  Uiso   1.00
C764   C     0.61823   0.42599   0.11991   0.00000  Uiso   1.00
C765   C     0.58758   0.44779   0.10137   0.00000  Uiso   1.00
C766   C     0.81474   0.11875   0.83016   0.00000  Uiso   1.00
C767   C     0.79722   0.10126   0.86606   0.00000  Uiso   1.00
C768   C     0.76086   0.11900   0.87604   0.00000  Uiso   1.00
C769   C     0.53447   0.09173   0.25887   0.00000  Uiso   1.00
C770   C     0.99493   0.08495   0.24667   0.00000  Uiso   1.00
C771   C     0.97369   0.06405   0.27779   0.00000  Uiso   1.00
C772   C     0.93844   0.38830   0.82369   0.00000  Uiso   1.00
C773   C     0.92942   0.42514   0.84277   0.00000  Uiso   1.00
C774   C     0.50010   0.25103   0.60165   0.00000  Uiso   1.00
C775   C     0.93162   0.42350   0.88710   0.00000  Uiso   1.00
C776   C     0.89674   0.05958   0.17896   0.00000  Uiso   1.00
C777   C     0.90283   0.05265   0.13550   0.00000  Uiso   1.00
C778   C     0.94095   0.03794   0.12752   0.00000  Uiso   1.00
C779   C     0.67118   0.39619   0.83778   0.00000  Uiso   1.00
C780   C     0.65817   0.36721   0.86689   0.00000  Uiso   1.00
C781   C     0.68858   0.35605   0.89457   0.00000  Uiso   1.00
C782   C     0.96480   0.41149   0.24994   0.00000  Uiso   1.00
C783   C     0.50253   0.42022   0.23315   0.00000  Uiso   1.00
C784   C     0.52517   0.44355   0.26093   0.00000  Uiso   1.00
C785   C     0.75004   0.49989   0.39817   0.00000  Uiso   1.00
C786   C     0.55715   0.10271   0.82091   0.00000  Uiso   1.00
C787   C     0.52880   0.07362   0.83165   0.00000  Uiso   1.00
C788   C     0.53257   0.06136   0.87392   0.00000  Uiso   1.00
C789   C     0.59152   0.03537   0.74431   0.00000  Uiso   1.00
C790   C     0.58323   0.49645   0.75766   0.00000  Uiso   1.00
C791   C     0.56420   0.47429   0.72603   0.00000  Uiso   1.00
C792   C     0.88378   0.44079   0.17507   0.00000  Uiso   1.00
C793   C     0.91892   0.43362   0.15210   0.00000  Uiso   1.00
C794   C     0.91437   0.44209   0.10896   0.00000  Uiso   1.00
C795   C     0.55304   0.39006   0.81675   0.00000  Uiso   1.00
C796   C     0.53015   0.23828   0.58116   0.00000  Uiso   1.00
C797   C     0.74992   0.49966   0.60187   0.00000  Uiso   1.00
C798   C     0.56247   0.42589   0.83764   0.00000  Uiso   1.00
C799   C     0.52879   0.44921   0.84432   0.00000  Uiso   1.00
C800   C     0.89798   0.17231   0.16312   0.00000  Uiso   1.00
C801   C     0.86726   0.16212   0.13500   0.00000  Uiso   1.00
C802   C     0.85520   0.19504   0.11118   0.00000  Uiso   1.00
C803   C     0.91304   0.46114   0.73528   0.00000  Uiso   1.00
C804   C     0.92382   0.00055   0.74448   0.00000  Uiso   1.00
C805   C     0.94657   0.01728   0.71173   0.00000  Uiso   1.00
C806   C     0.59754   0.05317   0.18462   0.00000  Uiso   1.00
C807   C     0.56459   0.02767   0.17989   0.00000  Uiso   1.00
C808   C     0.75001   0.00171   0.89827   0.00000  Uiso   1.00
C809   C     0.54363   0.03548   0.14253   0.00000  Uiso   1.00
C810   C     0.92222   0.13385   0.84127   0.00000  Uiso   1.00
C811   C     0.93399   0.15481   0.87771   0.00000  Uiso   1.00
C812   C     0.96568   0.13631   0.89819   0.00000  Uiso   1.00
C813   C     0.61197   0.32291   0.16508   0.00000  Uiso   1.00
C814   C     0.59334   0.30947   0.12794   0.00000  Uiso   1.00
C815   C     0.61020   0.27407   0.11316   0.00000  Uiso   1.00
C816   C     0.87925   0.16967   0.65617   0.00000  Uiso   1.00
C817   C     0.88523   0.15833   0.61371   0.00000  Uiso   1.00
C818   C     0.85570   0.17314   0.58696   0.00000  Uiso   1.00
C819   C     0.75021   0.00156   0.10162   0.00000  Uiso   1.00
C820   C     0.57207   0.36052   0.33431   0.00000  Uiso   1.00
C821   C     0.58253   0.39338   0.35961   0.00000  Uiso   1.00
C822   C     0.54946   0.40877   0.38094   0.00000  Uiso   1.00
C823   C     0.78524   0.34154   0.76448   0.00000  Uiso   1.00
C824   C     0.74663   0.33023   0.75298   0.00000  Uiso   1.00
C825   C     0.72676   0.31090   0.78618   0.00000  Uiso   1.00
C826   C     0.68717   0.13561   0.32608   0.00000  Uiso   1.00
C827   C     0.67711   0.17146   0.34663   0.00000  Uiso   1.00
C828   C     0.68017   0.16846   0.39081   0.00000  Uiso   1.00
C829   C     0.64131   0.30183   0.68582   0.00000  Uiso   1.00
C830   C     0.99957   0.24935   0.89822   0.00000  Uiso   1.00
C831   C     0.67889   0.31136   0.66890   0.00000  Uiso   1.00
C832   C     0.70250   0.27752   0.66432   0.00000  Uiso   1.00
C833   C     0.92059   0.14656   0.33742   0.00000  Uiso   1.00
C834   C     0.90786   0.11672   0.36565   0.00000  Uiso   1.00
C835   C     0.93883   0.10414   0.39187   0.00000  Uiso   1.00
C836   C     0.71317   0.16291   0.75328   0.00000  Uiso   1.00
C837   C     0.75235   0.17024   0.74002   0.00000  Uiso   1.00
C838   C     0.77243   0.19534   0.76829   0.00000  Uiso   1.00
C839   C     0.81157   0.36414   0.32639   0.00000  Uiso   1.00
C840   C     0.81393   0.32694   0.34676   0.00000  Uiso   1.00
C841   C     0.99984   0.24947   0.10179   0.00000  Uiso   1.00
C842   C     0.80863   0.33011   0.39072   0.00000  Uiso   1.00
C843   C     0.84051   0.28655   0.24391   0.00000  Uiso   1.00
C844   C     0.83033   0.24809   0.25734   0.00000  Uiso   1.00
C845   C     0.81098   0.22653   0.22545   0.00000  Uiso   1.00
C846   C     0.63352   0.18872   0.67417   0.00000  Uiso   1.00
C847   C     0.66832   0.17897   0.65169   0.00000  Uiso   1.00
C848   C     0.66435   0.18639   0.60824   0.00000  Uiso   1.00
C849   C     0.80196   0.14062   0.31580   0.00000  Uiso   1.00
C850   C     0.81083   0.17660   0.33665   0.00000  Uiso   1.00
C851   C     0.77678   0.19954   0.34297   0.00000  Uiso   1.00
C852   C     0.56366   0.23127   0.47938   0.00000  Uiso   1.00
C853   C     0.64675   0.42188   0.66303   0.00000  Uiso   1.00
C854   C     0.61554   0.41045   0.63606   0.00000  Uiso   1.00
C855   C     0.60302   0.44226   0.61084   0.00000  Uiso   1.00
C856   C     0.66054   0.21248   0.23974   0.00000  Uiso   1.00
C857   C     0.66878   0.25224   0.25011   0.00000  Uiso   1.00
C858   C     0.68948   0.27165   0.21750   0.00000  Uiso   1.00
C859   C     0.84773   0.29683   0.69294   0.00000  Uiso   1.00
C860   C     0.82557   0.26155   0.68951   0.00000  Uiso   1.00
C861   C     0.81529   0.25362   0.64736   0.00000  Uiso   1.00
C862   C     0.69343   0.36098   0.31959   0.00000  Uiso   1.00
C863   C     0.93948   0.28152   0.52083   0.00000  Uiso   1.00
C864   C     0.68125   0.32462   0.33784   0.00000  Uiso   1.00
C865   C     0.71354   0.29999   0.34651   0.00000  Uiso   1.00
C866   C     0.86861   0.06647   0.66874   0.00000  Uiso   1.00
C867   C     0.85135   0.04965   0.63242   0.00000  Uiso   1.00
C868   C     0.87146   0.01539   0.61945   0.00000  Uiso   1.00
C869   C     0.80579   0.46237   0.47935   0.00000  Uiso   1.00
C870   C     0.69423   0.03756   0.52077   0.00000  Uiso   1.00
C871   C     0.93723   0.27696   0.47976   0.00000  Uiso   1.00
C872   C     0.72316   0.01853   0.41831   0.00000  Uiso   1.00
C873   C     0.56043   0.22321   0.51953   0.00000  Uiso   1.00
C874   C     0.69196   0.03367   0.47965   0.00000  Uiso   1.00
C875   C     0.80287   0.45797   0.52036   0.00000  Uiso   1.00
C876   C     0.81434   0.48370   0.97929   0.00000  Uiso   1.00
C877   C     0.69015   0.03332   0.02088   0.00000  Uiso   1.00
C878   C     0.54753   0.20182   0.97930   0.00000  Uiso   1.00
C879   C     0.94912   0.29370   0.02067   0.00000  Uiso   1.00
C880   C     0.68789   0.02900   0.97978   0.00000  Uiso   1.00
C881   C     0.81125   0.47546   0.01939   0.00000  Uiso   1.00
C882   C     0.94613   0.28985   0.97966   0.00000  Uiso   1.00
C883   C     0.77516   0.47874   0.58184   0.00000  Uiso   1.00
C884   C     0.54425   0.19843   0.02043   0.00000  Uiso   1.00
C885   C     0.75008   0.00000   0.35586   0.00000  Uiso   1.00
C886   C     0.75007   0.49995   0.64416   0.00000  Uiso   1.00
C887   C     0.99994   0.25009   0.35589   0.00000  Uiso   1.00
C888   C     0.50004   0.25016   0.64408   0.00000  Uiso   1.00
C889   C     0.50001   0.24993   0.85588   0.00000  Uiso   1.00
C890   C     0.50016   0.24993   0.14413   0.00000  Uiso   1.00
C891   C     0.74995   0.00021   0.85589   0.00000  Uiso   1.00
C892   C     0.75005   0.00023   0.14407   0.00000  Uiso   1.00
C893   C     0.67964   0.06986   0.25053   0.00000  Uiso   1.00
C894   C     0.53077   0.24039   0.41841   0.00000  Uiso   1.00
C895   C     0.82004   0.43002   0.74975   0.00000  Uiso   1.00
C896   C     0.93005   0.18005   0.25003   0.00000  Uiso   1.00
C897   C     0.57019   0.32006   0.75009   0.00000  Uiso   1.00
C898   C     0.82021   0.42996   0.25011   0.00000  Uiso   1.00
C899   C     0.68004   0.07008   0.75013   0.00000  Uiso   1.00
C900   C     0.56981   0.32007   0.25004   0.00000  Uiso   1.00
C901   C     0.92990   0.18004   0.75013   0.00000  Uiso   1.00
C902   C     0.68009   0.43004   0.75005   0.00000  Uiso   1.00
C903   C     0.82006   0.07015   0.25003   0.00000  Uiso   1.00
C904   C     0.92963   0.31984   0.75063   0.00000  Uiso   1.00
C905   C     0.97011   0.26475   0.58187   0.00000  Uiso   1.00
C906   C     0.56999   0.17999   0.24984   0.00000  Uiso   1.00
C907   C     0.81997   0.06998   0.74996   0.00000  Uiso   1.00
C908   C     0.68022   0.42963   0.24983   0.00000  Uiso   1.00
C909   C     0.57001   0.17979   0.74978   0.00000  Uiso   1.00
C910   C     0.93002   0.32004   0.24997   0.00000  Uiso   1.00
C911   C     0.63437   0.39242   0.21466   0.00000  Uiso   1.00
C912   C     0.86044   0.11225   0.78567   0.00000  Uiso   1.00
C913   C     0.58870   0.11585   0.23861   0.00000  Uiso   1.00
C914   C     0.90910   0.38331   0.76509   0.00000  Uiso   1.00
C915   C     0.87004   0.10373   0.21664   0.00000  Uiso   1.00
C916   C     0.77648   0.48052   0.41804   0.00000  Uiso   1.00
C917   C     0.63314   0.39431   0.78470   0.00000  Uiso   1.00
C918   C     0.91060   0.38338   0.23616   0.00000  Uiso   1.00
C919   C     0.59049   0.11700   0.76593   0.00000  Uiso   1.00
C920   C     0.61661   0.08947   0.76316   0.00000  Uiso   1.00
C921   C     0.88286   0.40909   0.23284   0.00000  Uiso   1.00
C922   C     0.60369   0.37027   0.78360   0.00000  Uiso   1.00
C923   C     0.89418   0.13320   0.21537   0.00000  Uiso   1.00
C924   C     0.88374   0.41102   0.75946   0.00000  Uiso   1.00
C925   C     0.61615   0.08939   0.23635   0.00000  Uiso   1.00
C926   C     0.88814   0.13860   0.78582   0.00000  Uiso   1.00
C927   C     0.72396   0.01958   0.58201   0.00000  Uiso   1.00
C928   C     0.60850   0.36423   0.21443   0.00000  Uiso   1.00
C929   C     0.88802   0.13910   0.71437   0.00000  Uiso   1.00
C930   C     0.61444   0.35812   0.28497   0.00000  Uiso   1.00
C931   C     0.83836   0.36544   0.74078   0.00000  Uiso   1.00
C932   C     0.65843   0.13266   0.26695   0.00000  Uiso   1.00
C933   C     0.62085   0.35327   0.71692   0.00000  Uiso   1.00
C934   C     0.88250   0.14483   0.28439   0.00000  Uiso   1.00
C935   C     0.66049   0.13337   0.73692   0.00000  Uiso   1.00
C936   C     0.84149   0.36754   0.26752   0.00000  Uiso   1.00
C937   C     0.86699   0.33979   0.26342   0.00000  Uiso   1.00
C938   C     0.71942   0.01403   0.91829   0.00000  Uiso   1.00
C939   C     0.63265   0.15881   0.73281   0.00000  Uiso   1.00
C940   C     0.85296   0.12094   0.28321   0.00000  Uiso   1.00
C941   C     0.64446   0.38303   0.71557   0.00000  Uiso   1.00
C942   C     0.63322   0.16049   0.26177   0.00000  Uiso   1.00
C943   C     0.86558   0.33871   0.73920   0.00000  Uiso   1.00
C944   C     0.64472   0.38114   0.28406   0.00000  Uiso   1.00
C945   C     0.86186   0.11107   0.71441   0.00000  Uiso   1.00
C946   C     0.53180   0.24170   0.45904   0.00000  Uiso   1.00
C947   C     0.96972   0.26662   0.54105   0.00000  Uiso   1.00
C948   C     0.77754   0.48055   0.45897   0.00000  Uiso   1.00
H949   H     0.94633   0.27196   0.40122   0.00000  Uiso   1.00
H950   H     0.80360   0.47978   0.09750   0.00000  Uiso   1.00
H951   H     0.61456   0.39670   0.11244   0.00000  Uiso   1.00
H952   H     0.56068   0.43791   0.11204   0.00000  Uiso   1.00
H953   H     0.58864   0.44461   0.06922   0.00000  Uiso   1.00
H954   H     0.59068   0.47710   0.10861   0.00000  Uiso   1.00
H955   H     0.79467   0.11783   0.80587   0.00000  Uiso   1.00
H956   H     0.82159   0.14773   0.83688   0.00000  Uiso   1.00
H957   H     0.79259   0.07173   0.86047   0.00000  Uiso   1.00
H958   H     0.81594   0.10397   0.89130   0.00000  Uiso   1.00
H959   H     0.76480   0.14852   0.88220   0.00000  Uiso   1.00
H960   H     0.74900   0.10568   0.90226   0.00000  Uiso   1.00
H961   H     0.95848   0.28944   0.90161   0.00000  Uiso   1.00
H962   H     0.74146   0.11570   0.85149   0.00000  Uiso   1.00
H963   H     0.53455   0.11061   0.28438   0.00000  Uiso   1.00
H964   H     0.54694   0.06531   0.26750   0.00000  Uiso   1.00
H965   H     0.98148   0.11153   0.24146   0.00000  Uiso   1.00
H966   H     0.99417   0.06914   0.21905   0.00000  Uiso   1.00
H967   H     0.98511   0.03626   0.28140   0.00000  Uiso   1.00
H968   H     0.94470   0.06154   0.26893   0.00000  Uiso   1.00
H969   H     0.97501   0.07869   0.30603   0.00000  Uiso   1.00
H970   H     0.96506   0.37891   0.83501   0.00000  Uiso   1.00
H971   H     0.91808   0.36716   0.83281   0.00000  Uiso   1.00
H972   H     0.53906   0.20768   0.09902   0.00000  Uiso   1.00
H973   H     0.94845   0.44643   0.83175   0.00000  Uiso   1.00
H974   H     0.90123   0.43319   0.83541   0.00000  Uiso   1.00
H975   H     0.90855   0.40711   0.89863   0.00000  Uiso   1.00
H976   H     0.92953   0.45150   0.89928   0.00000  Uiso   1.00
H977   H     0.95768   0.41133   0.89677   0.00000  Uiso   1.00
H978   H     0.89183   0.03306   0.19384   0.00000  Uiso   1.00
H979   H     0.92226   0.07146   0.19140   0.00000  Uiso   1.00
H980   H     0.88206   0.03291   0.12478   0.00000  Uiso   1.00
H981   H     0.89964   0.07855   0.11911   0.00000  Uiso   1.00
H982   H     0.96169   0.05911   0.13450   0.00000  Uiso   1.00
H983   H     0.80405   0.48146   0.90198   0.00000  Uiso   1.00
H984   H     0.94362   0.03058   0.09627   0.00000  Uiso   1.00
H985   H     0.94616   0.01340   0.14551   0.00000  Uiso   1.00
H986   H     0.68566   0.41817   0.85393   0.00000  Uiso   1.00
H987   H     0.69146   0.38436   0.81714   0.00000  Uiso   1.00
H988   H     0.63511   0.37817   0.88434   0.00000  Uiso   1.00
H989   H     0.64845   0.34273   0.85078   0.00000  Uiso   1.00
H990   H     0.71219   0.34521   0.87805   0.00000  Uiso   1.00
H991   H     0.67842   0.33448   0.91460   0.00000  Uiso   1.00
H992   H     0.69761   0.37985   0.91222   0.00000  Uiso   1.00
H993   H     0.96811   0.39513   0.27705   0.00000  Uiso   1.00
H994   H     0.69721   0.02409   0.09903   0.00000  Uiso   1.00
H995   H     0.95086   0.43760   0.25705   0.00000  Uiso   1.00
H996   H     0.51721   0.39436   0.22720   0.00000  Uiso   1.00
H997   H     0.99949   0.43513   0.20517   0.00000  Uiso   1.00
H998   H     0.51166   0.47017   0.26615   0.00000  Uiso   1.00
H999   H     0.55246   0.44872   0.24792   0.00000  Uiso   1.00
H1000  H     0.52877   0.42923   0.28909   0.00000  Uiso   1.00
H1001  H     0.55029   0.12860   0.83610   0.00000  Uiso   1.00
H1002  H     0.58427   0.09376   0.83184   0.00000  Uiso   1.00
H1003  H     0.50104   0.08468   0.82697   0.00000  Uiso   1.00
H1004  H     0.53220   0.04948   0.81241   0.00000  Uiso   1.00
H1005  H     0.53914   0.20779   0.90061   0.00000  Uiso   1.00
H1006  H     0.55928   0.04790   0.87836   0.00000  Uiso   1.00
H1007  H     0.51058   0.04152   0.88107   0.00000  Uiso   1.00
H1008  H     0.53040   0.08499   0.89398   0.00000  Uiso   1.00
H1009  H     0.61029   0.03420   0.71873   0.00000  Uiso   1.00
H1010  H     0.56554   0.04858   0.73556   0.00000  Uiso   1.00
H1011  H     0.60906   0.48274   0.76561   0.00000  Uiso   1.00
H1012  H     0.56545   0.49735   0.78386   0.00000  Uiso   1.00
H1013  H     0.53722   0.48627   0.71942   0.00000  Uiso   1.00
H1014  H     0.56016   0.44579   0.73618   0.00000  Uiso   1.00
H1015  H     0.58094   0.47390   0.69910   0.00000  Uiso   1.00
H1016  H     0.95996   0.29044   0.09923   0.00000  Uiso   1.00
H1017  H     0.87298   0.46786   0.16639   0.00000  Uiso   1.00
H1018  H     0.86244   0.42035   0.16688   0.00000  Uiso   1.00
H1019  H     0.94141   0.45060   0.16405   0.00000  Uiso   1.00
H1020  H     0.92644   0.40444   0.15468   0.00000  Uiso   1.00
H1021  H     0.89385   0.42334   0.09612   0.00000  Uiso   1.00
H1022  H     0.94075   0.43826   0.09362   0.00000  Uiso   1.00
H1023  H     0.90551   0.47068   0.10473   0.00000  Uiso   1.00
H1024  H     0.53043   0.37656   0.83286   0.00000  Uiso   1.00
H1025  H     0.54252   0.39580   0.78690   0.00000  Uiso   1.00
H1026  H     0.57538   0.41993   0.86615   0.00000  Uiso   1.00
H1027  H     0.59241   0.27835   0.42001   0.00000  Uiso   1.00
H1028  H     0.58175   0.44196   0.81961   0.00000  Uiso   1.00
H1029  H     0.51493   0.45474   0.81623   0.00000  Uiso   1.00
H1030  H     0.53691   0.47563   0.85765   0.00000  Uiso   1.00
H1031  H     0.50978   0.43505   0.86443   0.00000  Uiso   1.00
H1032  H     0.92038   0.18546   0.14628   0.00000  Uiso   1.00
H1033  H     0.88827   0.19315   0.18441   0.00000  Uiso   1.00
H1034  H     0.87680   0.14052   0.11474   0.00000  Uiso   1.00
H1035  H     0.84357   0.15139   0.15174   0.00000  Uiso   1.00
H1036  H     0.84544   0.21716   0.13065   0.00000  Uiso   1.00
H1037  H     0.83264   0.18688   0.09151   0.00000  Uiso   1.00
H1038  H     0.61066   0.28953   0.46730   0.00000  Uiso   1.00
H1039  H     0.87820   0.20550   0.09318   0.00000  Uiso   1.00
H1040  H     0.89597   0.46083   0.70847   0.00000  Uiso   1.00
H1041  H     0.93832   0.44515   0.73001   0.00000  Uiso   1.00
H1042  H     0.89884   0.01708   0.74890   0.00000  Uiso   1.00
H1043  H     0.93987   0.00128   0.77189   0.00000  Uiso   1.00
H1044  H     0.97270   0.00245   0.70858   0.00000  Uiso   1.00
H1045  H     0.95257   0.04632   0.71856   0.00000  Uiso   1.00
H1046  H     0.93161   0.01591   0.68373   0.00000  Uiso   1.00
H1047  H     0.62061   0.04206   0.16731   0.00000  Uiso   1.00
H1048  H     0.59128   0.08046   0.17194   0.00000  Uiso   1.00
H1049  H     0.63903   0.26846   0.43079   0.00000  Uiso   1.00
H1050  H     0.57383   0.49888   0.17977   0.00000  Uiso   1.00
H1051  H     0.54571   0.03086   0.20494   0.00000  Uiso   1.00
H1052  H     0.53117   0.06301   0.14405   0.00000  Uiso   1.00
H1053  H     0.52164   0.01485   0.13887   0.00000  Uiso   1.00
H1054  H     0.56199   0.03430   0.11687   0.00000  Uiso   1.00
H1055  H     0.94670   0.12755   0.82329   0.00000  Uiso   1.00
H1056  H     0.90924   0.10774   0.85053   0.00000  Uiso   1.00
H1057  H     0.94243   0.18295   0.86951   0.00000  Uiso   1.00
H1058  H     0.91054   0.15680   0.89815   0.00000  Uiso   1.00
H1059  H     0.95850   0.10769   0.90577   0.00000  Uiso   1.00
H1060  H     0.55328   0.22874   0.59757   0.00000  Uiso   1.00
H1061  H     0.62349   0.22467   0.47884   0.00000  Uiso   1.00
H1062  H     0.97235   0.15139   0.92534   0.00000  Uiso   1.00
H1063  H     0.99004   0.13661   0.87895   0.00000  Uiso   1.00
H1064  H     0.61179   0.30023   0.18669   0.00000  Uiso   1.00
H1065  H     0.64070   0.33046   0.15805   0.00000  Uiso   1.00
H1066  H     0.56396   0.30469   0.13388   0.00000  Uiso   1.00
H1067  H     0.59574   0.33070   0.10496   0.00000  Uiso   1.00
H1068  H     0.63965   0.27814   0.10693   0.00000  Uiso   1.00
H1069  H     0.59638   0.26541   0.08592   0.00000  Uiso   1.00
H1070  H     0.60682   0.25209   0.13518   0.00000  Uiso   1.00
H1071  H     0.88497   0.19936   0.65895   0.00000  Uiso   1.00
H1072  H     0.60158   0.21069   0.43529   0.00000  Uiso   1.00
H1073  H     0.85005   0.16536   0.66417   0.00000  Uiso   1.00
H1074  H     0.91228   0.16844   0.60365   0.00000  Uiso   1.00
H1075  H     0.88517   0.12810   0.61159   0.00000  Uiso   1.00
H1076  H     0.82845   0.16305   0.59630   0.00000  Uiso   1.00
H1077  H     0.86084   0.16381   0.55667   0.00000  Uiso   1.00
H1078  H     0.85593   0.20335   0.58728   0.00000  Uiso   1.00
H1079  H     0.55698   0.34048   0.35263   0.00000  Uiso   1.00
H1080  H     0.55294   0.36898   0.31084   0.00000  Uiso   1.00
H1081  H     0.60318   0.38498   0.38139   0.00000  Uiso   1.00
H1082  H     0.59459   0.41511   0.34096   0.00000  Uiso   1.00
H1083  H     0.88894   0.25970   0.57740   0.00000  Uiso   1.00
H1084  H     0.52831   0.41730   0.35983   0.00000  Uiso   1.00
H1085  H     0.55783   0.43292   0.39837   0.00000  Uiso   1.00
H1086  H     0.53773   0.38795   0.40094   0.00000  Uiso   1.00
H1087  H     0.78366   0.36227   0.78820   0.00000  Uiso   1.00
H1088  H     0.79982   0.31700   0.77535   0.00000  Uiso   1.00
H1089  H     0.73104   0.35487   0.74448   0.00000  Uiso   1.00
H1090  H     0.74799   0.31151   0.72755   0.00000  Uiso   1.00
H1091  H     0.74066   0.28496   0.79347   0.00000  Uiso   1.00
H1092  H     0.69834   0.30465   0.77726   0.00000  Uiso   1.00
H1093  H     0.72610   0.32856   0.81238   0.00000  Uiso   1.00
H1094  H     0.85964   0.29875   0.57299   0.00000  Uiso   1.00
H1095  H     0.71389   0.12637   0.33728   0.00000  Uiso   1.00
H1096  H     0.66720   0.11368   0.33398   0.00000  Uiso   1.00
H1097  H     0.69518   0.19381   0.33611   0.00000  Uiso   1.00
H1098  H     0.64850   0.17864   0.33997   0.00000  Uiso   1.00
H1099  H     0.65879   0.14974   0.40208   0.00000  Uiso   1.00
H1100  H     0.67598   0.19574   0.40417   0.00000  Uiso   1.00
H1101  H     0.70740   0.15826   0.39944   0.00000  Uiso   1.00
H1102  H     0.62924   0.27965   0.66794   0.00000  Uiso   1.00
H1103  H     0.64427   0.29069   0.71591   0.00000  Uiso   1.00
H1104  H     0.67568   0.32464   0.64003   0.00000  Uiso   1.00
H1105  H     0.86493   0.26777   0.53262   0.00000  Uiso   1.00
H1106  H     0.69318   0.33049   0.68872   0.00000  Uiso   1.00
H1107  H     0.70470   0.26273   0.69246   0.00000  Uiso   1.00
H1108  H     0.73025   0.28571   0.65466   0.00000  Uiso   1.00
H1109  H     0.69066   0.25915   0.64201   0.00000  Uiso   1.00
H1110  H     0.93466   0.16833   0.35429   0.00000  Uiso   1.00
H1111  H     0.94117   0.13550   0.31663   0.00000  Uiso   1.00
H1112  H     0.88539   0.12735   0.38417   0.00000  Uiso   1.00
H1113  H     0.89745   0.09295   0.34884   0.00000  Uiso   1.00
H1114  H     0.96171   0.09337   0.37412   0.00000  Uiso   1.00
H1115  H     0.92884   0.08213   0.41145   0.00000  Uiso   1.00
H1116  H     0.92384   0.31889   0.56763   0.00000  Uiso   1.00
H1117  H     0.94884   0.12719   0.41003   0.00000  Uiso   1.00
H1118  H     0.71384   0.14785   0.78149   0.00000  Uiso   1.00
H1119  H     0.69922   0.18954   0.75754   0.00000  Uiso   1.00
H1120  H     0.76715   0.14394   0.73782   0.00000  Uiso   1.00
H1121  H     0.75220   0.18317   0.71073   0.00000  Uiso   1.00
H1122  H     0.75963   0.22273   0.76859   0.00000  Uiso   1.00
H1123  H     0.80128   0.19836   0.75892   0.00000  Uiso   1.00
H1124  H     0.77178   0.18381   0.79819   0.00000  Uiso   1.00
H1125  H     0.78647   0.37809   0.33653   0.00000  Uiso   1.00
H1126  H     0.83486   0.38191   0.33558   0.00000  Uiso   1.00
H1127  H     0.90143   0.32729   0.52465   0.00000  Uiso   1.00
H1128  H     0.79302   0.30818   0.33464   0.00000  Uiso   1.00
H1129  H     0.84112   0.31481   0.34177   0.00000  Uiso   1.00
H1130  H     0.83245   0.34413   0.40383   0.00000  Uiso   1.00
H1131  H     0.80650   0.30239   0.40361   0.00000  Uiso   1.00
H1132  H     0.78341   0.34538   0.39782   0.00000  Uiso   1.00
H1133  H     0.85910   0.28453   0.21825   0.00000  Uiso   1.00
H1134  H     0.81516   0.30106   0.23534   0.00000  Uiso   1.00
H1135  H     0.85542   0.23333   0.26590   0.00000  Uiso   1.00
H1136  H     0.81211   0.25000   0.28317   0.00000  Uiso   1.00
H1137  H     0.78518   0.24018   0.21726   0.00000  Uiso   1.00
H1138  H     0.83296   0.39168   0.46698   0.00000  Uiso   1.00
H1139  H     0.80454   0.19865   0.23619   0.00000  Uiso   1.00
H1140  H     0.82874   0.22420   0.19938   0.00000  Uiso   1.00
H1141  H     0.62386   0.21574   0.66413   0.00000  Uiso   1.00
H1142  H     0.61127   0.16895   0.66690   0.00000  Uiso   1.00
H1143  H     0.69169   0.19505   0.66314   0.00000  Uiso   1.00
H1144  H     0.67422   0.14951   0.65546   0.00000  Uiso   1.00
H1145  H     0.64181   0.16959   0.59629   0.00000  Uiso   1.00
H1146  H     0.68998   0.17913   0.59291   0.00000  Uiso   1.00
H1147  H     0.65856   0.21566   0.60290   0.00000  Uiso   1.00
H1148  H     0.77929   0.12697   0.33166   0.00000  Uiso   1.00
H1149  H     0.81350   0.40850   0.42248   0.00000  Uiso   1.00
H1150  H     0.79171   0.14617   0.28580   0.00000  Uiso   1.00
H1151  H     0.82355   0.17084   0.36532   0.00000  Uiso   1.00
H1152  H     0.83019   0.19277   0.31879   0.00000  Uiso   1.00
H1153  H     0.76285   0.20458   0.31481   0.00000  Uiso   1.00
H1154  H     0.78446   0.22623   0.35602   0.00000  Uiso   1.00
H1155  H     0.75788   0.18531   0.36319   0.00000  Uiso   1.00
H1156  H     0.66843   0.43515   0.64527   0.00000  Uiso   1.00
H1157  H     0.63728   0.44288   0.68423   0.00000  Uiso   1.00
H1158  H     0.62474   0.38787   0.61680   0.00000  Uiso   1.00
H1159  H     0.59215   0.40052   0.65381   0.00000  Uiso   1.00
H1160  H     0.86217   0.40388   0.42674   0.00000  Uiso   1.00
H1161  H     0.59363   0.46524   0.62936   0.00000  Uiso   1.00
H1162  H     0.58008   0.43324   0.59210   0.00000  Uiso   1.00
H1163  H     0.62566   0.45189   0.59182   0.00000  Uiso   1.00
H1164  H     0.64301   0.21189   0.21326   0.00000  Uiso   1.00
H1165  H     0.68670   0.19829   0.23347   0.00000  Uiso   1.00
H1166  H     0.64281   0.26682   0.25569   0.00000  Uiso   1.00
H1167  H     0.68539   0.25320   0.27710   0.00000  Uiso   1.00
H1168  H     0.71649   0.25878   0.21299   0.00000  Uiso   1.00
H1169  H     0.69369   0.30075   0.22549   0.00000  Uiso   1.00
H1170  H     0.67382   0.27035   0.18991   0.00000  Uiso   1.00
H1171  H     0.70386   0.03386   0.40128   0.00000  Uiso   1.00
H1172  H     0.84642   0.46898   0.43313   0.00000  Uiso   1.00
H1173  H     0.87342   0.29403   0.67596   0.00000  Uiso   1.00
H1174  H     0.83163   0.31940   0.67992   0.00000  Uiso   1.00
H1175  H     0.84174   0.23842   0.70108   0.00000  Uiso   1.00
H1176  H     0.80027   0.26390   0.70722   0.00000  Uiso   1.00
H1177  H     0.79768   0.27562   0.63580   0.00000  Uiso   1.00
H1178  H     0.80025   0.22729   0.64571   0.00000  Uiso   1.00
H1179  H     0.84022   0.25174   0.62920   0.00000  Uiso   1.00
H1180  H     0.71501   0.37316   0.33820   0.00000  Uiso   1.00
H1181  H     0.70626   0.35595   0.29054   0.00000  Uiso   1.00
H1182  H     0.66609   0.32992   0.36534   0.00000  Uiso   1.00
H1183  H     0.86469   0.45350   0.47614   0.00000  Uiso   1.00
H1184  H     0.66316   0.30977   0.31735   0.00000  Uiso   1.00
H1185  H     0.72930   0.29465   0.31944   0.00000  Uiso   1.00
H1186  H     0.70357   0.27351   0.35825   0.00000  Uiso   1.00
H1187  H     0.73145   0.31293   0.36856   0.00000  Uiso   1.00
H1188  H     0.86812   0.04560   0.69232   0.00000  Uiso   1.00
H1189  H     0.89736   0.07417   0.66206   0.00000  Uiso   1.00
H1190  H     0.82250   0.04243   0.63874   0.00000  Uiso   1.00
H1191  H     0.85179   0.06985   0.60831   0.00000  Uiso   1.00
H1192  H     0.90049   0.02183   0.61320   0.00000  Uiso   1.00
H1193  H     0.85874   0.00459   0.59249   0.00000  Uiso   1.00
H1194  H     0.70938   0.09248   0.57459   0.00000  Uiso   1.00
H1195  H     0.86982   0.49410   0.64242   0.00000  Uiso   1.00
H1196  H     0.69326   0.11388   0.53079   0.00000  Uiso   1.00
H1197  H     0.66505   0.11296   0.57387   0.00000  Uiso   1.00
H1198  H     0.64315   0.06963   0.52591   0.00000  Uiso   1.00
H1199  H     0.65522   0.04655   0.56804   0.00000  Uiso   1.00
H1200  H     0.90090   0.23338   0.42469   0.00000  Uiso   1.00
H1201  H     0.87625   0.23211   0.47013   0.00000  Uiso   1.00
H1202  H     0.85769   0.25591   0.42882   0.00000  Uiso   1.00
H1203  H     0.79479   0.46412   0.59910   0.00000  Uiso   1.00
H1204  H     0.88109   0.29913   0.47562   0.00000  Uiso   1.00
H1205  H     0.90658   0.30336   0.43307   0.00000  Uiso   1.00
H1206  H     0.54719   0.16776   0.57670   0.00000  Uiso   1.00
H1207  H     0.55239   0.14902   0.52836   0.00000  Uiso   1.00
H1208  H     0.58719   0.14230   0.56445   0.00000  Uiso   1.00
H1209  H     0.60804   0.18644   0.51939   0.00000  Uiso   1.00
H1210  H     0.60088   0.21037   0.56360   0.00000  Uiso   1.00
H1211  H     0.65909   0.10286   0.47013   0.00000  Uiso   1.00
H1212  H     0.68250   0.08950   0.42623   0.00000  Uiso   1.00
H1213  H     0.63339   0.09005   0.42768   0.00000  Uiso   1.00
H1214  H     0.55366   0.23014   0.40190   0.00000  Uiso   1.00
H1215  H     0.65291   0.02644   0.43222   0.00000  Uiso   1.00
H1216  H     0.63261   0.03859   0.47548   0.00000  Uiso   1.00
H1217  H     0.78368   0.40471   0.57574   0.00000  Uiso   1.00
H1218  H     0.79419   0.38306   0.52990   0.00000  Uiso   1.00
H1219  H     0.82460   0.37834   0.57070   0.00000  Uiso   1.00
H1220  H     0.85018   0.42052   0.52428   0.00000  Uiso   1.00
H1221  H     0.84120   0.44447   0.56693   0.00000  Uiso   1.00
H1222  H     0.84190   0.03104   0.91943   0.00000  Uiso   1.00
H1223  H     0.85938   0.04321   0.96679   0.00000  Uiso   1.00
H1224  H     0.88873   0.02278   0.93076   0.00000  Uiso   1.00
H1225  H     0.94716   0.27365   0.59907   0.00000  Uiso   1.00
H1226  H     0.87430   0.47877   0.97887   0.00000  Uiso   1.00
H1227  H     0.85283   0.46394   0.93534   0.00000  Uiso   1.00
H1228  H     0.61489   0.02151   0.03200   0.00000  Uiso   1.00
H1229  H     0.63879   0.01161   0.07642   0.00000  Uiso   1.00
H1230  H     0.61074   0.05172   0.07313   0.00000  Uiso   1.00
H1231  H     0.67503   0.07040   0.06812   0.00000  Uiso   1.00
H1232  H     0.65311   0.07986   0.02508   0.00000  Uiso   1.00
H1233  H     0.54510   0.14714   0.92198   0.00000  Uiso   1.00
H1234  H     0.59147   0.13251   0.92787   0.00000  Uiso   1.00
H1235  H     0.55942   0.12737   0.96738   0.00000  Uiso   1.00
H1236  H     0.79605   0.46570   0.40069   0.00000  Uiso   1.00
H1237  H     0.58848   0.20010   0.93280   0.00000  Uiso   1.00
H1238  H     0.60358   0.18169   0.97572   0.00000  Uiso   1.00
H1239  H     0.97203   0.34705   0.07293   0.00000  Uiso   1.00
H1240  H     0.95823   0.36954   0.02883   0.00000  Uiso   1.00
H1241  H     0.93086   0.37326   0.07232   0.00000  Uiso   1.00
H1242  H     0.90261   0.33202   0.02578   0.00000  Uiso   1.00
H1243  H     0.91233   0.30849   0.06831   0.00000  Uiso   1.00
H1244  H     0.65032   0.48591   0.92526   0.00000  Uiso   1.00
H1245  H     0.62574   0.48571   0.97073   0.00000  Uiso   1.00
H1246  H     0.60773   0.00964   0.92923   0.00000  Uiso   1.00
H1247  H     0.70453   0.03438   0.59950   0.00000  Uiso   1.00
H1248  H     0.63244   0.05273   0.97549   0.00000  Uiso   1.00
H1249  H     0.65792   0.05578   0.93286   0.00000  Uiso   1.00
H1250  H     0.79880   0.41917   0.07559   0.00000  Uiso   1.00
H1251  H     0.80515   0.40089   0.02722   0.00000  Uiso   1.00
H1252  H     0.83964   0.39488   0.06380   0.00000  Uiso   1.00
H1253  H     0.85974   0.43986   0.01913   0.00000  Uiso   1.00
H1254  H     0.85171   0.46315   0.06353   0.00000  Uiso   1.00
H1255  H     0.94091   0.34620   0.92496   0.00000  Uiso   1.00
H1256  H     0.89222   0.35157   0.92892   0.00000  Uiso   1.00
H1257  H     0.92095   0.36203   0.96981   0.00000  Uiso   1.00
H1258  H     0.69652   0.02281   0.90115   0.00000  Uiso   1.00
H1259  H     0.90631   0.28640   0.93258   0.00000  Uiso   1.00
H1260  H     0.88770   0.30069   0.97618   0.00000  Uiso   1.00
H1261  H     0.51719   0.15072   0.07808   0.00000  Uiso   1.00
H1262  H     0.52251   0.12642   0.03276   0.00000  Uiso   1.00
H1263  H     0.55259   0.11734   0.07297   0.00000  Uiso   1.00
H1264  H     0.58395   0.15293   0.02450   0.00000  Uiso   1.00
H1265  H     0.58066   0.17943   0.06650   0.00000  Uiso   1.00
H1266  H     0.62535   0.45928   0.17128   0.00000  Uiso   1.00
H1267  H     0.59054   0.42481   0.17566   0.00000  Uiso   1.00
H1268  H     0.64478   0.43538   0.10774   0.00000  Uiso   1.00
O1269  O     0.75000  -0.00000   0.25000   0.00000  Uiso   1.00
O1270  O     0.75000   0.46963   0.66245   0.00000  Uiso   1.00
O1271  O     0.96963   0.25000   0.33755   0.00000  Uiso   1.00
O1272  O     0.53036   0.25000   0.66245   0.00000  Uiso   1.00
O1273  O     0.50000   0.21964   0.83755   0.00000  Uiso   1.00
O1274  O     0.50000   0.28037   0.16245   0.00000  Uiso   1.00
O1275  O     0.78036  -0.00000   0.83755   0.00000  Uiso   1.00
O1276  O     0.71963   0.00000   0.16245   0.00000  Uiso   1.00
O1277  O     0.50000   0.28037   0.83755   0.00000  Uiso   1.00
O1278  O     0.50000   0.21963   0.16245   0.00000  Uiso   1.00
O1279  O     0.71963  -0.00000   0.83755   0.00000  Uiso   1.00
O1280  O     0.75000  -0.00000   0.75000   0.00000  Uiso   1.00
O1281  O     0.78036  -0.00000   0.16245   0.00000  Uiso   1.00
O1282  O     0.70724   0.07307   0.27302   0.00000  Uiso   1.00
O1283  O     0.79275   0.42692   0.72698   0.00000  Uiso   1.00
O1284  O     0.92692   0.20724   0.27302   0.00000  Uiso   1.00
O1285  O     0.57307   0.29276   0.72698   0.00000  Uiso   1.00
O1286  O     0.79275   0.42692   0.27302   0.00000  Uiso   1.00
O1287  O     0.70724   0.07307   0.72698   0.00000  Uiso   1.00
O1288  O     0.57307   0.29276   0.27302   0.00000  Uiso   1.00
O1289  O     0.92692   0.20724   0.72698   0.00000  Uiso   1.00
O1290  O     0.70724   0.42692   0.72698   0.00000  Uiso   1.00
O1291  O     0.50000   0.25000   0.25000   0.00000  Uiso   1.00
O1292  O     0.79275   0.07307   0.27302   0.00000  Uiso   1.00
O1293  O     0.92692   0.29275   0.72698   0.00000  Uiso   1.00
O1294  O     0.57307   0.20725   0.27302   0.00000  Uiso   1.00
O1295  O     0.79275   0.07307   0.72698   0.00000  Uiso   1.00
O1296  O     0.70724   0.42692   0.27302   0.00000  Uiso   1.00
O1297  O     0.57307   0.20725   0.72698   0.00000  Uiso   1.00
O1298  O     0.92692   0.29275   0.27302   0.00000  Uiso   1.00
O1299  O     0.95724   0.32307   0.77302   0.00000  Uiso   1.00
O1300  O     0.54275   0.17693   0.22698   0.00000  Uiso   1.00
O1301  O     0.67692   0.45725   0.77302   0.00000  Uiso   1.00
O1302  O     0.50000   0.25000   0.75000   0.00000  Uiso   1.00
O1303  O     0.82307   0.04275   0.22698   0.00000  Uiso   1.00
O1304  O     0.54275   0.17693   0.77302   0.00000  Uiso   1.00
O1305  O     0.95724   0.32307   0.22698   0.00000  Uiso   1.00
O1306  O     0.82307   0.04275   0.77302   0.00000  Uiso   1.00
O1307  O     0.67692   0.45725   0.22698   0.00000  Uiso   1.00
O1308  O     0.95724   0.17692   0.22698   0.00000  Uiso   1.00
O1309  O     0.54275   0.32308   0.77302   0.00000  Uiso   1.00
O1310  O     0.67692   0.04275   0.22698   0.00000  Uiso   1.00
O1311  O     0.82307   0.45724   0.77302   0.00000  Uiso   1.00
O1312  O     0.54275   0.32308   0.22698   0.00000  Uiso   1.00
O1313  O     0.75000   0.46963   0.33755   0.00000  Uiso   1.00
O1314  O     0.95724   0.17692   0.77302   0.00000  Uiso   1.00
O1315  O     0.82307   0.45724   0.22698   0.00000  Uiso   1.00
O1316  O     0.67692   0.04275   0.77302   0.00000  Uiso   1.00
O1317  O     0.64590   0.40777   0.17983   0.00000  Uiso   1.00
O1318  O     0.84665   0.09931   0.82063   0.00000  Uiso   1.00
O1319  O     0.55357   0.10716   0.22709   0.00000  Uiso   1.00
O1320  O     0.94202   0.39180   0.78260   0.00000  Uiso   1.00
O1321  O     0.86571   0.08206   0.18385   0.00000  Uiso   1.00
O1322  O     0.64105   0.41244   0.81911   0.00000  Uiso   1.00
O1323  O     0.94503   0.39146   0.22189   0.00000  Uiso   1.00
O1324  O     0.75000   0.03036   0.66245   0.00000  Uiso   1.00
O1325  O     0.55601   0.10863   0.78010   0.00000  Uiso   1.00
O1326  O     0.60783   0.05453   0.77546   0.00000  Uiso   1.00
O1327  O     0.89079   0.44244   0.21567   0.00000  Uiso   1.00
O1328  O     0.58287   0.36558   0.81699   0.00000  Uiso   1.00
O1329  O     0.91247   0.14067   0.18083   0.00000  Uiso   1.00
O1330  O     0.89320   0.44693   0.76714   0.00000  Uiso   1.00
O1331  O     0.60775   0.05408   0.22445   0.00000  Uiso   1.00
O1332  O     0.89755   0.15574   0.82034   0.00000  Uiso   1.00
O1333  O     0.59296   0.35351   0.17952   0.00000  Uiso   1.00
O1334  O     0.90420   0.15040   0.67980   0.00000  Uiso   1.00
O1335  O     0.53036   0.25000   0.33755   0.00000  Uiso   1.00
O1336  O     0.60363   0.34285   0.32012   0.00000  Uiso   1.00
O1337  O     0.80280   0.35635   0.73141   0.00000  Uiso   1.00
O1338  O     0.69108   0.14076   0.28524   0.00000  Uiso   1.00
O1339  O     0.61711   0.33186   0.68388   0.00000  Uiso   1.00
O1340  O     0.89036   0.16284   0.31891   0.00000  Uiso   1.00
O1341  O     0.69540   0.14198   0.72442   0.00000  Uiso   1.00
O1342  O     0.80847   0.35964   0.28541   0.00000  Uiso   1.00
O1343  O     0.85800   0.30473   0.27495   0.00000  Uiso   1.00
O1344  O     0.64043   0.19173   0.71471   0.00000  Uiso   1.00
O1345  O     0.83201   0.11643   0.31654   0.00000  Uiso   1.00
O1346  O     0.96963   0.25000   0.66245   0.00000  Uiso   1.00
O1347  O     0.66238   0.39095   0.68095   0.00000  Uiso   1.00
O1348  O     0.64251   0.19598   0.27157   0.00000  Uiso   1.00
O1349  O     0.85607   0.30256   0.73267   0.00000  Uiso   1.00
O1350  O     0.66440   0.38644   0.31799   0.00000  Uiso   1.00
O1351  O     0.84857   0.09766   0.67948   0.00000  Uiso   1.00
O1352  O     0.75000   0.03036   0.33755   0.00000  Uiso   1.00
Zn1353 Zn    0.70659   0.00000   0.21735   0.00000  Uiso   1.00
Zn1354 Zn    0.54340   0.25000   0.28265   0.00000  Uiso   1.00
Zn1355 Zn    0.75000   0.45659   0.71735   0.00000  Uiso   1.00
Zn1356 Zn    0.75000   0.04340   0.28265   0.00000  Uiso   1.00
Zn1357 Zn    0.54340   0.25000   0.71735   0.00000  Uiso   1.00
Zn1358 Zn    0.95659   0.25000   0.28265   0.00000  Uiso   1.00
Zn1359 Zn    0.75000   0.04340   0.71735   0.00000  Uiso   1.00
Zn1360 Zn    0.75000   0.45659   0.28265   0.00000  Uiso   1.00
Zn1361 Zn    0.79340  -0.00000   0.78265   0.00000  Uiso   1.00
Zn1362 Zn    0.50000   0.20659   0.21735   0.00000  Uiso   1.00
Zn1363 Zn    0.50000   0.29341   0.78265   0.00000  Uiso   1.00
Zn1364 Zn    0.79340  -0.00000   0.21735   0.00000  Uiso   1.00
Zn1365 Zn    0.70659   0.00000   0.78265   0.00000  Uiso   1.00
Zn1366 Zn    0.50000   0.29340   0.21735   0.00000  Uiso   1.00
Zn1367 Zn    0.50000   0.20660   0.78265   0.00000  Uiso   1.00
Zn1368 Zn    0.95659   0.25000   0.71735   0.00000  Uiso   1.00
C1369  C     0.46915   0.76292   0.41832   0.00000  Uiso   1.00
C1370  C     0.28048   0.98935   0.08110   0.00000  Uiso   1.00
C1371  C     0.22242   0.51905   0.54110   0.00000  Uiso   1.00
C1372  C     0.46838   0.76400   0.45918   0.00000  Uiso   1.00
C1373  C     0.03034   0.73773   0.54040   0.00000  Uiso   1.00
C1374  C     0.22118   0.51703   0.45917   0.00000  Uiso   1.00
C1375  C     0.27580   0.97804   0.54092   0.00000  Uiso   1.00
C1376  C     0.28231   0.99356   0.95899   0.00000  Uiso   1.00
C1377  C     0.22019   0.51801   0.04107   0.00000  Uiso   1.00
C1378  C     0.02289   0.72475   0.95895   0.00000  Uiso   1.00
C1379  C     0.47471   0.77174   0.04100   0.00000  Uiso   1.00
C1380  C     0.21886   0.51566   0.95916   0.00000  Uiso   1.00
C1381  C     0.47538   0.77131   0.91843   0.00000  Uiso   1.00
C1382  C     0.28091   0.98937   0.04033   0.00000  Uiso   1.00
C1383  C     0.47287   0.76952   0.95920   0.00000  Uiso   1.00
C1384  C     0.02125   0.72313   0.04092   0.00000  Uiso   1.00
C1385  C     0.09764   0.84820   0.24985   0.00000  Uiso   1.00
C1386  C     0.40169   0.65199   0.75013   0.00000  Uiso   1.00
C1387  C     0.15102   0.59759   0.25150   0.00000  Uiso   1.00
C1388  C     0.34784   0.90182   0.74951   0.00000  Uiso   1.00
C1389  C     0.40190   0.65232   0.24991   0.00000  Uiso   1.00
C1390  C     0.09854   0.84815   0.75022   0.00000  Uiso   1.00
C1391  C     0.34852   0.90193   0.25024   0.00000  Uiso   1.00
C1392  C     0.02145   0.72473   0.08180   0.00000  Uiso   1.00
C1393  C     0.15205   0.59806   0.75025   0.00000  Uiso   1.00
C1394  C     0.09803   0.65152   0.74941   0.00000  Uiso   1.00
C1395  C     0.40218   0.84814   0.24987   0.00000  Uiso   1.00
C1396  C     0.15215   0.90213   0.75009   0.00000  Uiso   1.00
C1397  C     0.34793   0.59866   0.24993   0.00000  Uiso   1.00
C1398  C     0.40110   0.84763   0.75174   0.00000  Uiso   1.00
C1399  C     0.09773   0.65176   0.24975   0.00000  Uiso   1.00
C1400  C     0.34791   0.59813   0.75002   0.00000  Uiso   1.00
C1401  C     0.15279   0.90067   0.24954   0.00000  Uiso   1.00
C1402  C     0.00001   0.75270   0.47956   0.00000  Uiso   1.00
C1403  C     0.28112   0.99173   0.91841   0.00000  Uiso   1.00
C1404  C     0.00007   0.75256   0.52029   0.00000  Uiso   1.00
C1405  C     0.24927   0.99868   0.47963   0.00000  Uiso   1.00
C1406  C     0.24917   0.99860   0.52048   0.00000  Uiso   1.00
C1407  C     0.25052   0.50445   0.97953   0.00000  Uiso   1.00
C1408  C     0.25060   0.50419   0.02027   0.00000  Uiso   1.00
C1409  C     0.49787   0.74713   0.97962   0.00000  Uiso   1.00
C1410  C     0.49792   0.74729   0.02044   0.00000  Uiso   1.00
C1411  C     0.10090   0.73132   0.45897   0.00000  Uiso   1.00
C1412  C     0.11109   0.76920   0.44328   0.00000  Uiso   1.00
C1413  C     0.41128   0.80430   0.54269   0.00000  Uiso   1.00
C1414  C     0.22031   0.51551   0.08187   0.00000  Uiso   1.00
C1415  C     0.37929   0.78112   0.55720   0.00000  Uiso   1.00
C1416  C     0.34012   0.95035   0.45773   0.00000  Uiso   1.00
C1417  C     0.33688   0.91123   0.44267   0.00000  Uiso   1.00
C1418  C     0.16716   0.56161   0.54300   0.00000  Uiso   1.00
C1419  C     0.18499   0.59726   0.55640   0.00000  Uiso   1.00
C1420  C     0.40165   0.78472   0.45800   0.00000  Uiso   1.00
C1421  C     0.38321   0.74935   0.44454   0.00000  Uiso   1.00
C1422  C     0.08665   0.69668   0.53917   0.00000  Uiso   1.00
C1423  C     0.06699   0.66204   0.55308   0.00000  Uiso   1.00
C1424  C     0.15736   0.54430   0.45790   0.00000  Uiso   1.00
C1425  C     0.02220   0.72549   0.91802   0.00000  Uiso   1.00
C1426  C     0.15826   0.58411   0.44480   0.00000  Uiso   1.00
C1427  C     0.32746   0.93106   0.54200   0.00000  Uiso   1.00
C1428  C     0.30604   0.89739   0.55546   0.00000  Uiso   1.00
C1429  C     0.35157   0.98466   0.95890   0.00000  Uiso   1.00
C1430  C     0.36067   0.52271   0.94296   0.00000  Uiso   1.00
C1431  C     0.16232   0.55643   0.04286   0.00000  Uiso   1.00
C1432  C     0.12975   0.53382   0.05685   0.00000  Uiso   1.00
C1433  C     0.07874   0.68320   0.95755   0.00000  Uiso   1.00
C1434  C     0.06792   0.64526   0.94290   0.00000  Uiso   1.00
C1435  C     0.42569   0.82140   0.04273   0.00000  Uiso   1.00
C1436  C     0.47684   0.77269   0.08184   0.00000  Uiso   1.00
C1437  C     0.44823   0.85469   0.05497   0.00000  Uiso   1.00
C1438  C     0.15251   0.53752   0.95801   0.00000  Uiso   1.00
C1439  C     0.13310   0.50253   0.94496   0.00000  Uiso   1.00
C1440  C     0.33797   0.94935   0.03888   0.00000  Uiso   1.00
C1441  C     0.31907   0.91413   0.05225   0.00000  Uiso   1.00
C1442  C     0.41265   0.80383   0.95816   0.00000  Uiso   1.00
C1443  C     0.41714   0.84331   0.94478   0.00000  Uiso   1.00
C1444  C     0.06409   0.66799   0.04240   0.00000  Uiso   1.00
C1445  C     0.03736   0.63905   0.05753   0.00000  Uiso   1.00
C1446  C     0.11851   0.93047   0.16417   0.00000  Uiso   1.00
C1447  C     0.49985   0.75095   0.39828   0.00000  Uiso   1.00
C1448  C     0.11823   0.92599   0.11991   0.00000  Uiso   1.00
C1449  C     0.08758   0.94779   0.10137   0.00000  Uiso   1.00
C1450  C     0.31474   0.61875   0.83016   0.00000  Uiso   1.00
C1451  C     0.29722   0.60126   0.86606   0.00000  Uiso   1.00
C1452  C     0.26086   0.61900   0.87604   0.00000  Uiso   1.00
C1453  C     0.03447   0.59173   0.25887   0.00000  Uiso   1.00
C1454  C     0.49493   0.58495   0.24667   0.00000  Uiso   1.00
C1455  C     0.47369   0.56405   0.27779   0.00000  Uiso   1.00
C1456  C     0.43844   0.88830   0.82369   0.00000  Uiso   1.00
C1457  C     0.42942   0.92514   0.84277   0.00000  Uiso   1.00
C1458  C     0.00010   0.75103   0.60165   0.00000  Uiso   1.00
C1459  C     0.43162   0.92350   0.88710   0.00000  Uiso   1.00
C1460  C     0.39674   0.55958   0.17896   0.00000  Uiso   1.00
C1461  C     0.40283   0.55265   0.13550   0.00000  Uiso   1.00
C1462  C     0.44095   0.53794   0.12752   0.00000  Uiso   1.00
C1463  C     0.17118   0.89619   0.83778   0.00000  Uiso   1.00
C1464  C     0.15817   0.86721   0.86689   0.00000  Uiso   1.00
C1465  C     0.18858   0.85605   0.89457   0.00000  Uiso   1.00
C1466  C     0.46480   0.91149   0.24994   0.00000  Uiso   1.00
C1467  C     0.00253   0.92022   0.23315   0.00000  Uiso   1.00
C1468  C     0.02517   0.94355   0.26093   0.00000  Uiso   1.00
C1469  C     0.25004   0.99989   0.39817   0.00000  Uiso   1.00
C1470  C     0.05715   0.60271   0.82091   0.00000  Uiso   1.00
C1471  C     0.02880   0.57362   0.83165   0.00000  Uiso   1.00
C1472  C     0.03257   0.56136   0.87392   0.00000  Uiso   1.00
C1473  C     0.09152   0.53537   0.74431   0.00000  Uiso   1.00
C1474  C     0.08323   0.99645   0.75766   0.00000  Uiso   1.00
C1475  C     0.06420   0.97429   0.72603   0.00000  Uiso   1.00
C1476  C     0.38378   0.94079   0.17507   0.00000  Uiso   1.00
C1477  C     0.41892   0.93362   0.15210   0.00000  Uiso   1.00
C1478  C     0.41437   0.94209   0.10896   0.00000  Uiso   1.00
C1479  C     0.05304   0.89006   0.81675   0.00000  Uiso   1.00
C1480  C     0.03015   0.73828   0.58116   0.00000  Uiso   1.00
C1481  C     0.24992   0.99966   0.60187   0.00000  Uiso   1.00
C1482  C     0.06247   0.92589   0.83764   0.00000  Uiso   1.00
C1483  C     0.02879   0.94921   0.84432   0.00000  Uiso   1.00
C1484  C     0.39798   0.67231   0.16312   0.00000  Uiso   1.00
C1485  C     0.36726   0.66212   0.13500   0.00000  Uiso   1.00
C1486  C     0.35520   0.69504   0.11118   0.00000  Uiso   1.00
C1487  C     0.41304   0.96114   0.73528   0.00000  Uiso   1.00
C1488  C     0.42382   0.50055   0.74448   0.00000  Uiso   1.00
C1489  C     0.44657   0.51728   0.71173   0.00000  Uiso   1.00
C1490  C     0.09754   0.55317   0.18462   0.00000  Uiso   1.00
C1491  C     0.06459   0.52767   0.17989   0.00000  Uiso   1.00
C1492  C     0.25001   0.50171   0.89827   0.00000  Uiso   1.00
C1493  C     0.04363   0.53548   0.14253   0.00000  Uiso   1.00
C1494  C     0.42222   0.63385   0.84127   0.00000  Uiso   1.00
C1495  C     0.43399   0.65481   0.87771   0.00000  Uiso   1.00
C1496  C     0.46568   0.63631   0.89819   0.00000  Uiso   1.00
C1497  C     0.11197   0.82291   0.16508   0.00000  Uiso   1.00
C1498  C     0.09334   0.80947   0.12794   0.00000  Uiso   1.00
C1499  C     0.11020   0.77407   0.11316   0.00000  Uiso   1.00
C1500  C     0.37925   0.66967   0.65617   0.00000  Uiso   1.00
C1501  C     0.38523   0.65833   0.61371   0.00000  Uiso   1.00
C1502  C     0.35570   0.67314   0.58696   0.00000  Uiso   1.00
C1503  C     0.25021   0.50156   0.10162   0.00000  Uiso   1.00
C1504  C     0.07207   0.86052   0.33431   0.00000  Uiso   1.00
C1505  C     0.08253   0.89338   0.35961   0.00000  Uiso   1.00
C1506  C     0.04946   0.90877   0.38094   0.00000  Uiso   1.00
C1507  C     0.28524   0.84154   0.76448   0.00000  Uiso   1.00
C1508  C     0.24663   0.83023   0.75298   0.00000  Uiso   1.00
C1509  C     0.22676   0.81090   0.78618   0.00000  Uiso   1.00
C1510  C     0.18717   0.63561   0.32608   0.00000  Uiso   1.00
C1511  C     0.17711   0.67146   0.34663   0.00000  Uiso   1.00
C1512  C     0.18017   0.66846   0.39081   0.00000  Uiso   1.00
C1513  C     0.14131   0.80183   0.68582   0.00000  Uiso   1.00
C1514  C     0.49957   0.74935   0.89822   0.00000  Uiso   1.00
C1515  C     0.17889   0.81136   0.66890   0.00000  Uiso   1.00
C1516  C     0.20250   0.77752   0.66432   0.00000  Uiso   1.00
C1517  C     0.42059   0.64656   0.33742   0.00000  Uiso   1.00
C1518  C     0.40786   0.61672   0.36565   0.00000  Uiso   1.00
C1519  C     0.43883   0.60414   0.39187   0.00000  Uiso   1.00
C1520  C     0.21317   0.66291   0.75328   0.00000  Uiso   1.00
C1521  C     0.25235   0.67024   0.74002   0.00000  Uiso   1.00
C1522  C     0.27243   0.69534   0.76829   0.00000  Uiso   1.00
C1523  C     0.31157   0.86414   0.32639   0.00000  Uiso   1.00
C1524  C     0.31393   0.82694   0.34676   0.00000  Uiso   1.00
C1525  C     0.49984   0.74947   0.10179   0.00000  Uiso   1.00
C1526  C     0.30863   0.83011   0.39072   0.00000  Uiso   1.00
C1527  C     0.34051   0.78655   0.24391   0.00000  Uiso   1.00
C1528  C     0.33033   0.74809   0.25734   0.00000  Uiso   1.00
C1529  C     0.31098   0.72653   0.22545   0.00000  Uiso   1.00
C1530  C     0.13352   0.68872   0.67417   0.00000  Uiso   1.00
C1531  C     0.16832   0.67897   0.65169   0.00000  Uiso   1.00
C1532  C     0.16435   0.68639   0.60824   0.00000  Uiso   1.00
C1533  C     0.30196   0.64062   0.31580   0.00000  Uiso   1.00
C1534  C     0.31083   0.67660   0.33665   0.00000  Uiso   1.00
C1535  C     0.27678   0.69954   0.34297   0.00000  Uiso   1.00
C1536  C     0.06366   0.73127   0.47938   0.00000  Uiso   1.00
C1537  C     0.14675   0.92188   0.66303   0.00000  Uiso   1.00
C1538  C     0.11554   0.91045   0.63606   0.00000  Uiso   1.00
C1539  C     0.10302   0.94226   0.61084   0.00000  Uiso   1.00
C1540  C     0.16054   0.71248   0.23974   0.00000  Uiso   1.00
C1541  C     0.16878   0.75224   0.25011   0.00000  Uiso   1.00
C1542  C     0.18948   0.77165   0.21750   0.00000  Uiso   1.00
C1543  C     0.34773   0.79683   0.69294   0.00000  Uiso   1.00
C1544  C     0.32557   0.76155   0.68951   0.00000  Uiso   1.00
C1545  C     0.31529   0.75362   0.64736   0.00000  Uiso   1.00
C1546  C     0.19343   0.86098   0.31959   0.00000  Uiso   1.00
C1547  C     0.43948   0.78152   0.52083   0.00000  Uiso   1.00
C1548  C     0.18125   0.82462   0.33784   0.00000  Uiso   1.00
C1549  C     0.21354   0.79999   0.34651   0.00000  Uiso   1.00
C1550  C     0.36861   0.56647   0.66874   0.00000  Uiso   1.00
C1551  C     0.35135   0.54965   0.63242   0.00000  Uiso   1.00
C1552  C     0.37146   0.51539   0.61945   0.00000  Uiso   1.00
C1553  C     0.30579   0.96237   0.47935   0.00000  Uiso   1.00
C1554  C     0.19423   0.53756   0.52077   0.00000  Uiso   1.00
C1555  C     0.43723   0.77696   0.47976   0.00000  Uiso   1.00
C1556  C     0.22316   0.51853   0.41831   0.00000  Uiso   1.00
C1557  C     0.06043   0.72321   0.51953   0.00000  Uiso   1.00
C1558  C     0.19196   0.53367   0.47965   0.00000  Uiso   1.00
C1559  C     0.30287   0.95797   0.52036   0.00000  Uiso   1.00
C1560  C     0.31434   0.98370   0.97929   0.00000  Uiso   1.00
C1561  C     0.19015   0.53332   0.02088   0.00000  Uiso   1.00
C1562  C     0.04753   0.70182   0.97930   0.00000  Uiso   1.00
C1563  C     0.44912   0.79370   0.02067   0.00000  Uiso   1.00
C1564  C     0.18789   0.52900   0.97978   0.00000  Uiso   1.00
C1565  C     0.31125   0.97546   0.01939   0.00000  Uiso   1.00
C1566  C     0.44613   0.78985   0.97966   0.00000  Uiso   1.00
C1567  C     0.27516   0.97874   0.58184   0.00000  Uiso   1.00
C1568  C     0.04425   0.69843   0.02043   0.00000  Uiso   1.00
C1569  C     0.25008   0.50000   0.35586   0.00000  Uiso   1.00
C1570  C     0.25007   0.99995   0.64416   0.00000  Uiso   1.00
C1571  C     0.49994   0.75009   0.35589   0.00000  Uiso   1.00
C1572  C     0.00004   0.75016   0.64408   0.00000  Uiso   1.00
C1573  C     0.00001   0.74993   0.85588   0.00000  Uiso   1.00
C1574  C     0.00016   0.74993   0.14413   0.00000  Uiso   1.00
C1575  C     0.24995   0.50021   0.85589   0.00000  Uiso   1.00
C1576  C     0.25005   0.50023   0.14407   0.00000  Uiso   1.00
C1577  C     0.17964   0.56986   0.25053   0.00000  Uiso   1.00
C1578  C     0.03077   0.74039   0.41841   0.00000  Uiso   1.00
C1579  C     0.32004   0.93002   0.74975   0.00000  Uiso   1.00
C1580  C     0.43005   0.68005   0.25003   0.00000  Uiso   1.00
C1581  C     0.07019   0.82006   0.75009   0.00000  Uiso   1.00
C1582  C     0.32021   0.92996   0.25011   0.00000  Uiso   1.00
C1583  C     0.18004   0.57008   0.75013   0.00000  Uiso   1.00
C1584  C     0.06981   0.82007   0.25004   0.00000  Uiso   1.00
C1585  C     0.42990   0.68004   0.75013   0.00000  Uiso   1.00
C1586  C     0.18009   0.93004   0.75005   0.00000  Uiso   1.00
C1587  C     0.32006   0.57015   0.25003   0.00000  Uiso   1.00
C1588  C     0.42963   0.81984   0.75063   0.00000  Uiso   1.00
C1589  C     0.47011   0.76475   0.58187   0.00000  Uiso   1.00
C1590  C     0.06999   0.67999   0.24984   0.00000  Uiso   1.00
C1591  C     0.31997   0.56998   0.74996   0.00000  Uiso   1.00
C1592  C     0.18022   0.92963   0.24983   0.00000  Uiso   1.00
C1593  C     0.07001   0.67979   0.74978   0.00000  Uiso   1.00
C1594  C     0.43002   0.82004   0.24997   0.00000  Uiso   1.00
C1595  C     0.13437   0.89242   0.21466   0.00000  Uiso   1.00
C1596  C     0.36044   0.61225   0.78567   0.00000  Uiso   1.00
C1597  C     0.08870   0.61585   0.23861   0.00000  Uiso   1.00
C1598  C     0.40910   0.88331   0.76509   0.00000  Uiso   1.00
C1599  C     0.37004   0.60373   0.21664   0.00000  Uiso   1.00
C1600  C     0.27648   0.98052   0.41804   0.00000  Uiso   1.00
C1601  C     0.13314   0.89431   0.78470   0.00000  Uiso   1.00
C1602  C     0.41060   0.88338   0.23616   0.00000  Uiso   1.00
C1603  C     0.09049   0.61700   0.76593   0.00000  Uiso   1.00
C1604  C     0.11661   0.58947   0.76316   0.00000  Uiso   1.00
C1605  C     0.38286   0.90909   0.23284   0.00000  Uiso   1.00
C1606  C     0.10369   0.87027   0.78360   0.00000  Uiso   1.00
C1607  C     0.39418   0.63320   0.21537   0.00000  Uiso   1.00
C1608  C     0.38374   0.91102   0.75946   0.00000  Uiso   1.00
C1609  C     0.11615   0.58939   0.23635   0.00000  Uiso   1.00
C1610  C     0.38814   0.63860   0.78582   0.00000  Uiso   1.00
C1611  C     0.22396   0.51958   0.58201   0.00000  Uiso   1.00
C1612  C     0.10850   0.86423   0.21443   0.00000  Uiso   1.00
C1613  C     0.38802   0.63910   0.71437   0.00000  Uiso   1.00
C1614  C     0.11444   0.85812   0.28497   0.00000  Uiso   1.00
C1615  C     0.33836   0.86544   0.74078   0.00000  Uiso   1.00
C1616  C     0.15843   0.63266   0.26695   0.00000  Uiso   1.00
C1617  C     0.12085   0.85327   0.71692   0.00000  Uiso   1.00
C1618  C     0.38250   0.64483   0.28439   0.00000  Uiso   1.00
C1619  C     0.16049   0.63337   0.73692   0.00000  Uiso   1.00
C1620  C     0.34149   0.86754   0.26752   0.00000  Uiso   1.00
C1621  C     0.36699   0.83979   0.26342   0.00000  Uiso   1.00
C1622  C     0.21942   0.51403   0.91829   0.00000  Uiso   1.00
C1623  C     0.13265   0.65881   0.73281   0.00000  Uiso   1.00
C1624  C     0.35296   0.62094   0.28321   0.00000  Uiso   1.00
C1625  C     0.14446   0.88303   0.71557   0.00000  Uiso   1.00
C1626  C     0.13322   0.66049   0.26177   0.00000  Uiso   1.00
C1627  C     0.36558   0.83871   0.73920   0.00000  Uiso   1.00
C1628  C     0.14472   0.88114   0.28406   0.00000  Uiso   1.00
C1629  C     0.36186   0.61107   0.71441   0.00000  Uiso   1.00
C1630  C     0.03180   0.74170   0.45904   0.00000  Uiso   1.00
C1631  C     0.46972   0.76662   0.54105   0.00000  Uiso   1.00
C1632  C     0.27754   0.98055   0.45897   0.00000  Uiso   1.00
H1633  H     0.44633   0.77196   0.40122   0.00000  Uiso   1.00
H1634  H     0.30360   0.97978   0.09750   0.00000  Uiso   1.00
H1635  H     0.11456   0.89670   0.11244   0.00000  Uiso   1.00
H1636  H     0.06068   0.93791   0.11204   0.00000  Uiso   1.00
H1637  H     0.08864   0.94461   0.06922   0.00000  Uiso   1.00
H1638  H     0.09068   0.97710   0.10861   0.00000  Uiso   1.00
H1639  H     0.29467   0.61783   0.80587   0.00000  Uiso   1.00
H1640  H     0.32159   0.64773   0.83688   0.00000  Uiso   1.00
H1641  H     0.29259   0.57173   0.86047   0.00000  Uiso   1.00
H1642  H     0.31594   0.60397   0.89130   0.00000  Uiso   1.00
H1643  H     0.26480   0.64852   0.88220   0.00000  Uiso   1.00
H1644  H     0.24900   0.60568   0.90226   0.00000  Uiso   1.00
H1645  H     0.45848   0.78944   0.90161   0.00000  Uiso   1.00
H1646  H     0.24146   0.61570   0.85149   0.00000  Uiso   1.00
H1647  H     0.03455   0.61061   0.28438   0.00000  Uiso   1.00
H1648  H     0.04694   0.56531   0.26750   0.00000  Uiso   1.00
H1649  H     0.48148   0.61153   0.24146   0.00000  Uiso   1.00
H1650  H     0.49417   0.56914   0.21905   0.00000  Uiso   1.00
H1651  H     0.48511   0.53626   0.28140   0.00000  Uiso   1.00
H1652  H     0.44470   0.56154   0.26893   0.00000  Uiso   1.00
H1653  H     0.47501   0.57869   0.30603   0.00000  Uiso   1.00
H1654  H     0.46506   0.87891   0.83501   0.00000  Uiso   1.00
H1655  H     0.41808   0.86716   0.83281   0.00000  Uiso   1.00
H1656  H     0.03906   0.70768   0.09902   0.00000  Uiso   1.00
H1657  H     0.44845   0.94643   0.83175   0.00000  Uiso   1.00
H1658  H     0.40123   0.93319   0.83541   0.00000  Uiso   1.00
H1659  H     0.40855   0.90711   0.89863   0.00000  Uiso   1.00
H1660  H     0.42953   0.95150   0.89928   0.00000  Uiso   1.00
H1661  H     0.45768   0.91133   0.89677   0.00000  Uiso   1.00
H1662  H     0.39183   0.53306   0.19384   0.00000  Uiso   1.00
H1663  H     0.42226   0.57146   0.19140   0.00000  Uiso   1.00
H1664  H     0.38206   0.53291   0.12478   0.00000  Uiso   1.00
H1665  H     0.39964   0.57855   0.11911   0.00000  Uiso   1.00
H1666  H     0.46169   0.55911   0.13450   0.00000  Uiso   1.00
H1667  H     0.30405   0.98146   0.90198   0.00000  Uiso   1.00
H1668  H     0.44362   0.53058   0.09627   0.00000  Uiso   1.00
H1669  H     0.44616   0.51340   0.14551   0.00000  Uiso   1.00
H1670  H     0.18566   0.91817   0.85393   0.00000  Uiso   1.00
H1671  H     0.19146   0.88436   0.81714   0.00000  Uiso   1.00
H1672  H     0.13511   0.87817   0.88434   0.00000  Uiso   1.00
H1673  H     0.14845   0.84273   0.85078   0.00000  Uiso   1.00
H1674  H     0.21219   0.84521   0.87805   0.00000  Uiso   1.00
H1675  H     0.17842   0.83448   0.91460   0.00000  Uiso   1.00
H1676  H     0.19761   0.87985   0.91222   0.00000  Uiso   1.00
H1677  H     0.46811   0.89513   0.27705   0.00000  Uiso   1.00
H1678  H     0.19721   0.52409   0.09903   0.00000  Uiso   1.00
H1679  H     0.45086   0.93760   0.25705   0.00000  Uiso   1.00
H1680  H     0.01721   0.89436   0.22720   0.00000  Uiso   1.00
H1681  H     0.49949   0.93513   0.20517   0.00000  Uiso   1.00
H1682  H     0.01166   0.97017   0.26615   0.00000  Uiso   1.00
H1683  H     0.05246   0.94872   0.24792   0.00000  Uiso   1.00
H1684  H     0.02877   0.92923   0.28909   0.00000  Uiso   1.00
H1685  H     0.05029   0.62860   0.83610   0.00000  Uiso   1.00
H1686  H     0.08427   0.59376   0.83184   0.00000  Uiso   1.00
H1687  H     0.00104   0.58468   0.82697   0.00000  Uiso   1.00
H1688  H     0.03220   0.54948   0.81241   0.00000  Uiso   1.00
H1689  H     0.03914   0.70779   0.90061   0.00000  Uiso   1.00
H1690  H     0.05928   0.54790   0.87836   0.00000  Uiso   1.00
H1691  H     0.01058   0.54152   0.88107   0.00000  Uiso   1.00
H1692  H     0.03040   0.58499   0.89398   0.00000  Uiso   1.00
H1693  H     0.11029   0.53420   0.71873   0.00000  Uiso   1.00
H1694  H     0.06554   0.54858   0.73556   0.00000  Uiso   1.00
H1695  H     0.10906   0.98274   0.76561   0.00000  Uiso   1.00
H1696  H     0.06545   0.99735   0.78386   0.00000  Uiso   1.00
H1697  H     0.03722   0.98627   0.71942   0.00000  Uiso   1.00
H1698  H     0.06016   0.94579   0.73618   0.00000  Uiso   1.00
H1699  H     0.08094   0.97390   0.69910   0.00000  Uiso   1.00
H1700  H     0.45996   0.79044   0.09923   0.00000  Uiso   1.00
H1701  H     0.37298   0.96786   0.16639   0.00000  Uiso   1.00
H1702  H     0.36244   0.92035   0.16688   0.00000  Uiso   1.00
H1703  H     0.44141   0.95060   0.16405   0.00000  Uiso   1.00
H1704  H     0.42644   0.90444   0.15468   0.00000  Uiso   1.00
H1705  H     0.39385   0.92334   0.09612   0.00000  Uiso   1.00
H1706  H     0.44075   0.93826   0.09362   0.00000  Uiso   1.00
H1707  H     0.40551   0.97068   0.10473   0.00000  Uiso   1.00
H1708  H     0.03043   0.87656   0.83286   0.00000  Uiso   1.00
H1709  H     0.04252   0.89580   0.78690   0.00000  Uiso   1.00
H1710  H     0.07538   0.91993   0.86615   0.00000  Uiso   1.00
H1711  H     0.09241   0.77835   0.42001   0.00000  Uiso   1.00
H1712  H     0.08175   0.94196   0.81961   0.00000  Uiso   1.00
H1713  H     0.01493   0.95474   0.81623   0.00000  Uiso   1.00
H1714  H     0.03691   0.97563   0.85765   0.00000  Uiso   1.00
H1715  H     0.00978   0.93505   0.86443   0.00000  Uiso   1.00
H1716  H     0.42038   0.68546   0.14628   0.00000  Uiso   1.00
H1717  H     0.38827   0.69315   0.18441   0.00000  Uiso   1.00
H1718  H     0.37680   0.64052   0.11474   0.00000  Uiso   1.00
H1719  H     0.34357   0.65139   0.15174   0.00000  Uiso   1.00
H1720  H     0.34544   0.71716   0.13065   0.00000  Uiso   1.00
H1721  H     0.33264   0.68688   0.09151   0.00000  Uiso   1.00
H1722  H     0.11066   0.78953   0.46730   0.00000  Uiso   1.00
H1723  H     0.37820   0.70550   0.09318   0.00000  Uiso   1.00
H1724  H     0.39597   0.96083   0.70847   0.00000  Uiso   1.00
H1725  H     0.43832   0.94515   0.73001   0.00000  Uiso   1.00
H1726  H     0.39884   0.51708   0.74890   0.00000  Uiso   1.00
H1727  H     0.43987   0.50128   0.77189   0.00000  Uiso   1.00
H1728  H     0.47270   0.50245   0.70858   0.00000  Uiso   1.00
H1729  H     0.45257   0.54632   0.71856   0.00000  Uiso   1.00
H1730  H     0.43161   0.51591   0.68373   0.00000  Uiso   1.00
H1731  H     0.12061   0.54206   0.16731   0.00000  Uiso   1.00
H1732  H     0.09128   0.58046   0.17194   0.00000  Uiso   1.00
H1733  H     0.13903   0.76846   0.43079   0.00000  Uiso   1.00
H1734  H     0.07383   0.99888   0.17977   0.00000  Uiso   1.00
H1735  H     0.04571   0.53086   0.20494   0.00000  Uiso   1.00
H1736  H     0.03117   0.56301   0.14405   0.00000  Uiso   1.00
H1737  H     0.02164   0.51485   0.13887   0.00000  Uiso   1.00
H1738  H     0.06199   0.53430   0.11687   0.00000  Uiso   1.00
H1739  H     0.44670   0.62755   0.82329   0.00000  Uiso   1.00
H1740  H     0.40924   0.60774   0.85053   0.00000  Uiso   1.00
H1741  H     0.44243   0.68295   0.86951   0.00000  Uiso   1.00
H1742  H     0.41054   0.65680   0.89815   0.00000  Uiso   1.00
H1743  H     0.45850   0.60769   0.90577   0.00000  Uiso   1.00
H1744  H     0.05328   0.72874   0.59757   0.00000  Uiso   1.00
H1745  H     0.12349   0.72467   0.47884   0.00000  Uiso   1.00
H1746  H     0.47235   0.65139   0.92534   0.00000  Uiso   1.00
H1747  H     0.49004   0.63661   0.87895   0.00000  Uiso   1.00
H1748  H     0.11179   0.80023   0.18669   0.00000  Uiso   1.00
H1749  H     0.14070   0.83046   0.15805   0.00000  Uiso   1.00
H1750  H     0.06396   0.80469   0.13388   0.00000  Uiso   1.00
H1751  H     0.09574   0.83070   0.10496   0.00000  Uiso   1.00
H1752  H     0.13965   0.77814   0.10693   0.00000  Uiso   1.00
H1753  H     0.09638   0.76541   0.08592   0.00000  Uiso   1.00
H1754  H     0.10682   0.75209   0.13518   0.00000  Uiso   1.00
H1755  H     0.38497   0.69936   0.65895   0.00000  Uiso   1.00
H1756  H     0.10158   0.71069   0.43529   0.00000  Uiso   1.00
H1757  H     0.35005   0.66536   0.66417   0.00000  Uiso   1.00
H1758  H     0.41228   0.66844   0.60365   0.00000  Uiso   1.00
H1759  H     0.38517   0.62810   0.61159   0.00000  Uiso   1.00
H1760  H     0.32845   0.66305   0.59630   0.00000  Uiso   1.00
H1761  H     0.36084   0.66381   0.55667   0.00000  Uiso   1.00
H1762  H     0.35593   0.70335   0.58728   0.00000  Uiso   1.00
H1763  H     0.05698   0.84048   0.35263   0.00000  Uiso   1.00
H1764  H     0.05294   0.86898   0.31084   0.00000  Uiso   1.00
H1765  H     0.10318   0.88498   0.38139   0.00000  Uiso   1.00
H1766  H     0.09459   0.91511   0.34096   0.00000  Uiso   1.00
H1767  H     0.38894   0.75970   0.57740   0.00000  Uiso   1.00
H1768  H     0.02831   0.91730   0.35983   0.00000  Uiso   1.00
H1769  H     0.05783   0.93292   0.39837   0.00000  Uiso   1.00
H1770  H     0.03773   0.88795   0.40094   0.00000  Uiso   1.00
H1771  H     0.28366   0.86227   0.78820   0.00000  Uiso   1.00
H1772  H     0.29982   0.81700   0.77535   0.00000  Uiso   1.00
H1773  H     0.23104   0.85487   0.74448   0.00000  Uiso   1.00
H1774  H     0.24799   0.81151   0.72755   0.00000  Uiso   1.00
H1775  H     0.24066   0.78496   0.79347   0.00000  Uiso   1.00
H1776  H     0.19834   0.80465   0.77726   0.00000  Uiso   1.00
H1777  H     0.22610   0.82856   0.81238   0.00000  Uiso   1.00
H1778  H     0.35964   0.79875   0.57299   0.00000  Uiso   1.00
H1779  H     0.21389   0.62637   0.33728   0.00000  Uiso   1.00
H1780  H     0.16720   0.61368   0.33398   0.00000  Uiso   1.00
H1781  H     0.19518   0.69381   0.33611   0.00000  Uiso   1.00
H1782  H     0.14850   0.67864   0.33997   0.00000  Uiso   1.00
H1783  H     0.15879   0.64974   0.40208   0.00000  Uiso   1.00
H1784  H     0.17598   0.69574   0.40417   0.00000  Uiso   1.00
H1785  H     0.20740   0.65826   0.39944   0.00000  Uiso   1.00
H1786  H     0.12924   0.77965   0.66794   0.00000  Uiso   1.00
H1787  H     0.14427   0.79069   0.71591   0.00000  Uiso   1.00
H1788  H     0.17568   0.82464   0.64003   0.00000  Uiso   1.00
H1789  H     0.36493   0.76777   0.53262   0.00000  Uiso   1.00
H1790  H     0.19318   0.83049   0.68872   0.00000  Uiso   1.00
H1791  H     0.20470   0.76273   0.69246   0.00000  Uiso   1.00
H1792  H     0.23025   0.78571   0.65466   0.00000  Uiso   1.00
H1793  H     0.19066   0.75915   0.64201   0.00000  Uiso   1.00
H1794  H     0.43466   0.66833   0.35429   0.00000  Uiso   1.00
H1795  H     0.44117   0.63550   0.31663   0.00000  Uiso   1.00
H1796  H     0.38539   0.62735   0.38417   0.00000  Uiso   1.00
H1797  H     0.39745   0.59295   0.34884   0.00000  Uiso   1.00
H1798  H     0.46171   0.59337   0.37412   0.00000  Uiso   1.00
H1799  H     0.42884   0.58213   0.41145   0.00000  Uiso   1.00
H1800  H     0.42384   0.81889   0.56763   0.00000  Uiso   1.00
H1801  H     0.44884   0.62719   0.41003   0.00000  Uiso   1.00
H1802  H     0.21384   0.64785   0.78149   0.00000  Uiso   1.00
H1803  H     0.19922   0.68954   0.75754   0.00000  Uiso   1.00
H1804  H     0.26715   0.64394   0.73782   0.00000  Uiso   1.00
H1805  H     0.25220   0.68317   0.71073   0.00000  Uiso   1.00
H1806  H     0.25963   0.72273   0.76859   0.00000  Uiso   1.00
H1807  H     0.30128   0.69836   0.75892   0.00000  Uiso   1.00
H1808  H     0.27178   0.68381   0.79819   0.00000  Uiso   1.00
H1809  H     0.28647   0.87809   0.33653   0.00000  Uiso   1.00
H1810  H     0.33486   0.88191   0.33558   0.00000  Uiso   1.00
H1811  H     0.40143   0.82729   0.52465   0.00000  Uiso   1.00
H1812  H     0.29302   0.80818   0.33464   0.00000  Uiso   1.00
H1813  H     0.34112   0.81481   0.34177   0.00000  Uiso   1.00
H1814  H     0.33245   0.84413   0.40383   0.00000  Uiso   1.00
H1815  H     0.30650   0.80239   0.40361   0.00000  Uiso   1.00
H1816  H     0.28341   0.84538   0.39782   0.00000  Uiso   1.00
H1817  H     0.35910   0.78453   0.21825   0.00000  Uiso   1.00
H1818  H     0.31516   0.80106   0.23534   0.00000  Uiso   1.00
H1819  H     0.35542   0.73333   0.26590   0.00000  Uiso   1.00
H1820  H     0.31211   0.75000   0.28317   0.00000  Uiso   1.00
H1821  H     0.28518   0.74018   0.21726   0.00000  Uiso   1.00
H1822  H     0.33296   0.89168   0.46698   0.00000  Uiso   1.00
H1823  H     0.30454   0.69865   0.23619   0.00000  Uiso   1.00
H1824  H     0.32874   0.72420   0.19938   0.00000  Uiso   1.00
H1825  H     0.12386   0.71574   0.66413   0.00000  Uiso   1.00
H1826  H     0.11127   0.66895   0.66690   0.00000  Uiso   1.00
H1827  H     0.19169   0.69505   0.66314   0.00000  Uiso   1.00
H1828  H     0.17422   0.64951   0.65546   0.00000  Uiso   1.00
H1829  H     0.14181   0.66959   0.59629   0.00000  Uiso   1.00
H1830  H     0.18998   0.67913   0.59291   0.00000  Uiso   1.00
H1831  H     0.15856   0.71566   0.60290   0.00000  Uiso   1.00
H1832  H     0.27929   0.62697   0.33166   0.00000  Uiso   1.00
H1833  H     0.31350   0.90850   0.42248   0.00000  Uiso   1.00
H1834  H     0.29171   0.64617   0.28580   0.00000  Uiso   1.00
H1835  H     0.32355   0.67084   0.36532   0.00000  Uiso   1.00
H1836  H     0.33019   0.69277   0.31879   0.00000  Uiso   1.00
H1837  H     0.26285   0.70458   0.31481   0.00000  Uiso   1.00
H1838  H     0.28446   0.72623   0.35602   0.00000  Uiso   1.00
H1839  H     0.25788   0.68531   0.36319   0.00000  Uiso   1.00
H1840  H     0.16843   0.93515   0.64527   0.00000  Uiso   1.00
H1841  H     0.13728   0.94288   0.68423   0.00000  Uiso   1.00
H1842  H     0.12474   0.88787   0.61680   0.00000  Uiso   1.00
H1843  H     0.09215   0.90052   0.65381   0.00000  Uiso   1.00
H1844  H     0.36217   0.90388   0.42674   0.00000  Uiso   1.00
H1845  H     0.09363   0.96524   0.62936   0.00000  Uiso   1.00
H1846  H     0.08008   0.93324   0.59210   0.00000  Uiso   1.00
H1847  H     0.12566   0.95189   0.59182   0.00000  Uiso   1.00
H1848  H     0.14301   0.71189   0.21326   0.00000  Uiso   1.00
H1849  H     0.18670   0.69829   0.23347   0.00000  Uiso   1.00
H1850  H     0.14281   0.76682   0.25569   0.00000  Uiso   1.00
H1851  H     0.18539   0.75320   0.27710   0.00000  Uiso   1.00
H1852  H     0.21649   0.75878   0.21299   0.00000  Uiso   1.00
H1853  H     0.19369   0.80075   0.22549   0.00000  Uiso   1.00
H1854  H     0.17382   0.77035   0.18991   0.00000  Uiso   1.00
H1855  H     0.20386   0.53386   0.40128   0.00000  Uiso   1.00
H1856  H     0.34642   0.96898   0.43313   0.00000  Uiso   1.00
H1857  H     0.37342   0.79403   0.67596   0.00000  Uiso   1.00
H1858  H     0.33163   0.81940   0.67992   0.00000  Uiso   1.00
H1859  H     0.34174   0.73842   0.70108   0.00000  Uiso   1.00
H1860  H     0.30027   0.76390   0.70722   0.00000  Uiso   1.00
H1861  H     0.29768   0.77562   0.63580   0.00000  Uiso   1.00
H1862  H     0.30025   0.72729   0.64571   0.00000  Uiso   1.00
H1863  H     0.34022   0.75174   0.62920   0.00000  Uiso   1.00
H1864  H     0.21501   0.87316   0.33820   0.00000  Uiso   1.00
H1865  H     0.20626   0.85595   0.29054   0.00000  Uiso   1.00
H1866  H     0.16609   0.82992   0.36534   0.00000  Uiso   1.00
H1867  H     0.36469   0.95350   0.47614   0.00000  Uiso   1.00
H1868  H     0.16316   0.80977   0.31735   0.00000  Uiso   1.00
H1869  H     0.22930   0.79465   0.31944   0.00000  Uiso   1.00
H1870  H     0.20357   0.77351   0.35825   0.00000  Uiso   1.00
H1871  H     0.23145   0.81293   0.36856   0.00000  Uiso   1.00
H1872  H     0.36812   0.54560   0.69232   0.00000  Uiso   1.00
H1873  H     0.39736   0.57417   0.66206   0.00000  Uiso   1.00
H1874  H     0.32250   0.54243   0.63874   0.00000  Uiso   1.00
H1875  H     0.35179   0.56985   0.60831   0.00000  Uiso   1.00
H1876  H     0.40049   0.52183   0.61320   0.00000  Uiso   1.00
H1877  H     0.35874   0.50459   0.59249   0.00000  Uiso   1.00
H1878  H     0.20938   0.59248   0.57459   0.00000  Uiso   1.00
H1879  H     0.36982   0.99410   0.64242   0.00000  Uiso   1.00
H1880  H     0.19326   0.61388   0.53079   0.00000  Uiso   1.00
H1881  H     0.16505   0.61296   0.57387   0.00000  Uiso   1.00
H1882  H     0.14315   0.56963   0.52591   0.00000  Uiso   1.00
H1883  H     0.15522   0.54655   0.56804   0.00000  Uiso   1.00
H1884  H     0.40090   0.73338   0.42469   0.00000  Uiso   1.00
H1885  H     0.37625   0.73211   0.47013   0.00000  Uiso   1.00
H1886  H     0.35769   0.75591   0.42882   0.00000  Uiso   1.00
H1887  H     0.29479   0.96412   0.59910   0.00000  Uiso   1.00
H1888  H     0.38109   0.79913   0.47562   0.00000  Uiso   1.00
H1889  H     0.40658   0.80336   0.43307   0.00000  Uiso   1.00
H1890  H     0.04719   0.66776   0.57670   0.00000  Uiso   1.00
H1891  H     0.05239   0.64902   0.52836   0.00000  Uiso   1.00
H1892  H     0.08719   0.64230   0.56445   0.00000  Uiso   1.00
H1893  H     0.10804   0.68644   0.51939   0.00000  Uiso   1.00
H1894  H     0.10088   0.71037   0.56360   0.00000  Uiso   1.00
H1895  H     0.15909   0.60286   0.47013   0.00000  Uiso   1.00
H1896  H     0.18250   0.58950   0.42623   0.00000  Uiso   1.00
H1897  H     0.13339   0.59005   0.42768   0.00000  Uiso   1.00
H1898  H     0.05366   0.73014   0.40190   0.00000  Uiso   1.00
H1899  H     0.15291   0.52644   0.43222   0.00000  Uiso   1.00
H1900  H     0.13261   0.53859   0.47548   0.00000  Uiso   1.00
H1901  H     0.28368   0.90471   0.57574   0.00000  Uiso   1.00
H1902  H     0.29419   0.88306   0.52990   0.00000  Uiso   1.00
H1903  H     0.32460   0.87834   0.57070   0.00000  Uiso   1.00
H1904  H     0.35018   0.92052   0.52428   0.00000  Uiso   1.00
H1905  H     0.34120   0.94447   0.56693   0.00000  Uiso   1.00
H1906  H     0.34190   0.53104   0.91943   0.00000  Uiso   1.00
H1907  H     0.35938   0.54321   0.96679   0.00000  Uiso   1.00
H1908  H     0.38873   0.52278   0.93076   0.00000  Uiso   1.00
H1909  H     0.44716   0.77365   0.59907   0.00000  Uiso   1.00
H1910  H     0.37430   0.97877   0.97887   0.00000  Uiso   1.00
H1911  H     0.35283   0.96394   0.93534   0.00000  Uiso   1.00
H1912  H     0.11489   0.52151   0.03200   0.00000  Uiso   1.00
H1913  H     0.13879   0.51161   0.07642   0.00000  Uiso   1.00
H1914  H     0.11074   0.55172   0.07313   0.00000  Uiso   1.00
H1915  H     0.17503   0.57040   0.06812   0.00000  Uiso   1.00
H1916  H     0.15311   0.57986   0.02508   0.00000  Uiso   1.00
H1917  H     0.04510   0.64714   0.92198   0.00000  Uiso   1.00
H1918  H     0.09147   0.63251   0.92787   0.00000  Uiso   1.00
H1919  H     0.05942   0.62737   0.96738   0.00000  Uiso   1.00
H1920  H     0.29605   0.96570   0.40069   0.00000  Uiso   1.00
H1921  H     0.08848   0.70010   0.93280   0.00000  Uiso   1.00
H1922  H     0.10358   0.68169   0.97572   0.00000  Uiso   1.00
H1923  H     0.47203   0.84705   0.07293   0.00000  Uiso   1.00
H1924  H     0.45823   0.86954   0.02883   0.00000  Uiso   1.00
H1925  H     0.43086   0.87326   0.07232   0.00000  Uiso   1.00
H1926  H     0.40261   0.83202   0.02578   0.00000  Uiso   1.00
H1927  H     0.41233   0.80849   0.06831   0.00000  Uiso   1.00
H1928  H     0.15032   0.98591   0.92526   0.00000  Uiso   1.00
H1929  H     0.12574   0.98571   0.97073   0.00000  Uiso   1.00
H1930  H     0.10773   0.50964   0.92923   0.00000  Uiso   1.00
H1931  H     0.20453   0.53438   0.59950   0.00000  Uiso   1.00
H1932  H     0.13244   0.55273   0.97549   0.00000  Uiso   1.00
H1933  H     0.15792   0.55578   0.93286   0.00000  Uiso   1.00
H1934  H     0.29880   0.91917   0.07559   0.00000  Uiso   1.00
H1935  H     0.30515   0.90089   0.02722   0.00000  Uiso   1.00
H1936  H     0.33964   0.89488   0.06380   0.00000  Uiso   1.00
H1937  H     0.35974   0.93986   0.01913   0.00000  Uiso   1.00
H1938  H     0.35171   0.96315   0.06353   0.00000  Uiso   1.00
H1939  H     0.44091   0.84620   0.92496   0.00000  Uiso   1.00
H1940  H     0.39222   0.85157   0.92892   0.00000  Uiso   1.00
H1941  H     0.42095   0.86203   0.96981   0.00000  Uiso   1.00
H1942  H     0.19652   0.52281   0.90115   0.00000  Uiso   1.00
H1943  H     0.40631   0.78640   0.93258   0.00000  Uiso   1.00
H1944  H     0.38770   0.80069   0.97618   0.00000  Uiso   1.00
H1945  H     0.01719   0.65072   0.07808   0.00000  Uiso   1.00
H1946  H     0.02251   0.62642   0.03276   0.00000  Uiso   1.00
H1947  H     0.05259   0.61734   0.07297   0.00000  Uiso   1.00
H1948  H     0.08395   0.65293   0.02450   0.00000  Uiso   1.00
H1949  H     0.08066   0.67943   0.06650   0.00000  Uiso   1.00
H1950  H     0.12535   0.95928   0.17128   0.00000  Uiso   1.00
H1951  H     0.09054   0.92481   0.17566   0.00000  Uiso   1.00
H1952  H     0.14478   0.93538   0.10774   0.00000  Uiso   1.00
O1953  O     0.25000   0.50000   0.25000   0.00000  Uiso   1.00
O1954  O     0.25000   0.96963   0.66245   0.00000  Uiso   1.00
O1955  O     0.46963   0.75000   0.33755   0.00000  Uiso   1.00
O1956  O     0.03036   0.75000   0.66245   0.00000  Uiso   1.00
O1957  O     0.00000   0.71964   0.83755   0.00000  Uiso   1.00
O1958  O     0.00000   0.78037   0.16245   0.00000  Uiso   1.00
O1959  O     0.28036   0.50000   0.83755   0.00000  Uiso   1.00
O1960  O     0.21963   0.50000   0.16245   0.00000  Uiso   1.00
O1961  O     0.00000   0.78037   0.83755   0.00000  Uiso   1.00
O1962  O    -0.00000   0.71963   0.16245   0.00000  Uiso   1.00
O1963  O     0.21963   0.50000   0.83755   0.00000  Uiso   1.00
O1964  O     0.25000   0.50000   0.75000   0.00000  Uiso   1.00
O1965  O     0.28036   0.50000   0.16245   0.00000  Uiso   1.00
O1966  O     0.20724   0.57307   0.27302   0.00000  Uiso   1.00
O1967  O     0.29275   0.92692   0.72698   0.00000  Uiso   1.00
O1968  O     0.42692   0.70724   0.27302   0.00000  Uiso   1.00
O1969  O     0.07307   0.79276   0.72698   0.00000  Uiso   1.00
O1970  O     0.29275   0.92692   0.27302   0.00000  Uiso   1.00
O1971  O     0.20724   0.57307   0.72698   0.00000  Uiso   1.00
O1972  O     0.07307   0.79276   0.27302   0.00000  Uiso   1.00
O1973  O     0.42692   0.70724   0.72698   0.00000  Uiso   1.00
O1974  O     0.20724   0.92692   0.72698   0.00000  Uiso   1.00
O1975  O     0.00000   0.75000   0.25000   0.00000  Uiso   1.00
O1976  O     0.29275   0.57307   0.27302   0.00000  Uiso   1.00
O1977  O     0.42692   0.79275   0.72698   0.00000  Uiso   1.00
O1978  O     0.07307   0.70725   0.27302   0.00000  Uiso   1.00
O1979  O     0.29275   0.57307   0.72698   0.00000  Uiso   1.00
O1980  O     0.20724   0.92692   0.27302   0.00000  Uiso   1.00
O1981  O     0.07307   0.70725   0.72698   0.00000  Uiso   1.00
O1982  O     0.42692   0.79275   0.27302   0.00000  Uiso   1.00
O1983  O     0.45724   0.82307   0.77302   0.00000  Uiso   1.00
O1984  O     0.04275   0.67693   0.22698   0.00000  Uiso   1.00
O1985  O     0.17692   0.95725   0.77302   0.00000  Uiso   1.00
O1986  O     0.00000   0.75000   0.75000   0.00000  Uiso   1.00
O1987  O     0.32307   0.54275   0.22698   0.00000  Uiso   1.00
O1988  O     0.04275   0.67693   0.77302   0.00000  Uiso   1.00
O1989  O     0.45724   0.82307   0.22698   0.00000  Uiso   1.00
O1990  O     0.32307   0.54275   0.77302   0.00000  Uiso   1.00
O1991  O     0.17692   0.95725   0.22698   0.00000  Uiso   1.00
O1992  O     0.45724   0.67692   0.22698   0.00000  Uiso   1.00
O1993  O     0.04275   0.82308   0.77302   0.00000  Uiso   1.00
O1994  O     0.17692   0.54275   0.22698   0.00000  Uiso   1.00
O1995  O     0.32307   0.95724   0.77302   0.00000  Uiso   1.00
O1996  O     0.04275   0.82308   0.22698   0.00000  Uiso   1.00
O1997  O     0.25000   0.96963   0.33755   0.00000  Uiso   1.00
O1998  O     0.45724   0.67692   0.77302   0.00000  Uiso   1.00
O1999  O     0.32307   0.95724   0.22698   0.00000  Uiso   1.00
O2000  O     0.17692   0.54275   0.77302   0.00000  Uiso   1.00
O2001  O     0.14590   0.90777   0.17983   0.00000  Uiso   1.00
O2002  O     0.34665   0.59931   0.82063   0.00000  Uiso   1.00
O2003  O     0.05357   0.60716   0.22709   0.00000  Uiso   1.00
O2004  O     0.44202   0.89180   0.78260   0.00000  Uiso   1.00
O2005  O     0.36571   0.58206   0.18385   0.00000  Uiso   1.00
O2006  O     0.14105   0.91244   0.81911   0.00000  Uiso   1.00
O2007  O     0.44503   0.89146   0.22189   0.00000  Uiso   1.00
O2008  O     0.25000   0.53036   0.66245   0.00000  Uiso   1.00
O2009  O     0.05601   0.60863   0.78010   0.00000  Uiso   1.00
O2010  O     0.10783   0.55453   0.77546   0.00000  Uiso   1.00
O2011  O     0.39079   0.94244   0.21567   0.00000  Uiso   1.00
O2012  O     0.08287   0.86558   0.81699   0.00000  Uiso   1.00
O2013  O     0.41247   0.64067   0.18083   0.00000  Uiso   1.00
O2014  O     0.39320   0.94693   0.76714   0.00000  Uiso   1.00
O2015  O     0.10775   0.55408   0.22445   0.00000  Uiso   1.00
O2016  O     0.39755   0.65574   0.82034   0.00000  Uiso   1.00
O2017  O     0.09296   0.85351   0.17952   0.00000  Uiso   1.00
O2018  O     0.40420   0.65040   0.67980   0.00000  Uiso   1.00
O2019  O     0.03036   0.75000   0.33755   0.00000  Uiso   1.00
O2020  O     0.10363   0.84285   0.32012   0.00000  Uiso   1.00
O2021  O     0.30280   0.85635   0.73141   0.00000  Uiso   1.00
O2022  O     0.19108   0.64076   0.28524   0.00000  Uiso   1.00
O2023  O     0.11711   0.83186   0.68388   0.00000  Uiso   1.00
O2024  O     0.39036   0.66284   0.31891   0.00000  Uiso   1.00
O2025  O     0.19540   0.64198   0.72442   0.00000  Uiso   1.00
O2026  O     0.30847   0.85964   0.28541   0.00000  Uiso   1.00
O2027  O     0.35800   0.80473   0.27495   0.00000  Uiso   1.00
O2028  O     0.14043   0.69173   0.71471   0.00000  Uiso   1.00
O2029  O     0.33201   0.61643   0.31654   0.00000  Uiso   1.00
O2030  O     0.46963   0.75000   0.66245   0.00000  Uiso   1.00
O2031  O     0.16238   0.89095   0.68095   0.00000  Uiso   1.00
O2032  O     0.14251   0.69598   0.27157   0.00000  Uiso   1.00
O2033  O     0.35607   0.80256   0.73267   0.00000  Uiso   1.00
O2034  O     0.16440   0.88644   0.31799   0.00000  Uiso   1.00
O2035  O     0.34857   0.59766   0.67948   0.00000  Uiso   1.00
O2036  O     0.25000   0.53036   0.33755   0.00000  Uiso   1.00
Zn2037 Zn    0.20659   0.50000   0.21735   0.00000  Uiso   1.00
Zn2038 Zn    0.04340   0.75000   0.28265   0.00000  Uiso   1.00
Zn2039 Zn    0.25000   0.95659   0.71735   0.00000  Uiso   1.00
Zn2040 Zn    0.25000   0.54340   0.28265   0.00000  Uiso   1.00
Zn2041 Zn    0.04340   0.75000   0.71735   0.00000  Uiso   1.00
Zn2042 Zn    0.45659   0.75000   0.28265   0.00000  Uiso   1.00
Zn2043 Zn    0.25000   0.54340   0.71735   0.00000  Uiso   1.00
Zn2044 Zn    0.25000   0.95659   0.28265   0.00000  Uiso   1.00
Zn2045 Zn    0.29340   0.50000   0.78265   0.00000  Uiso   1.00
Zn2046 Zn   -0.00000   0.70659   0.21735   0.00000  Uiso   1.00
Zn2047 Zn    0.00000   0.79341   0.78265   0.00000  Uiso   1.00
Zn2048 Zn    0.29340   0.50000   0.21735   0.00000  Uiso   1.00
Zn2049 Zn    0.20659   0.50000   0.78265   0.00000  Uiso   1.00
Zn2050 Zn   -0.00000   0.79340   0.21735   0.00000  Uiso   1.00
Zn2051 Zn    0.00000   0.70660   0.78265   0.00000  Uiso   1.00
Zn2052 Zn    0.45659   0.75000   0.71735   0.00000  Uiso   1.00
C2053  C     0.96915   0.76292   0.41832   0.00000  Uiso   1.00
C2054  C     0.78048   0.98935   0.08110   0.00000  Uiso   1.00
C2055  C     0.72242   0.51905   0.54110   0.00000  Uiso   1.00
C2056  C     0.96838   0.76400   0.45918   0.00000  Uiso   1.00
C2057  C     0.53034   0.73773   0.54040   0.00000  Uiso   1.00
C2058  C     0.72118   0.51703   0.45917   0.00000  Uiso   1.00
C2059  C     0.77580   0.97804   0.54092   0.00000  Uiso   1.00
C2060  C     0.78231   0.99356   0.95899   0.00000  Uiso   1.00
C2061  C     0.72019   0.51801   0.04107   0.00000  Uiso   1.00
C2062  C     0.52289   0.72475   0.95895   0.00000  Uiso   1.00
C2063  C     0.97471   0.77174   0.04100   0.00000  Uiso   1.00
C2064  C     0.71886   0.51566   0.95916   0.00000  Uiso   1.00
C2065  C     0.97538   0.77131   0.91843   0.00000  Uiso   1.00
C2066  C     0.78091   0.98937   0.04033   0.00000  Uiso   1.00
C2067  C     0.97287   0.76952   0.95920   0.00000  Uiso   1.00
C2068  C     0.52125   0.72313   0.04092   0.00000  Uiso   1.00
C2069  C     0.59764   0.84820   0.24985   0.00000  Uiso   1.00
C2070  C     0.90169   0.65199   0.75013   0.00000  Uiso   1.00
C2071  C     0.65102   0.59759   0.25150   0.00000  Uiso   1.00
C2072  C     0.84784   0.90182   0.74951   0.00000  Uiso   1.00
C2073  C     0.90190   0.65232   0.24991   0.00000  Uiso   1.00
C2074  C     0.59854   0.84815   0.75022   0.00000  Uiso   1.00
C2075  C     0.84852   0.90193   0.25024   0.00000  Uiso   1.00
C2076  C     0.52145   0.72473   0.08180   0.00000  Uiso   1.00
C2077  C     0.65205   0.59806   0.75025   0.00000  Uiso   1.00
C2078  C     0.59803   0.65152   0.74941   0.00000  Uiso   1.00
C2079  C     0.90218   0.84814   0.24987   0.00000  Uiso   1.00
C2080  C     0.65215   0.90213   0.75009   0.00000  Uiso   1.00
C2081  C     0.84793   0.59866   0.24993   0.00000  Uiso   1.00
C2082  C     0.90110   0.84763   0.75174   0.00000  Uiso   1.00
C2083  C     0.59773   0.65176   0.24975   0.00000  Uiso   1.00
C2084  C     0.84791   0.59813   0.75002   0.00000  Uiso   1.00
C2085  C     0.65279   0.90067   0.24954   0.00000  Uiso   1.00
C2086  C     0.50001   0.75270   0.47956   0.00000  Uiso   1.00
C2087  C     0.78112   0.99173   0.91841   0.00000  Uiso   1.00
C2088  C     0.50007   0.75256   0.52029   0.00000  Uiso   1.00
C2089  C     0.74927   0.99868   0.47963   0.00000  Uiso   1.00
C2090  C     0.74917   0.99860   0.52048   0.00000  Uiso   1.00
C2091  C     0.75052   0.50445   0.97953   0.00000  Uiso   1.00
C2092  C     0.75060   0.50419   0.02027   0.00000  Uiso   1.00
C2093  C     0.99787   0.74713   0.97962   0.00000  Uiso   1.00
C2094  C     0.99792   0.74729   0.02044   0.00000  Uiso   1.00
C2095  C     0.60090   0.73132   0.45897   0.00000  Uiso   1.00
C2096  C     0.61109   0.76920   0.44328   0.00000  Uiso   1.00
C2097  C     0.91128   0.80430   0.54269   0.00000  Uiso   1.00
C2098  C     0.72031   0.51551   0.08187   0.00000  Uiso   1.00
C2099  C     0.87929   0.78112   0.55720   0.00000  Uiso   1.00
C2100  C     0.84012   0.95035   0.45773   0.00000  Uiso   1.00
C2101  C     0.83688   0.91123   0.44267   0.00000  Uiso   1.00
C2102  C     0.66716   0.56161   0.54300   0.00000  Uiso   1.00
C2103  C     0.68499   0.59726   0.55640   0.00000  Uiso   1.00
C2104  C     0.90165   0.78472   0.45800   0.00000  Uiso   1.00
C2105  C     0.88321   0.74935   0.44454   0.00000  Uiso   1.00
C2106  C     0.58665   0.69668   0.53917   0.00000  Uiso   1.00
C2107  C     0.56699   0.66204   0.55308   0.00000  Uiso   1.00
C2108  C     0.65736   0.54430   0.45790   0.00000  Uiso   1.00
C2109  C     0.52220   0.72549   0.91802   0.00000  Uiso   1.00
C2110  C     0.65826   0.58411   0.44480   0.00000  Uiso   1.00
C2111  C     0.82746   0.93106   0.54200   0.00000  Uiso   1.00
C2112  C     0.80604   0.89739   0.55546   0.00000  Uiso   1.00
C2113  C     0.85157   0.98466   0.95890   0.00000  Uiso   1.00
C2114  C     0.86067   0.52271   0.94296   0.00000  Uiso   1.00
C2115  C     0.66232   0.55643   0.04286   0.00000  Uiso   1.00
C2116  C     0.62975   0.53382   0.05685   0.00000  Uiso   1.00
C2117  C     0.57874   0.68320   0.95755   0.00000  Uiso   1.00
C2118  C     0.56792   0.64526   0.94290   0.00000  Uiso   1.00
C2119  C     0.92569   0.82140   0.04273   0.00000  Uiso   1.00
C2120  C     0.97684   0.77269   0.08184   0.00000  Uiso   1.00
C2121  C     0.94823   0.85469   0.05497   0.00000  Uiso   1.00
C2122  C     0.65251   0.53752   0.95801   0.00000  Uiso   1.00
C2123  C     0.63310   0.50253   0.94496   0.00000  Uiso   1.00
C2124  C     0.83797   0.94935   0.03888   0.00000  Uiso   1.00
C2125  C     0.81907   0.91413   0.05225   0.00000  Uiso   1.00
C2126  C     0.91265   0.80383   0.95816   0.00000  Uiso   1.00
C2127  C     0.91714   0.84331   0.94478   0.00000  Uiso   1.00
C2128  C     0.56409   0.66799   0.04240   0.00000  Uiso   1.00
C2129  C     0.53736   0.63905   0.05753   0.00000  Uiso   1.00
C2130  C     0.61851   0.93047   0.16417   0.00000  Uiso   1.00
C2131  C     0.99985   0.75095   0.39828   0.00000  Uiso   1.00
C2132  C     0.61823   0.92599   0.11991   0.00000  Uiso   1.00
C2133  C     0.58758   0.94779   0.10137   0.00000  Uiso   1.00
C2134  C     0.81474   0.61875   0.83016   0.00000  Uiso   1.00
C2135  C     0.79722   0.60126   0.86606   0.00000  Uiso   1.00
C2136  C     0.76086   0.61900   0.87604   0.00000  Uiso   1.00
C2137  C     0.53447   0.59173   0.25887   0.00000  Uiso   1.00
C2138  C     0.99493   0.58495   0.24667   0.00000  Uiso   1.00
C2139  C     0.97369   0.56405   0.27779   0.00000  Uiso   1.00
C2140  C     0.93844   0.88830   0.82369   0.00000  Uiso   1.00
C2141  C     0.92942   0.92514   0.84277   0.00000  Uiso   1.00
C2142  C     0.50010   0.75103   0.60165   0.00000  Uiso   1.00
C2143  C     0.93162   0.92350   0.88710   0.00000  Uiso   1.00
C2144  C     0.89674   0.55958   0.17896   0.00000  Uiso   1.00
C2145  C     0.90283   0.55265   0.13550   0.00000  Uiso   1.00
C2146  C     0.94095   0.53794   0.12752   0.00000  Uiso   1.00
C2147  C     0.67118   0.89619   0.83778   0.00000  Uiso   1.00
C2148  C     0.65817   0.86721   0.86689   0.00000  Uiso   1.00
C2149  C     0.68858   0.85605   0.89457   0.00000  Uiso   1.00
C2150  C     0.96480   0.91149   0.24994   0.00000  Uiso   1.00
C2151  C     0.50253   0.92022   0.23315   0.00000  Uiso   1.00
C2152  C     0.52517   0.94355   0.26093   0.00000  Uiso   1.00
C2153  C     0.75004   0.99989   0.39817   0.00000  Uiso   1.00
C2154  C     0.55715   0.60271   0.82091   0.00000  Uiso   1.00
C2155  C     0.52880   0.57362   0.83165   0.00000  Uiso   1.00
C2156  C     0.53257   0.56136   0.87392   0.00000  Uiso   1.00
C2157  C     0.59152   0.53537   0.74431   0.00000  Uiso   1.00
C2158  C     0.58323   0.99645   0.75766   0.00000  Uiso   1.00
C2159  C     0.56420   0.97429   0.72603   0.00000  Uiso   1.00
C2160  C     0.88378   0.94079   0.17507   0.00000  Uiso   1.00
C2161  C     0.91892   0.93362   0.15210   0.00000  Uiso   1.00
C2162  C     0.91437   0.94209   0.10896   0.00000  Uiso   1.00
C2163  C     0.55304   0.89006   0.81675   0.00000  Uiso   1.00
C2164  C     0.53015   0.73828   0.58116   0.00000  Uiso   1.00
C2165  C     0.74992   0.99966   0.60187   0.00000  Uiso   1.00
C2166  C     0.56247   0.92589   0.83764   0.00000  Uiso   1.00
C2167  C     0.52879   0.94921   0.84432   0.00000  Uiso   1.00
C2168  C     0.89798   0.67231   0.16312   0.00000  Uiso   1.00
C2169  C     0.86726   0.66212   0.13500   0.00000  Uiso   1.00
C2170  C     0.85520   0.69504   0.11118   0.00000  Uiso   1.00
C2171  C     0.91304   0.96114   0.73528   0.00000  Uiso   1.00
C2172  C     0.92382   0.50055   0.74448   0.00000  Uiso   1.00
C2173  C     0.94657   0.51728   0.71173   0.00000  Uiso   1.00
C2174  C     0.59754   0.55317   0.18462   0.00000  Uiso   1.00
C2175  C     0.56459   0.52767   0.17989   0.00000  Uiso   1.00
C2176  C     0.75001   0.50171   0.89827   0.00000  Uiso   1.00
C2177  C     0.54363   0.53548   0.14253   0.00000  Uiso   1.00
C2178  C     0.92222   0.63385   0.84127   0.00000  Uiso   1.00
C2179  C     0.93399   0.65481   0.87771   0.00000  Uiso   1.00
C2180  C     0.96568   0.63631   0.89819   0.00000  Uiso   1.00
C2181  C     0.61197   0.82291   0.16508   0.00000  Uiso   1.00
C2182  C     0.59334   0.80947   0.12794   0.00000  Uiso   1.00
C2183  C     0.61020   0.77407   0.11316   0.00000  Uiso   1.00
C2184  C     0.87925   0.66967   0.65617   0.00000  Uiso   1.00
C2185  C     0.88523   0.65833   0.61371   0.00000  Uiso   1.00
C2186  C     0.85570   0.67314   0.58696   0.00000  Uiso   1.00
C2187  C     0.75021   0.50156   0.10162   0.00000  Uiso   1.00
C2188  C     0.57207   0.86052   0.33431   0.00000  Uiso   1.00
C2189  C     0.58253   0.89338   0.35961   0.00000  Uiso   1.00
C2190  C     0.54946   0.90877   0.38094   0.00000  Uiso   1.00
C2191  C     0.78524   0.84154   0.76448   0.00000  Uiso   1.00
C2192  C     0.74663   0.83023   0.75298   0.00000  Uiso   1.00
C2193  C     0.72676   0.81090   0.78618   0.00000  Uiso   1.00
C2194  C     0.68717   0.63561   0.32608   0.00000  Uiso   1.00
C2195  C     0.67711   0.67146   0.34663   0.00000  Uiso   1.00
C2196  C     0.68017   0.66846   0.39081   0.00000  Uiso   1.00
C2197  C     0.64131   0.80183   0.68582   0.00000  Uiso   1.00
C2198  C     0.99957   0.74935   0.89822   0.00000  Uiso   1.00
C2199  C     0.67889   0.81136   0.66890   0.00000  Uiso   1.00
C2200  C     0.70250   0.77752   0.66432   0.00000  Uiso   1.00
C2201  C     0.92059   0.64656   0.33742   0.00000  Uiso   1.00
C2202  C     0.90786   0.61672   0.36565   0.00000  Uiso   1.00
C2203  C     0.93883   0.60414   0.39187   0.00000  Uiso   1.00
C2204  C     0.71317   0.66291   0.75328   0.00000  Uiso   1.00
C2205  C     0.75235   0.67024   0.74002   0.00000  Uiso   1.00
C2206  C     0.77243   0.69534   0.76829   0.00000  Uiso   1.00
C2207  C     0.81157   0.86414   0.32639   0.00000  Uiso   1.00
C2208  C     0.81393   0.82694   0.34676   0.00000  Uiso   1.00
C2209  C     0.99984   0.74947   0.10179   0.00000  Uiso   1.00
C2210  C     0.80863   0.83011   0.39072   0.00000  Uiso   1.00
C2211  C     0.84051   0.78655   0.24391   0.00000  Uiso   1.00
C2212  C     0.83033   0.74809   0.25734   0.00000  Uiso   1.00
C2213  C     0.81098   0.72653   0.22545   0.00000  Uiso   1.00
C2214  C     0.63352   0.68872   0.67417   0.00000  Uiso   1.00
C2215  C     0.66832   0.67897   0.65169   0.00000  Uiso   1.00
C2216  C     0.66435   0.68639   0.60824   0.00000  Uiso   1.00
C2217  C     0.80196   0.64062   0.31580   0.00000  Uiso   1.00
C2218  C     0.81083   0.67660   0.33665   0.00000  Uiso   1.00
C2219  C     0.77678   0.69954   0.34297   0.00000  Uiso   1.00
C2220  C     0.56366   0.73127   0.47938   0.00000  Uiso   1.00
C2221  C     0.64675   0.92188   0.66303   0.00000  Uiso   1.00
C2222  C     0.61554   0.91045   0.63606   0.00000  Uiso   1.00
C2223  C     0.60302   0.94226   0.61084   0.00000  Uiso   1.00
C2224  C     0.66054   0.71248   0.23974   0.00000  Uiso   1.00
C2225  C     0.66878   0.75224   0.25011   0.00000  Uiso   1.00
C2226  C     0.68948   0.77165   0.21750   0.00000  Uiso   1.00
C2227  C     0.84773   0.79683   0.69294   0.00000  Uiso   1.00
C2228  C     0.82557   0.76155   0.68951   0.00000  Uiso   1.00
C2229  C     0.81529   0.75362   0.64736   0.00000  Uiso   1.00
C2230  C     0.69343   0.86098   0.31959   0.00000  Uiso   1.00
C2231  C     0.93948   0.78152   0.52083   0.00000  Uiso   1.00
C2232  C     0.68125   0.82462   0.33784   0.00000  Uiso   1.00
C2233  C     0.71354   0.79999   0.34651   0.00000  Uiso   1.00
C2234  C     0.86861   0.56647   0.66874   0.00000  Uiso   1.00
C2235  C     0.85135   0.54965   0.63242   0.00000  Uiso   1.00
C2236  C     0.87146   0.51539   0.61945   0.00000  Uiso   1.00
C2237  C     0.80579   0.96237   0.47935   0.00000  Uiso   1.00
C2238  C     0.69423   0.53756   0.52077   0.00000  Uiso   1.00
C2239  C     0.93723   0.77696   0.47976   0.00000  Uiso   1.00
C2240  C     0.72316   0.51853   0.41831   0.00000  Uiso   1.00
C2241  C     0.56043   0.72321   0.51953   0.00000  Uiso   1.00
C2242  C     0.69196   0.53367   0.47965   0.00000  Uiso   1.00
C2243  C     0.80287   0.95797   0.52036   0.00000  Uiso   1.00
C2244  C     0.81434   0.98370   0.97929   0.00000  Uiso   1.00
C2245  C     0.69015   0.53332   0.02088   0.00000  Uiso   1.00
C2246  C     0.54753   0.70182   0.97930   0.00000  Uiso   1.00
C2247  C     0.94912   0.79370   0.02067   0.00000  Uiso   1.00
C2248  C     0.68789   0.52900   0.97978   0.00000  Uiso   1.00
C2249  C     0.81125   0.97546   0.01939   0.00000  Uiso   1.00
C2250  C     0.94613   0.78985   0.97966   0.00000  Uiso   1.00
C2251  C     0.77516   0.97874   0.58184   0.00000  Uiso   1.00
C2252  C     0.54425   0.69843   0.02043   0.00000  Uiso   1.00
C2253  C     0.75008   0.50000   0.35586   0.00000  Uiso   1.00
C2254  C     0.75007   0.99995   0.64416   0.00000  Uiso   1.00
C2255  C     0.99994   0.75009   0.35589   0.00000  Uiso   1.00
C2256  C     0.50004   0.75016   0.64408   0.00000  Uiso   1.00
C2257  C     0.50001   0.74993   0.85588   0.00000  Uiso   1.00
C2258  C     0.50016   0.74993   0.14413   0.00000  Uiso   1.00
C2259  C     0.74995   0.50021   0.85589   0.00000  Uiso   1.00
C2260  C     0.75005   0.50023   0.14407   0.00000  Uiso   1.00
C2261  C     0.67964   0.56986   0.25053   0.00000  Uiso   1.00
C2262  C     0.53077   0.74039   0.41841   0.00000  Uiso   1.00
C2263  C     0.82004   0.93002   0.74975   0.00000  Uiso   1.00
C2264  C     0.93005   0.68005   0.25003   0.00000  Uiso   1.00
C2265  C     0.57019   0.82006   0.75009   0.00000  Uiso   1.00
C2266  C     0.82021   0.92996   0.25011   0.00000  Uiso   1.00
C2267  C     0.68004   0.57008   0.75013   0.00000  Uiso   1.00
C2268  C     0.56981   0.82007   0.25004   0.00000  Uiso   1.00
C2269  C     0.92990   0.68004   0.75013   0.00000  Uiso   1.00
C2270  C     0.68009   0.93004   0.75005   0.00000  Uiso   1.00
C2271  C     0.82006   0.57015   0.25003   0.00000  Uiso   1.00
C2272  C     0.92963   0.81984   0.75063   0.00000  Uiso   1.00
C2273  C     0.97011   0.76475   0.58187   0.00000  Uiso   1.00
C2274  C     0.56999   0.67999   0.24984   0.00000  Uiso   1.00
C2275  C     0.81997   0.56998   0.74996   0.00000  Uiso   1.00
C2276  C     0.68022   0.92963   0.24983   0.00000  Uiso   1.00
C2277  C     0.57001   0.67979   0.74978   0.00000  Uiso   1.00
C2278  C     0.93002   0.82004   0.24997   0.00000  Uiso   1.00
C2279  C     0.63437   0.89242   0.21466   0.00000  Uiso   1.00
C2280  C     0.86044   0.61225   0.78567   0.00000  Uiso   1.00
C2281  C     0.58870   0.61585   0.23861   0.00000  Uiso   1.00
C2282  C     0.90910   0.88331   0.76509   0.00000  Uiso   1.00
C2283  C     0.87004   0.60373   0.21664   0.00000  Uiso   1.00
C2284  C     0.77648   0.98052   0.41804   0.00000  Uiso   1.00
C2285  C     0.63314   0.89431   0.78470   0.00000  Uiso   1.00
C2286  C     0.91060   0.88338   0.23616   0.00000  Uiso   1.00
C2287  C     0.59049   0.61700   0.76593   0.00000  Uiso   1.00
C2288  C     0.61661   0.58947   0.76316   0.00000  Uiso   1.00
C2289  C     0.88286   0.90909   0.23284   0.00000  Uiso   1.00
C2290  C     0.60369   0.87027   0.78360   0.00000  Uiso   1.00
C2291  C     0.89418   0.63320   0.21537   0.00000  Uiso   1.00
C2292  C     0.88374   0.91102   0.75946   0.00000  Uiso   1.00
C2293  C     0.61615   0.58939   0.23635   0.00000  Uiso   1.00
C2294  C     0.88814   0.63860   0.78582   0.00000  Uiso   1.00
C2295  C     0.72396   0.51958   0.58201   0.00000  Uiso   1.00
C2296  C     0.60850   0.86423   0.21443   0.00000  Uiso   1.00
C2297  C     0.88802   0.63910   0.71437   0.00000  Uiso   1.00
C2298  C     0.61444   0.85812   0.28497   0.00000  Uiso   1.00
C2299  C     0.83836   0.86544   0.74078   0.00000  Uiso   1.00
C2300  C     0.65843   0.63266   0.26695   0.00000  Uiso   1.00
C2301  C     0.62085   0.85327   0.71692   0.00000  Uiso   1.00
C2302  C     0.88250   0.64483   0.28439   0.00000  Uiso   1.00
C2303  C     0.66049   0.63337   0.73692   0.00000  Uiso   1.00
C2304  C     0.84149   0.86754   0.26752   0.00000  Uiso   1.00
C2305  C     0.86699   0.83979   0.26342   0.00000  Uiso   1.00
C2306  C     0.71942   0.51403   0.91829   0.00000  Uiso   1.00
C2307  C     0.63265   0.65881   0.73281   0.00000  Uiso   1.00
C2308  C     0.85296   0.62094   0.28321   0.00000  Uiso   1.00
C2309  C     0.64446   0.88303   0.71557   0.00000  Uiso   1.00
C2310  C     0.63322   0.66049   0.26177   0.00000  Uiso   1.00
C2311  C     0.86558   0.83871   0.73920   0.00000  Uiso   1.00
C2312  C     0.64472   0.88114   0.28406   0.00000  Uiso   1.00
C2313  C     0.86186   0.61107   0.71441   0.00000  Uiso   1.00
C2314  C     0.53180   0.74170   0.45904   0.00000  Uiso   1.00
C2315  C     0.96972   0.76662   0.54105   0.00000  Uiso   1.00
C2316  C     0.77754   0.98055   0.45897   0.00000  Uiso   1.00
H2317  H     0.94633   0.77196   0.40122   0.00000  Uiso   1.00
H2318  H     0.80360   0.97978   0.09750   0.00000  Uiso   1.00
H2319  H     0.61456   0.89670   0.11244   0.00000  Uiso   1.00
H2320  H     0.56068   0.93791   0.11204   0.00000  Uiso   1.00
H2321  H     0.58864   0.94461   0.06922   0.00000  Uiso   1.00
H2322  H     0.59068   0.97710   0.10861   0.00000  Uiso   1.00
H2323  H     0.79467   0.61783   0.80587   0.00000  Uiso   1.00
H2324  H     0.82159   0.64773   0.83688   0.00000  Uiso   1.00
H2325  H     0.79259   0.57173   0.86047   0.00000  Uiso   1.00
H2326  H     0.81594   0.60397   0.89130   0.00000  Uiso   1.00
H2327  H     0.76480   0.64852   0.88220   0.00000  Uiso   1.00
H2328  H     0.74900   0.60568   0.90226   0.00000  Uiso   1.00
H2329  H     0.95848   0.78944   0.90161   0.00000  Uiso   1.00
H2330  H     0.74146   0.61570   0.85149   0.00000  Uiso   1.00
H2331  H     0.53455   0.61061   0.28438   0.00000  Uiso   1.00
H2332  H     0.54694   0.56531   0.26750   0.00000  Uiso   1.00
H2333  H     0.98148   0.61153   0.24146   0.00000  Uiso   1.00
H2334  H     0.99417   0.56914   0.21905   0.00000  Uiso   1.00
H2335  H     0.98511   0.53626   0.28140   0.00000  Uiso   1.00
H2336  H     0.94470   0.56154   0.26893   0.00000  Uiso   1.00
H2337  H     0.97501   0.57869   0.30603   0.00000  Uiso   1.00
H2338  H     0.96506   0.87891   0.83501   0.00000  Uiso   1.00
H2339  H     0.91808   0.86716   0.83281   0.00000  Uiso   1.00
H2340  H     0.53906   0.70768   0.09902   0.00000  Uiso   1.00
H2341  H     0.94845   0.94643   0.83175   0.00000  Uiso   1.00
H2342  H     0.90123   0.93319   0.83541   0.00000  Uiso   1.00
H2343  H     0.90855   0.90711   0.89863   0.00000  Uiso   1.00
H2344  H     0.92953   0.95150   0.89928   0.00000  Uiso   1.00
H2345  H     0.95768   0.91133   0.89677   0.00000  Uiso   1.00
H2346  H     0.89183   0.53306   0.19384   0.00000  Uiso   1.00
H2347  H     0.92226   0.57146   0.19140   0.00000  Uiso   1.00
H2348  H     0.88206   0.53291   0.12478   0.00000  Uiso   1.00
H2349  H     0.89964   0.57855   0.11911   0.00000  Uiso   1.00
H2350  H     0.96169   0.55911   0.13450   0.00000  Uiso   1.00
H2351  H     0.80405   0.98146   0.90198   0.00000  Uiso   1.00
H2352  H     0.94362   0.53058   0.09627   0.00000  Uiso   1.00
H2353  H     0.94616   0.51340   0.14551   0.00000  Uiso   1.00
H2354  H     0.68566   0.91817   0.85393   0.00000  Uiso   1.00
H2355  H     0.69146   0.88436   0.81714   0.00000  Uiso   1.00
H2356  H     0.63511   0.87817   0.88434   0.00000  Uiso   1.00
H2357  H     0.64845   0.84273   0.85078   0.00000  Uiso   1.00
H2358  H     0.71219   0.84521   0.87805   0.00000  Uiso   1.00
H2359  H     0.67842   0.83448   0.91460   0.00000  Uiso   1.00
H2360  H     0.69761   0.87985   0.91222   0.00000  Uiso   1.00
H2361  H     0.96811   0.89513   0.27705   0.00000  Uiso   1.00
H2362  H     0.69721   0.52409   0.09903   0.00000  Uiso   1.00
H2363  H     0.95086   0.93760   0.25705   0.00000  Uiso   1.00
H2364  H     0.51721   0.89436   0.22720   0.00000  Uiso   1.00
H2365  H     0.99949   0.93513   0.20517   0.00000  Uiso   1.00
H2366  H     0.51166   0.97017   0.26615   0.00000  Uiso   1.00
H2367  H     0.55246   0.94872   0.24792   0.00000  Uiso   1.00
H2368  H     0.52877   0.92923   0.28909   0.00000  Uiso   1.00
H2369  H     0.55029   0.62860   0.83610   0.00000  Uiso   1.00
H2370  H     0.58427   0.59376   0.83184   0.00000  Uiso   1.00
H2371  H     0.50104   0.58468   0.82697   0.00000  Uiso   1.00
H2372  H     0.53220   0.54948   0.81241   0.00000  Uiso   1.00
H2373  H     0.53914   0.70779   0.90061   0.00000  Uiso   1.00
H2374  H     0.55928   0.54790   0.87836   0.00000  Uiso   1.00
H2375  H     0.51058   0.54152   0.88107   0.00000  Uiso   1.00
H2376  H     0.53040   0.58499   0.89398   0.00000  Uiso   1.00
H2377  H     0.61029   0.53420   0.71873   0.00000  Uiso   1.00
H2378  H     0.56554   0.54858   0.73556   0.00000  Uiso   1.00
H2379  H     0.60906   0.98274   0.76561   0.00000  Uiso   1.00
H2380  H     0.56545   0.99735   0.78386   0.00000  Uiso   1.00
H2381  H     0.53722   0.98627   0.71942   0.00000  Uiso   1.00
H2382  H     0.56016   0.94579   0.73618   0.00000  Uiso   1.00
H2383  H     0.58094   0.97390   0.69910   0.00000  Uiso   1.00
H2384  H     0.95996   0.79044   0.09923   0.00000  Uiso   1.00
H2385  H     0.87298   0.96786   0.16639   0.00000  Uiso   1.00
H2386  H     0.86244   0.92035   0.16688   0.00000  Uiso   1.00
H2387  H     0.94141   0.95060   0.16405   0.00000  Uiso   1.00
H2388  H     0.92644   0.90444   0.15468   0.00000  Uiso   1.00
H2389  H     0.89385   0.92334   0.09612   0.00000  Uiso   1.00
H2390  H     0.94075   0.93826   0.09362   0.00000  Uiso   1.00
H2391  H     0.90551   0.97068   0.10473   0.00000  Uiso   1.00
H2392  H     0.53043   0.87656   0.83286   0.00000  Uiso   1.00
H2393  H     0.54252   0.89580   0.78690   0.00000  Uiso   1.00
H2394  H     0.57538   0.91993   0.86615   0.00000  Uiso   1.00
H2395  H     0.59241   0.77835   0.42001   0.00000  Uiso   1.00
H2396  H     0.58175   0.94196   0.81961   0.00000  Uiso   1.00
H2397  H     0.51493   0.95474   0.81623   0.00000  Uiso   1.00
H2398  H     0.53691   0.97563   0.85765   0.00000  Uiso   1.00
H2399  H     0.50978   0.93505   0.86443   0.00000  Uiso   1.00
H2400  H     0.92038   0.68546   0.14628   0.00000  Uiso   1.00
H2401  H     0.88827   0.69315   0.18441   0.00000  Uiso   1.00
H2402  H     0.87680   0.64052   0.11474   0.00000  Uiso   1.00
H2403  H     0.84357   0.65139   0.15174   0.00000  Uiso   1.00
H2404  H     0.84544   0.71716   0.13065   0.00000  Uiso   1.00
H2405  H     0.83264   0.68688   0.09151   0.00000  Uiso   1.00
H2406  H     0.61066   0.78953   0.46730   0.00000  Uiso   1.00
H2407  H     0.87820   0.70550   0.09318   0.00000  Uiso   1.00
H2408  H     0.89597   0.96083   0.70847   0.00000  Uiso   1.00
H2409  H     0.93832   0.94515   0.73001   0.00000  Uiso   1.00
H2410  H     0.89884   0.51708   0.74890   0.00000  Uiso   1.00
H2411  H     0.93987   0.50128   0.77189   0.00000  Uiso   1.00
H2412  H     0.97270   0.50245   0.70858   0.00000  Uiso   1.00
H2413  H     0.95257   0.54632   0.71856   0.00000  Uiso   1.00
H2414  H     0.93161   0.51591   0.68373   0.00000  Uiso   1.00
H2415  H     0.62061   0.54206   0.16731   0.00000  Uiso   1.00
H2416  H     0.59128   0.58046   0.17194   0.00000  Uiso   1.00
H2417  H     0.63903   0.76846   0.43079   0.00000  Uiso   1.00
H2418  H     0.57383   0.99888   0.17977   0.00000  Uiso   1.00
H2419  H     0.54571   0.53086   0.20494   0.00000  Uiso   1.00
H2420  H     0.53117   0.56301   0.14405   0.00000  Uiso   1.00
H2421  H     0.52164   0.51485   0.13887   0.00000  Uiso   1.00
H2422  H     0.56199   0.53430   0.11687   0.00000  Uiso   1.00
H2423  H     0.94670   0.62755   0.82329   0.00000  Uiso   1.00
H2424  H     0.90924   0.60774   0.85053   0.00000  Uiso   1.00
H2425  H     0.94243   0.68295   0.86951   0.00000  Uiso   1.00
H2426  H     0.91054   0.65680   0.89815   0.00000  Uiso   1.00
H2427  H     0.95850   0.60769   0.90577   0.00000  Uiso   1.00
H2428  H     0.55328   0.72874   0.59757   0.00000  Uiso   1.00
H2429  H     0.62349   0.72467   0.47884   0.00000  Uiso   1.00
H2430  H     0.97235   0.65139   0.92534   0.00000  Uiso   1.00
H2431  H     0.99004   0.63661   0.87895   0.00000  Uiso   1.00
H2432  H     0.61179   0.80023   0.18669   0.00000  Uiso   1.00
H2433  H     0.64070   0.83046   0.15805   0.00000  Uiso   1.00
H2434  H     0.56396   0.80469   0.13388   0.00000  Uiso   1.00
H2435  H     0.59574   0.83070   0.10496   0.00000  Uiso   1.00
H2436  H     0.63965   0.77814   0.10693   0.00000  Uiso   1.00
H2437  H     0.59638   0.76541   0.08592   0.00000  Uiso   1.00
H2438  H     0.60682   0.75209   0.13518   0.00000  Uiso   1.00
H2439  H     0.88497   0.69936   0.65895   0.00000  Uiso   1.00
H2440  H     0.60158   0.71069   0.43529   0.00000  Uiso   1.00
H2441  H     0.85005   0.66536   0.66417   0.00000  Uiso   1.00
H2442  H     0.91228   0.66844   0.60365   0.00000  Uiso   1.00
H2443  H     0.88517   0.62810   0.61159   0.00000  Uiso   1.00
H2444  H     0.82845   0.66305   0.59630   0.00000  Uiso   1.00
H2445  H     0.86084   0.66381   0.55667   0.00000  Uiso   1.00
H2446  H     0.85593   0.70335   0.58728   0.00000  Uiso   1.00
H2447  H     0.55698   0.84048   0.35263   0.00000  Uiso   1.00
H2448  H     0.55294   0.86898   0.31084   0.00000  Uiso   1.00
H2449  H     0.60318   0.88498   0.38139   0.00000  Uiso   1.00
H2450  H     0.59459   0.91511   0.34096   0.00000  Uiso   1.00
H2451  H     0.88894   0.75970   0.57740   0.00000  Uiso   1.00
H2452  H     0.52831   0.91730   0.35983   0.00000  Uiso   1.00
H2453  H     0.55783   0.93292   0.39837   0.00000  Uiso   1.00
H2454  H     0.53773   0.88795   0.40094   0.00000  Uiso   1.00
H2455  H     0.78366   0.86227   0.78820   0.00000  Uiso   1.00
H2456  H     0.79982   0.81700   0.77535   0.00000  Uiso   1.00
H2457  H     0.73104   0.85487   0.74448   0.00000  Uiso   1.00
H2458  H     0.74799   0.81151   0.72755   0.00000  Uiso   1.00
H2459  H     0.74066   0.78496   0.79347   0.00000  Uiso   1.00
H2460  H     0.69834   0.80465   0.77726   0.00000  Uiso   1.00
H2461  H     0.72610   0.82856   0.81238   0.00000  Uiso   1.00
H2462  H     0.85964   0.79875   0.57299   0.00000  Uiso   1.00
H2463  H     0.71389   0.62637   0.33728   0.00000  Uiso   1.00
H2464  H     0.66720   0.61368   0.33398   0.00000  Uiso   1.00
H2465  H     0.69518   0.69381   0.33611   0.00000  Uiso   1.00
H2466  H     0.64850   0.67864   0.33997   0.00000  Uiso   1.00
H2467  H     0.65879   0.64974   0.40208   0.00000  Uiso   1.00
H2468  H     0.67598   0.69574   0.40417   0.00000  Uiso   1.00
H2469  H     0.70740   0.65826   0.39944   0.00000  Uiso   1.00
H2470  H     0.62924   0.77965   0.66794   0.00000  Uiso   1.00
H2471  H     0.64427   0.79069   0.71591   0.00000  Uiso   1.00
H2472  H     0.67568   0.82464   0.64003   0.00000  Uiso   1.00
H2473  H     0.86493   0.76777   0.53262   0.00000  Uiso   1.00
H2474  H     0.69318   0.83049   0.68872   0.00000  Uiso   1.00
H2475  H     0.70470   0.76273   0.69246   0.00000  Uiso   1.00
H2476  H     0.73025   0.78571   0.65466   0.00000  Uiso   1.00
H2477  H     0.69066   0.75915   0.64201   0.00000  Uiso   1.00
H2478  H     0.93466   0.66833   0.35429   0.00000  Uiso   1.00
H2479  H     0.94117   0.63550   0.31663   0.00000  Uiso   1.00
H2480  H     0.88539   0.62735   0.38417   0.00000  Uiso   1.00
H2481  H     0.89745   0.59295   0.34884   0.00000  Uiso   1.00
H2482  H     0.96171   0.59337   0.37412   0.00000  Uiso   1.00
H2483  H     0.92884   0.58213   0.41145   0.00000  Uiso   1.00
H2484  H     0.92384   0.81889   0.56763   0.00000  Uiso   1.00
H2485  H     0.94884   0.62719   0.41003   0.00000  Uiso   1.00
H2486  H     0.71384   0.64785   0.78149   0.00000  Uiso   1.00
H2487  H     0.69922   0.68954   0.75754   0.00000  Uiso   1.00
H2488  H     0.76715   0.64394   0.73782   0.00000  Uiso   1.00
H2489  H     0.75220   0.68317   0.71073   0.00000  Uiso   1.00
H2490  H     0.75963   0.72273   0.76859   0.00000  Uiso   1.00
H2491  H     0.80128   0.69836   0.75892   0.00000  Uiso   1.00
H2492  H     0.77178   0.68381   0.79819   0.00000  Uiso   1.00
H2493  H     0.78647   0.87809   0.33653   0.00000  Uiso   1.00
H2494  H     0.83486   0.88191   0.33558   0.00000  Uiso   1.00
H2495  H     0.90143   0.82729   0.52465   0.00000  Uiso   1.00
H2496  H     0.79302   0.80818   0.33464   0.00000  Uiso   1.00
H2497  H     0.84112   0.81481   0.34177   0.00000  Uiso   1.00
H2498  H     0.83245   0.84413   0.40383   0.00000  Uiso   1.00
H2499  H     0.80650   0.80239   0.40361   0.00000  Uiso   1.00
H2500  H     0.78341   0.84538   0.39782   0.00000  Uiso   1.00
H2501  H     0.85910   0.78453   0.21825   0.00000  Uiso   1.00
H2502  H     0.81516   0.80106   0.23534   0.00000  Uiso   1.00
H2503  H     0.85542   0.73333   0.26590   0.00000  Uiso   1.00
H2504  H     0.81211   0.75000   0.28317   0.00000  Uiso   1.00
H2505  H     0.78518   0.74018   0.21726   0.00000  Uiso   1.00
H2506  H     0.83296   0.89168   0.46698   0.00000  Uiso   1.00
H2507  H     0.80454   0.69865   0.23619   0.00000  Uiso   1.00
H2508  H     0.82874   0.72420   0.19938   0.00000  Uiso   1.00
H2509  H     0.62386   0.71574   0.66413   0.00000  Uiso   1.00
H2510  H     0.61127   0.66895   0.66690   0.00000  Uiso   1.00
H2511  H     0.69169   0.69505   0.66314   0.00000  Uiso   1.00
H2512  H     0.67422   0.64951   0.65546   0.00000  Uiso   1.00
H2513  H     0.64181   0.66959   0.59629   0.00000  Uiso   1.00
H2514  H     0.68998   0.67913   0.59291   0.00000  Uiso   1.00
H2515  H     0.65856   0.71566   0.60290   0.00000  Uiso   1.00
H2516  H     0.77929   0.62697   0.33166   0.00000  Uiso   1.00
H2517  H     0.81350   0.90850   0.42248   0.00000  Uiso   1.00
H2518  H     0.79171   0.64617   0.28580   0.00000  Uiso   1.00
H2519  H     0.82355   0.67084   0.36532   0.00000  Uiso   1.00
H2520  H     0.83019   0.69277   0.31879   0.00000  Uiso   1.00
H2521  H     0.76285   0.70458   0.31481   0.00000  Uiso   1.00
H2522  H     0.78446   0.72623   0.35602   0.00000  Uiso   1.00
H2523  H     0.75788   0.68531   0.36319   0.00000  Uiso   1.00
H2524  H     0.66843   0.93515   0.64527   0.00000  Uiso   1.00
H2525  H     0.63728   0.94288   0.68423   0.00000  Uiso   1.00
H2526  H     0.62474   0.88787   0.61680   0.00000  Uiso   1.00
H2527  H     0.59215   0.90052   0.65381   0.00000  Uiso   1.00
H2528  H     0.86217   0.90388   0.42674   0.00000  Uiso   1.00
H2529  H     0.59363   0.96524   0.62936   0.00000  Uiso   1.00
H2530  H     0.58008   0.93324   0.59210   0.00000  Uiso   1.00
H2531  H     0.62566   0.95189   0.59182   0.00000  Uiso   1.00
H2532  H     0.64301   0.71189   0.21326   0.00000  Uiso   1.00
H2533  H     0.68670   0.69829   0.23347   0.00000  Uiso   1.00
H2534  H     0.64281   0.76682   0.25569   0.00000  Uiso   1.00
H2535  H     0.68539   0.75320   0.27710   0.00000  Uiso   1.00
H2536  H     0.71649   0.75878   0.21299   0.00000  Uiso   1.00
H2537  H     0.69369   0.80075   0.22549   0.00000  Uiso   1.00
H2538  H     0.67382   0.77035   0.18991   0.00000  Uiso   1.00
H2539  H     0.70386   0.53386   0.40128   0.00000  Uiso   1.00
H2540  H     0.84642   0.96898   0.43313   0.00000  Uiso   1.00
H2541  H     0.87342   0.79403   0.67596   0.00000  Uiso   1.00
H2542  H     0.83163   0.81940   0.67992   0.00000  Uiso   1.00
H2543  H     0.84174   0.73842   0.70108   0.00000  Uiso   1.00
H2544  H     0.80027   0.76390   0.70722   0.00000  Uiso   1.00
H2545  H     0.79768   0.77562   0.63580   0.00000  Uiso   1.00
H2546  H     0.80025   0.72729   0.64571   0.00000  Uiso   1.00
H2547  H     0.84022   0.75174   0.62920   0.00000  Uiso   1.00
H2548  H     0.71501   0.87316   0.33820   0.00000  Uiso   1.00
H2549  H     0.70626   0.85595   0.29054   0.00000  Uiso   1.00
H2550  H     0.66609   0.82992   0.36534   0.00000  Uiso   1.00
H2551  H     0.86469   0.95350   0.47614   0.00000  Uiso   1.00
H2552  H     0.66316   0.80977   0.31735   0.00000  Uiso   1.00
H2553  H     0.72930   0.79465   0.31944   0.00000  Uiso   1.00
H2554  H     0.70357   0.77351   0.35825   0.00000  Uiso   1.00
H2555  H     0.73145   0.81293   0.36856   0.00000  Uiso   1.00
H2556  H     0.86812   0.54560   0.69232   0.00000  Uiso   1.00
H2557  H     0.89736   0.57417   0.66206   0.00000  Uiso   1.00
H2558  H     0.82250   0.54243   0.63874   0.00000  Uiso   1.00
H2559  H     0.85179   0.56985   0.60831   0.00000  Uiso   1.00
H2560  H     0.90049   0.52183   0.61320   0.00000  Uiso   1.00
H2561  H     0.85874   0.50459   0.59249   0.00000  Uiso   1.00
H2562  H     0.70938   0.59248   0.57459   0.00000  Uiso   1.00
H2563  H     0.86982   0.99410   0.64242   0.00000  Uiso   1.00
H2564  H     0.69326   0.61388   0.53079   0.00000  Uiso   1.00
H2565  H     0.66505   0.61296   0.57387   0.00000  Uiso   1.00
H2566  H     0.64315   0.56963   0.52591   0.00000  Uiso   1.00
H2567  H     0.65522   0.54655   0.56804   0.00000  Uiso   1.00
H2568  H     0.90090   0.73338   0.42469   0.00000  Uiso   1.00
H2569  H     0.87625   0.73211   0.47013   0.00000  Uiso   1.00
H2570  H     0.85769   0.75591   0.42882   0.00000  Uiso   1.00
H2571  H     0.79479   0.96412   0.59910   0.00000  Uiso   1.00
H2572  H     0.88109   0.79913   0.47562   0.00000  Uiso   1.00
H2573  H     0.90658   0.80336   0.43307   0.00000  Uiso   1.00
H2574  H     0.54719   0.66776   0.57670   0.00000  Uiso   1.00
H2575  H     0.55239   0.64902   0.52836   0.00000  Uiso   1.00
H2576  H     0.58719   0.64230   0.56445   0.00000  Uiso   1.00
H2577  H     0.60804   0.68644   0.51939   0.00000  Uiso   1.00
H2578  H     0.60088   0.71037   0.56360   0.00000  Uiso   1.00
H2579  H     0.65909   0.60286   0.47013   0.00000  Uiso   1.00
H2580  H     0.68250   0.58950   0.42623   0.00000  Uiso   1.00
H2581  H     0.63339   0.59005   0.42768   0.00000  Uiso   1.00
H2582  H     0.55366   0.73014   0.40190   0.00000  Uiso   1.00
H2583  H     0.65291   0.52644   0.43222   0.00000  Uiso   1.00
H2584  H     0.63261   0.53859   0.47548   0.00000  Uiso   1.00
H2585  H     0.78368   0.90471   0.57574   0.00000  Uiso   1.00
H2586  H     0.79419   0.88306   0.52990   0.00000  Uiso   1.00
H2587  H     0.82460   0.87834   0.57070   0.00000  Uiso   1.00
H2588  H     0.85018   0.92052   0.52428   0.00000  Uiso   1.00
H2589  H     0.84120   0.94447   0.56693   0.00000  Uiso   1.00
H2590  H     0.84190   0.53104   0.91943   0.00000  Uiso   1.00
H2591  H     0.85938   0.54321   0.96679   0.00000  Uiso   1.00
H2592  H     0.88873   0.52278   0.93076   0.00000  Uiso   1.00
H2593  H     0.94716   0.77365   0.59907   0.00000  Uiso   1.00
H2594  H     0.87430   0.97877   0.97887   0.00000  Uiso   1.00
H2595  H     0.85283   0.96394   0.93534   0.00000  Uiso   1.00
H2596  H     0.61489   0.52151   0.03200   0.00000  Uiso   1.00
H2597  H     0.63879   0.51161   0.07642   0.00000  Uiso   1.00
H2598  H     0.61074   0.55172   0.07313   0.00000  Uiso   1.00
H2599  H     0.67503   0.57040   0.06812   0.00000  Uiso   1.00
H2600  H     0.65311   0.57986   0.02508   0.00000  Uiso   1.00
H2601  H     0.54510   0.64714   0.92198   0.00000  Uiso   1.00
H2602  H     0.59147   0.63251   0.92787   0.00000  Uiso   1.00
H2603  H     0.55942   0.62737   0.96738   0.00000  Uiso   1.00
H2604  H     0.79605   0.96570   0.40069   0.00000  Uiso   1.00
H2605  H     0.58848   0.70010   0.93280   0.00000  Uiso   1.00
H2606  H     0.60358   0.68169   0.97572   0.00000  Uiso   1.00
H2607  H     0.97203   0.84705   0.07293   0.00000  Uiso   1.00
H2608  H     0.95823   0.86954   0.02883   0.00000  Uiso   1.00
H2609  H     0.93086   0.87326   0.07232   0.00000  Uiso   1.00
H2610  H     0.90261   0.83202   0.02578   0.00000  Uiso   1.00
H2611  H     0.91233   0.80849   0.06831   0.00000  Uiso   1.00
H2612  H     0.65032   0.98591   0.92526   0.00000  Uiso   1.00
H2613  H     0.62574   0.98571   0.97073   0.00000  Uiso   1.00
H2614  H     0.60773   0.50964   0.92923   0.00000  Uiso   1.00
H2615  H     0.70453   0.53438   0.59950   0.00000  Uiso   1.00
H2616  H     0.63244   0.55273   0.97549   0.00000  Uiso   1.00
H2617  H     0.65792   0.55578   0.93286   0.00000  Uiso   1.00
H2618  H     0.79880   0.91917   0.07559   0.00000  Uiso   1.00
H2619  H     0.80515   0.90089   0.02722   0.00000  Uiso   1.00
H2620  H     0.83964   0.89488   0.06380   0.00000  Uiso   1.00
H2621  H     0.85974   0.93986   0.01913   0.00000  Uiso   1.00
H2622  H     0.85171   0.96315   0.06353   0.00000  Uiso   1.00
H2623  H     0.94091   0.84620   0.92496   0.00000  Uiso   1.00
H2624  H     0.89222   0.85157   0.92892   0.00000  Uiso   1.00
H2625  H     0.92095   0.86203   0.96981   0.00000  Uiso   1.00
H2626  H     0.69652   0.52281   0.90115   0.00000  Uiso   1.00
H2627  H     0.90631   0.78640   0.93258   0.00000  Uiso   1.00
H2628  H     0.88770   0.80069   0.97618   0.00000  Uiso   1.00
H2629  H     0.51719   0.65072   0.07808   0.00000  Uiso   1.00
H2630  H     0.52251   0.62642   0.03276   0.00000  Uiso   1.00
H2631  H     0.55259   0.61734   0.07297   0.00000  Uiso   1.00
H2632  H     0.58395   0.65293   0.02450   0.00000  Uiso   1.00
H2633  H     0.58066   0.67943   0.06650   0.00000  Uiso   1.00
H2634  H     0.62535   0.95928   0.17128   0.00000  Uiso   1.00
H2635  H     0.59054   0.92481   0.17566   0.00000  Uiso   1.00
H2636  H     0.64478   0.93538   0.10774   0.00000  Uiso   1.00
O2637  O     0.75000   0.50000   0.25000   0.00000  Uiso   1.00
O2638  O     0.75000   0.96963   0.66245   0.00000  Uiso   1.00
O2639  O     0.96963   0.75000   0.33755   0.00000  Uiso   1.00
O2640  O     0.53036   0.75000   0.66245   0.00000  Uiso   1.00
O2641  O     0.50000   0.71964   0.83755   0.00000  Uiso   1.00
O2642  O     0.50000   0.78037   0.16245   0.00000  Uiso   1.00
O2643  O     0.78036   0.50000   0.83755   0.00000  Uiso   1.00
O2644  O     0.71963   0.50000   0.16245   0.00000  Uiso   1.00
O2645  O     0.50000   0.78037   0.83755   0.00000  Uiso   1.00
O2646  O     0.50000   0.71963   0.16245   0.00000  Uiso   1.00
O2647  O     0.71963   0.50000   0.83755   0.00000  Uiso   1.00
O2648  O     0.75000   0.50000   0.75000   0.00000  Uiso   1.00
O2649  O     0.78036   0.50000   0.16245   0.00000  Uiso   1.00
O2650  O     0.70724   0.57307   0.27302   0.00000  Uiso   1.00
O2651  O     0.79275   0.92692   0.72698   0.00000  Uiso   1.00
O2652  O     0.92692   0.70724   0.27302   0.00000  Uiso   1.00
O2653  O     0.57307   0.79276   0.72698   0.00000  Uiso   1.00
O2654  O     0.79275   0.92692   0.27302   0.00000  Uiso   1.00
O2655  O     0.70724   0.57307   0.72698   0.00000  Uiso   1.00
O2656  O     0.57307   0.79276   0.27302   0.00000  Uiso   1.00
O2657  O     0.92692   0.70724   0.72698   0.00000  Uiso   1.00
O2658  O     0.70724   0.92692   0.72698   0.00000  Uiso   1.00
O2659  O     0.50000   0.75000   0.25000   0.00000  Uiso   1.00
O2660  O     0.79275   0.57307   0.27302   0.00000  Uiso   1.00
O2661  O     0.92692   0.79275   0.72698   0.00000  Uiso   1.00
O2662  O     0.57307   0.70725   0.27302   0.00000  Uiso   1.00
O2663  O     0.79275   0.57307   0.72698   0.00000  Uiso   1.00
O2664  O     0.70724   0.92692   0.27302   0.00000  Uiso   1.00
O2665  O     0.57307   0.70725   0.72698   0.00000  Uiso   1.00
O2666  O     0.92692   0.79275   0.27302   0.00000  Uiso   1.00
O2667  O     0.95724   0.82307   0.77302   0.00000  Uiso   1.00
O2668  O     0.54275   0.67693   0.22698   0.00000  Uiso   1.00
O2669  O     0.67692   0.95725   0.77302   0.00000  Uiso   1.00
O2670  O     0.50000   0.75000   0.75000   0.00000  Uiso   1.00
O2671  O     0.82307   0.54275   0.22698   0.00000  Uiso   1.00
O2672  O     0.54275   0.67693   0.77302   0.00000  Uiso   1.00
O2673  O     0.95724   0.82307   0.22698   0.00000  Uiso   1.00
O2674  O     0.82307   0.54275   0.77302   0.00000  Uiso   1.00
O2675  O     0.67692   0.95725   0.22698   0.00000  Uiso   1.00
O2676  O     0.95724   0.67692   0.22698   0.00000  Uiso   1.00
O2677  O     0.54275   0.82308   0.77302   0.00000  Uiso   1.00
O2678  O     0.67692   0.54275   0.22698   0.00000  Uiso   1.00
O2679  O     0.82307   0.95724   0.77302   0.00000  Uiso   1.00
O2680  O     0.54275   0.82308   0.22698   0.00000  Uiso   1.00
O2681  O     0.75000   0.96963   0.33755   0.00000  Uiso   1.00
O2682  O     0.95724   0.67692   0.77302   0.00000  Uiso   1.00
O2683  O     0.82307   0.95724   0.22698   0.00000  Uiso   1.00
O2684  O     0.67692   0.54275   0.77302   0.00000  Uiso   1.00
O2685  O     0.64590   0.90777   0.17983   0.00000  Uiso   1.00
O2686  O     0.84665   0.59931   0.82063   0.00000  Uiso   1.00
O2687  O     0.55357   0.60716   0.22709   0.00000  Uiso   1.00
O2688  O     0.94202   0.89180   0.78260   0.00000  Uiso   1.00
O2689  O     0.86571   0.58206   0.18385   0.00000  Uiso   1.00
O2690  O     0.64105   0.91244   0.81911   0.00000  Uiso   1.00
O2691  O     0.94503   0.89146   0.22189   0.00000  Uiso   1.00
O2692  O     0.75000   0.53036   0.66245   0.00000  Uiso   1.00
O2693  O     0.55601   0.60863   0.78010   0.00000  Uiso   1.00
O2694  O     0.60783   0.55453   0.77546   0.00000  Uiso   1.00
O2695  O     0.89079   0.94244   0.21567   0.00000  Uiso   1.00
O2696  O     0.58287   0.86558   0.81699   0.00000  Uiso   1.00
O2697  O     0.91247   0.64067   0.18083   0.00000  Uiso   1.00
O2698  O     0.89320   0.94693   0.76714   0.00000  Uiso   1.00
O2699  O     0.60775   0.55408   0.22445   0.00000  Uiso   1.00
O2700  O     0.89755   0.65574   0.82034   0.00000  Uiso   1.00
O2701  O     0.59296   0.85351   0.17952   0.00000  Uiso   1.00
O2702  O     0.90420   0.65040   0.67980   0.00000  Uiso   1.00
O2703  O     0.53036   0.75000   0.33755   0.00000  Uiso   1.00
O2704  O     0.60363   0.84285   0.32012   0.00000  Uiso   1.00
O2705  O     0.80280   0.85635   0.73141   0.00000  Uiso   1.00
O2706  O     0.69108   0.64076   0.28524   0.00000  Uiso   1.00
O2707  O     0.61711   0.83186   0.68388   0.00000  Uiso   1.00
O2708  O     0.89036   0.66284   0.31891   0.00000  Uiso   1.00
O2709  O     0.69540   0.64198   0.72442   0.00000  Uiso   1.00
O2710  O     0.80847   0.85964   0.28541   0.00000  Uiso   1.00
O2711  O     0.85800   0.80473   0.27495   0.00000  Uiso   1.00
O2712  O     0.64043   0.69173   0.71471   0.00000  Uiso   1.00
O2713  O     0.83201   0.61643   0.31654   0.00000  Uiso   1.00
O2714  O     0.96963   0.75000   0.66245   0.00000  Uiso   1.00
O2715  O     0.66238   0.89095   0.68095   0.00000  Uiso   1.00
O2716  O     0.64251   0.69598   0.27157   0.00000  Uiso   1.00
O2717  O     0.85607   0.80256   0.73267   0.00000  Uiso   1.00
O2718  O     0.66440   0.88644   0.31799   0.00000  Uiso   1.00
O2719  O     0.84857   0.59766   0.67948   0.00000  Uiso   1.00
O2720  O     0.75000   0.53036   0.33755   0.00000  Uiso   1.00
Zn2721 Zn    0.70659   0.50000   0.21735   0.00000  Uiso   1.00
Zn2722 Zn    0.54340   0.75000   0.28265   0.00000  Uiso   1.00
Zn2723 Zn    0.75000   0.95659   0.71735   0.00000  Uiso   1.00
Zn2724 Zn    0.75000   0.54340   0.28265   0.00000  Uiso   1.00
Zn2725 Zn    0.54340   0.75000   0.71735   0.00000  Uiso   1.00
Zn2726 Zn    0.95659   0.75000   0.28265   0.00000  Uiso   1.00
Zn2727 Zn    0.75000   0.54340   0.71735   0.00000  Uiso   1.00
Zn2728 Zn    0.75000   0.95659   0.28265   0.00000  Uiso   1.00
Zn2729 Zn    0.79340   0.50000   0.78265   0.00000  Uiso   1.00
Zn2730 Zn    0.50000   0.70659   0.21735   0.00000  Uiso   1.00
Zn2731 Zn    0.50000   0.79341   0.78265   0.00000  Uiso   1.00
Zn2732 Zn    0.79340   0.50000   0.21735   0.00000  Uiso   1.00
Zn2733 Zn    0.70659   0.50000   0.78265   0.00000  Uiso   1.00
Zn2734 Zn    0.50000   0.79340   0.21735   0.00000  Uiso   1.00
Zn2735 Zn    0.50000   0.70660   0.78265   0.00000  Uiso   1.00
Zn2736 Zn    0.95659   0.75000   0.71735   0.00000  Uiso   1.00
loop_
_geom_bond_atom_site_label_1
_geom_bond_atom_site_label_2
_geom_bond_distance
_geom_bond_site_symmetry_2
_ccdc_geom_bond_type
C1     C79     1.391   .     A
C1     H265    1.078   .     S
C1     C4      1.404   .     A
C2     C14     1.400   .     A
C2     H266    1.080   .     S
C2     C1503   1.389   .     S
C3     C243    1.406   .     A
C3     C186    1.425   .     A
C3     C1406   1.425   1_545 S
C4     C187    1.425   .     A
C4     C718    1.421   .     S
C5     C36     1.421   .     A
C5     C189    1.420   .     A
C5     C112    1.399   .     A
C6     C188    1.405   .     A
C6     C190    1.421   .     A
C6     C1405   1.422   1_545 S
C7     C191    1.424   .     A
C7     C38     1.424   .     A
C7     C199    1.405   .     A
C8     C192    1.418   .     A
C8     C35     1.396   .     A
C8     C1407   1.420   .     S
C9     C193    1.422   .     A
C9     C46     1.404   .     A
C9     C40     1.419   .     A
C10    C194    1.423   .     A
C10    C57     1.406   .     A
C10    C725    1.422   1_455 S
C11    C195    1.425   .     A
C11    C68     1.405   .     A
C11    C42     1.425   .     A
C12    C196    1.426   .     A
C12    C39     1.421   .     A
C12    C254    1.404   .     A
C13    H277    1.080   .     S
C13    C146    1.386   .     A
C13    C15     1.404   .     A
C14    C197    1.420   .     A
C14    C1408   1.421   .     S
C15    C198    1.419   .     A
C15    C41     1.421   .     A
C16    C200    1.425   .     A
C16    C24     1.404   .     A
C16    C726    1.423   1_455 S
C17    C216    1.447   .     S
C17    C246    1.403   .     A
C17    C244    1.406   .     A
C18    C245    1.408   .     A
C18    C242    1.408   .     A
C18    C217    1.455   .     S
C19    C241    1.414   .     A
C19    C248    1.415   .     A
C19    C209    1.466   .     S
C20    C240    1.402   .     A
C20    C247    1.408   .     A
C20    C211    1.456   .     S
C21    C239    1.406   .     A
C21    C250    1.406   .     A
C21    C212    1.445   .     S
C22    C213    1.460   .     S
C22    C238    1.416   .     A
C22    C249    1.416   .     A
C23    C252    1.415   .     A
C23    C214    1.465   .     S
C23    C237    1.417   .     A
C24    H288    1.079   .     S
C24    C841    1.387   1_455 S
C25    C251    1.405   .     A
C25    C215    1.456   .     S
C25    C236    1.407   .     A
C26    C255    1.415   .     A
C26    C225    1.464   .     S
C26    C235    1.412   .     A
C27    C234    1.407   .     A
C27    C253    1.404   .     A
C27    C226    1.455   .     S
C28    C233    1.405   .     A
C28    C257    1.405   .     A
C28    C218    1.444   .     S
C29    C231    1.411   .     A
C29    C256    1.415   .     A
C29    C219    1.458   .     S
C30    C220    1.465   .     S
C30    C259    1.411   .     A
C30    C230    1.415   .     A
C31    C229    1.408   .     A
C31    C222    1.456   .     S
C31    C258    1.403   .     A
C32    C228    1.406   .     A
C32    C223    1.451   .     S
C32    C261    1.405   .     A
C33    C227    1.409   .     A
C33    C224    1.459   .     S
C33    C260    1.415   .     A
C34    C36     1.398   .     A
C34    C262    1.421   .     A
C34    C688    1.421   1_455 S
C35    H299    1.081   .     S
C35    C1492   1.388   .     S
C36    C947    1.419   1_455 S
C37    C264    1.422   .     A
C37    C38     1.402   .     A
C37    C1374   1.422   .     S
C38    C1371   1.425   .     S
C39    C1376   1.420   1_545 S
C39    C40     1.399   1_556 S
C40    C1382   1.421   1_545 S
C40    C39     1.399   1_554 S
C41    C694    1.422   .     S
C41    C42     1.401   1_556 S
C42    C700    1.423   .     S
C42    C41     1.401   1_554 S
C43    C168    1.534   .     S
C43    C44     1.533   .     S
C43    H388    1.110   .     S
C43    H377    1.104   .     S
C44    H354    1.111   .     S
C44    H365    1.111   .     S
C44    H343    1.108   .     S
C45    C47     1.528   .     S
C45    H432    1.109   .     S
C45    H443    1.109   .     S
C45    C179    1.528   .     S
C46    H310    1.079   .     S
C46    C135    1.392   .     A
C47    H410    1.110   .     S
C47    H421    1.109   .     S
C47    H399    1.108   .     S
C48    C185    1.527   .     S
C48    H488    1.109   .     S
C48    C49     1.527   .     S
C48    H499    1.109   .     S
C49    H465    1.109   .     S
C49    H454    1.109   .     S
C49    H476    1.110   .     S
C50    H515    1.109   .     S
C50    C186    1.533   .     S
C50    C51     1.529   .     S
C50    H514    1.102   .     S
C51    H510    1.108   .     S
C51    H512    1.110   .     S
C51    H513    1.108   .     S
C52    C187    1.535   .     S
C52    C53     1.531   .     S
C52    H520    1.102   .     S
C52    H521    1.109   .     S
C53    H517    1.111   .     S
C53    H516    1.108   .     S
C53    H518    1.111   .     S
C54    C189    1.530   .     S
C54    H525    1.104   .     S
C54    C55     1.532   .     S
C54    H526    1.108   .     S
C55    H524    1.111   .     S
C55    H522    1.108   .     S
C55    H523    1.111   .     S
C56    C190    1.528   .     S
C56    C58     1.527   .     S
C56    H531    1.109   .     S
C56    H532    1.108   .     S
C57    H321    1.080   .     S
C57    C830    1.389   1_455 S
C58    H527    1.108   .     S
C58    H528    1.110   .     S
C58    H529    1.110   .     S
C59    C191    1.535   .     S
C59    C60     1.530   .     S
C59    H536    1.102   .     S
C59    H537    1.108   .     S
C60    H533    1.109   .     S
C60    H535    1.111   .     S
C60    H534    1.111   .     S
C61    H542    1.104   .     S
C61    H543    1.110   .     S
C61    C192    1.534   .     S
C61    C1430   1.533   .     S
C62    H539    1.111   .     S
C62    H540    1.111   .     S
C62    H538    1.108   .     S
C62    C1429   1.533   1_545 S
C63    H548    1.109   .     S
C63    H547    1.110   .     S
C63    C64     1.527   .     S
C63    C193    1.528   .     S
C64    H544    1.108   .     S
C64    H546    1.109   .     S
C64    H545    1.109   .     S
C65    H553    1.109   .     S
C65    C194    1.529   .     S
C65    H554    1.108   .     S
C65    C66     1.529   .     S
C66    H551    1.109   .     S
C66    H550    1.110   .     S
C66    H549    1.108   .     S
C67    H558    1.102   .     S
C67    C195    1.532   .     S
C67    C69     1.529   .     S
C67    H559    1.109   .     S
C68    C157    1.385   .     A
C68    H332    1.079   .     S
C69    H557    1.107   .     S
C69    H556    1.110   .     S
C69    H555    1.108   .     S
C70    C196    1.534   .     S
C70    C71     1.531   .     S
C70    H564    1.102   .     S
C70    H565    1.109   .     S
C71    H562    1.111   .     S
C71    H1928   1.108   1_545 S
C71    H1929   1.111   1_545 S
C72    C73     1.532   .     S
C72    C197    1.530   .     S
C72    H570    1.107   .     S
C72    H569    1.104   .     S
C73    H566    1.108   .     S
C73    H568    1.111   .     S
C73    H567    1.111   .     S
C74    C198    1.527   .     S
C74    H575    1.110   .     S
C74    C75     1.526   .     S
C74    H576    1.109   .     S
C75    H572    1.110   .     S
C75    H573    1.108   .     S
C75    H571    1.109   .     S
C76    H581    1.109   .     S
C76    C77     1.531   .     S
C76    C200    1.535   .     S
C76    H580    1.102   .     S
C77    H578    1.111   .     S
C77    H577    1.108   .     S
C77    H579    1.111   .     S
C78    C80     1.528   .     S
C78    H582    1.111   .     S
C78    H583    1.117   .     S
C78    O633    1.416   .     S
C79    C203    1.455   .     S
C79    C894    1.388   .     S
C80    H267    1.111   .     S
C80    H584    1.112   .     S
C80    C81     1.525   .     S
C81    H268    1.111   .     S
C81    H270    1.107   .     S
C81    H269    1.110   .     S
C82    H271    1.115   .     S
C82    C83     1.528   .     S
C82    H272    1.114   .     S
C82    O634    1.412   .     S
C83    C84     1.526   .     S
C83    H273    1.111   .     S
C83    H274    1.112   .     S
C84    H276    1.111   .     S
C84    H278    1.111   .     S
C84    H275    1.111   .     S
C85    H279    1.115   .     S
C85    O635    1.412   .     S
C85    H280    1.114   .     S
C85    C770    1.531   1_455 S
C86    H282    1.111   .     S
C86    C87     1.525   .     S
C86    H281    1.109   .     S
C86    C769    1.531   .     S
C87    H285    1.109   .     S
C87    H284    1.111   .     S
C87    H283    1.111   .     S
C88    O636    1.422   .     S
C88    H287    1.118   .     S
C88    C89     1.537   .     S
C88    H286    1.109   .     S
C89    C91     1.525   .     S
C89    H289    1.110   .     S
C89    H290    1.108   .     S
C90    C204    1.457   .     S
C90    C112    1.389   .     A
C90    C905    1.392   1_455 S
C91    H291    1.108   .     S
C91    H293    1.110   .     S
C91    H292    1.111   .     S
C92    H295    1.117   .     S
C92    O637    1.419   .     S
C92    H294    1.112   .     S
C92    C93     1.529   .     S
C93    H297    1.111   .     S
C93    H296    1.112   .     S
C93    C94     1.526   .     S
C94    H300    1.110   .     S
C94    H298    1.111   .     S
C94    H301    1.109   .     S
C95    O638    1.415   .     S
C95    H303    1.115   .     S
C95    C96     1.532   .     S
C95    H302    1.111   .     S
C96    H305    1.111   .     S
C96    H304    1.112   .     S
C96    C97     1.526   .     S
C97    H306    1.109   .     S
C97    H308    1.111   .     S
C97    H307    1.110   .     S
C98    H311    1.114   .     S
C98    H309    1.115   .     S
C98    O639    1.411   .     S
C98    C783    1.531   .     S
C99    H312    1.111   .     S
C99    C100    1.525   .     S
C99    C782    1.531   1_455 S
C99    H997    1.112   1_455 S
C100   H315    1.111   .     S
C100   H314    1.111   .     S
C100   H316    1.109   .     S
C101   C232    1.387   .     A
C101   C1556   1.386   .     S
C101   C1569   1.453   .     S
C102   H317    1.112   .     S
C102   O641    1.418   .     S
C102   C103    1.530   .     S
C102   H318    1.116   .     S
C103   H320    1.111   .     S
C103   H319    1.111   .     S
C103   C104    1.527   .     S
C104   H323    1.110   .     S
C104   H322    1.111   .     S
C104   H324    1.109   .     S
C105   O642    1.412   .     S
C105   H326    1.114   .     S
C105   H325    1.115   .     S
C105   C1474   1.527   1_545 S
C106   C107    1.525   .     S
C106   H328    1.110   .     S
C106   H327    1.110   .     S
C106   C1473   1.527   .     S
C107   H329    1.110   .     S
C107   H330    1.110   .     S
C107   H331    1.108   .     S
C108   C109    1.534   .     S
C108   H333    1.111   .     S
C108   O643    1.419   .     S
C108   H334    1.118   .     S
C109   H335    1.111   .     S
C109   H336    1.109   .     S
C109   C110    1.523   .     S
C110   H338    1.110   .     S
C110   H339    1.108   .     S
C110   H337    1.109   .     S
C111   H341    1.117   .     S
C111   H340    1.110   .     S
C111   C114    1.534   .     S
C111   O644    1.419   .     S
C112   H376    1.081   .     S
C113   C202    1.452   .     S
C113   C199    1.386   .     A
C113   C1611   1.385   .     S
C114   C115    1.523   .     S
C114   H342    1.112   .     S
C114   H344    1.106   .     S
C115   H346    1.110   .     S
C115   H347    1.108   .     S
C115   H345    1.111   .     S
C116   H348    1.111   .     S
C116   C117    1.531   .     S
C116   H349    1.116   .     S
C116   O645    1.417   .     S
C117   C118    1.526   .     S
C117   H351    1.111   .     S
C117   H350    1.110   .     S
C118   H355    1.111   .     S
C118   H353    1.110   .     S
C118   H352    1.110   .     S
C119   H356    1.115   .     S
C119   H357    1.114   .     S
C119   O646    1.411   .     S
C119   C1488   1.528   .     S
C120   H359    1.112   .     S
C120   H358    1.112   .     S
C120   C121    1.526   .     S
C120   C1487   1.528   1_545 S
C121   H362    1.110   .     S
C121   H360    1.110   .     S
C121   H361    1.111   .     S
C122   H363    1.112   .     S
C122   H364    1.117   .     S
C122   O647    1.419   .     S
C122   C123    1.534   .     S
C123   C125    1.526   .     S
C123   H367    1.109   .     S
C123   H1734   1.110   1_545 S
C124   C254    1.392   .     A
C124   C207    1.456   .     S
C124   C1403   1.388   1_545 S
C125   H369    1.110   .     S
C125   H370    1.108   .     S
C125   H368    1.111   .     S
C126   C127    1.530   .     S
C126   H371    1.114   .     S
C126   O648    1.412   .     S
C126   H372    1.113   .     S
C127   H373    1.111   .     S
C127   H374    1.112   .     S
C127   C128    1.524   .     S
C128   H379    1.110   .     S
C128   H375    1.111   .     S
C128   H378    1.111   .     S
C129   H380    1.115   .     S
C129   C130    1.529   .     S
C129   H381    1.115   .     S
C129   O649    1.412   .     S
C130   H383    1.111   .     S
C130   C131    1.526   .     S
C130   H382    1.110   .     S
C131   H384    1.111   .     S
C131   H386    1.111   .     S
C131   H385    1.111   .     S
C132   H387    1.111   .     S
C132   H389    1.116   .     S
C132   O650    1.417   .     S
C132   C133    1.530   .     S
C133   H390    1.112   .     S
C133   H391    1.110   .     S
C133   C134    1.525   .     S
C134   H393    1.110   .     S
C134   H392    1.111   .     S
C134   H394    1.107   .     S
C135   C208    1.458   .     S
C135   C1370   1.389   1_545 S
C136   H395    1.111   .     S
C136   C137    1.532   .     S
C136   O652    1.415   .     S
C136   H396    1.116   .     S
C137   H397    1.112   .     S
C137   H398    1.111   .     S
C137   C138    1.526   .     S
C138   H401    1.110   .     S
C138   H402    1.111   .     S
C138   H400    1.110   .     S
C139   H403    1.115   .     S
C139   O653    1.411   .     S
C139   C140    1.528   .     S
C139   H404    1.114   .     S
C140   C141    1.524   .     S
C140   H406    1.111   .     S
C140   H405    1.111   .     S
C141   H407    1.110   .     S
C141   H409    1.108   .     S
C141   H408    1.111   .     S
C142   H411    1.110   .     S
C142   O654    1.421   .     S
C142   C143    1.537   .     S
C142   H412    1.117   .     S
C143   C144    1.525   .     S
C143   H414    1.109   .     S
C143   H413    1.111   .     S
C144   H417    1.110   .     S
C144   H415    1.108   .     S
C144   H416    1.111   .     S
C145   C147    1.534   .     S
C145   O655    1.420   .     S
C145   H418    1.109   .     S
C145   H419    1.117   .     S
C146   C741    1.389   .     S
C146   C889    1.454   .     S
C147   H422    1.108   .     S
C147   C148    1.525   .     S
C147   H420    1.112   .     S
C148   H424    1.110   .     S
C148   H423    1.111   .     S
C148   H425    1.108   .     S
C149   H426    1.111   .     S
C149   C150    1.532   .     S
C149   H427    1.115   .     S
C149   O656    1.415   .     S
C150   H429    1.111   .     S
C150   H428    1.112   .     S
C150   C151    1.526   .     S
C151   H431    1.110   .     S
C151   H433    1.111   .     S
C151   H430    1.110   .     S
C152   H435    1.114   .     S
C152   C153    1.530   .     S
C152   H434    1.115   .     S
C152   O657    1.412   .     S
C153   H437    1.112   .     S
C153   H436    1.111   .     S
C153   C154    1.526   .     S
C154   H439    1.111   .     S
C154   H440    1.110   .     S
C154   H438    1.110   .     S
C155   O658    1.421   .     S
C155   C156    1.536   .     S
C155   H442    1.118   .     S
C155   H441    1.111   .     S
C156   C158    1.525   .     S
C156   H445    1.108   .     S
C156   H444    1.110   .     S
C157   C708    1.387   .     S
C157   C890    1.454   .     S
C158   H447    1.110   .     S
C158   H448    1.110   .     S
C158   H446    1.109   .     S
C159   H449    1.115   .     S
C159   H450    1.115   .     S
C159   C160    1.527   .     S
C159   O659    1.411   .     S
C160   H451    1.111   .     S
C160   H452    1.111   .     S
C160   C161    1.525   .     S
C161   H456    1.109   .     S
C161   H453    1.110   .     S
C161   H455    1.110   .     S
C162   O660    1.419   .     S
C162   H457    1.109   .     S
C162   C163    1.534   .     S
C162   H458    1.118   .     S
C163   H459    1.111   .     S
C163   C164    1.524   .     S
C163   H460    1.110   .     S
C164   H462    1.110   .     S
C164   H463    1.110   .     S
C164   H461    1.108   .     S
C165   O661    1.419   .     S
C165   H466    1.117   .     S
C165   C166    1.534   .     S
C165   H464    1.110   .     S
C166   H467    1.112   .     S
C166   H468    1.107   .     S
C166   C167    1.525   .     S
C167   H469    1.111   .     S
C167   H470    1.111   .     S
C167   H471    1.108   .     S
C168   C262    1.419   .     A
C168   C189    1.414   .     A
C169   H473    1.115   .     S
C169   O663    1.415   .     S
C169   C170    1.532   .     S
C169   H472    1.111   .     S
C170   H475    1.111   .     S
C170   C171    1.526   .     S
C170   H474    1.112   .     S
C171   H478    1.110   .     S
C171   H479    1.111   .     S
C171   H477    1.110   .     S
C172   H480    1.116   .     S
C172   H481    1.114   .     S
C172   O664    1.411   .     S
C172   C173    1.528   .     S
C173   H482    1.111   .     S
C173   H483    1.111   .     S
C173   C174    1.525   .     S
C174   H485    1.111   .     S
C174   H486    1.110   .     S
C174   H484    1.110   .     S
C175   C176    1.529   .     S
C175   H490    1.114   .     S
C175   O665    1.414   .     S
C175   H489    1.112   .     S
C176   C177    1.524   .     S
C176   H491    1.112   .     S
C176   H492    1.112   .     S
C177   H494    1.111   .     S
C177   H495    1.108   .     S
C177   H493    1.111   .     S
C178   O666    1.421   .     S
C178   H496    1.111   .     S
C178   C180    1.537   .     S
C178   H497    1.117   .     S
C179   C263    1.423   .     A
C179   C187    1.422   .     A
C180   H498    1.112   .     S
C180   H500    1.109   .     S
C180   C181    1.524   .     S
C181   H503    1.109   .     S
C181   H501    1.111   .     S
C181   H502    1.111   .     S
C182   C183    1.528   .     S
C182   H505    1.114   .     S
C182   O667    1.411   .     S
C182   H504    1.114   .     S
C183   H507    1.111   .     S
C183   H506    1.111   .     S
C183   C184    1.525   .     S
C184   H508    1.111   .     S
C184   H509    1.110   .     S
C184   H1879   1.111   1_545 S
C185   C191    1.421   .     A
C185   C264    1.422   .     A
C186   C190    1.421   .     A
C188   H487    1.080   .     S
C188   C1469   1.386   1_545 S
C192   C197    1.414   1_556 S
C193   C196    1.422   1_554 S
C194   C200    1.422   1_556 S
C195   C198    1.420   1_554 S
C196   C193    1.422   1_556 S
C197   C192    1.414   1_554 S
C198   C195    1.420   1_556 S
C199   H519    1.079   .     S
C200   C194    1.422   1_554 S
C201   O668    1.278   .     A
C201   C1469   1.453   1_545 S
C201   O1997   1.277   1_545 S
C202   O586    1.276   .     A
C202   O2008   1.279   .     S
C203   O587    1.280   .     A
C203   O1335   1.280   .     S
C204   O588    1.281   .     A
C204   O1346   1.280   1_455 S
C205   O593    1.281   .     A
C205   O589    1.275   .     A
C205   C830    1.454   1_455 S
C206   O590    1.280   .     A
C206   C841    1.454   1_455 S
C206   O594    1.276   .     S
C207   O591    1.280   .     A
C207   O595    1.281   .     A
C208   O592    1.281   .     S
C208   O597    1.281   .     S
C209   O626    1.284   .     A
C209   O598    1.281   .     A
C210   C262    1.396   .     A
C210   H530    1.081   .     S
C210   C763    1.388   1_455 S
C211   O599    1.277   .     A
C211   O627    1.282   .     A
C212   O624    1.277   .     A
C212   O600    1.276   .     A
C213   O601    1.281   .     A
C213   O625    1.281   .     A
C214   O631    1.281   .     A
C214   O602    1.281   .     A
C215   O632    1.278   .     A
C215   O603    1.279   .     A
C216   O604    1.281   .     A
C216   O628    1.277   .     A
C217   O630    1.283   .     A
C217   O605    1.281   .     A
C218   O617    1.276   .     A
C218   O606    1.277   .     A
C219   O619    1.282   .     A
C219   O608    1.279   .     A
C220   O609    1.285   .     A
C220   O615    1.279   .     A
C221   C263    1.403   .     A
C221   H541    1.079   .     S
C221   C774    1.392   .     S
C222   O616    1.277   .     A
C222   O610    1.281   .     A
C223   O611    1.281   .     A
C223   O622    1.280   .     A
C224   O623    1.287   .     A
C224   O612    1.279   .     A
C225   O613    1.279   .     A
C225   O620    1.282   .     A
C226   O621    1.276   .     A
C226   O614    1.280   .     A
C227   O633    1.386   .     S
C227   C244    1.399   .     A
C228   O634    1.384   .     S
C228   C242    1.399   .     A
C229   C241    1.404   .     A
C229   O635    1.385   .     S
C230   O636    1.386   .     S
C230   C240    1.395   .     A
C231   C239    1.394   .     A
C231   O637    1.386   .     S
C232   H552    1.080   .     S
C232   C264    1.406   .     A
C233   C238    1.391   .     A
C233   O638    1.386   .     S
C234   C237    1.396   .     A
C234   O639    1.385   .     S
C235   O641    1.388   .     S
C235   C236    1.399   .     A
C236   O642    1.384   .     S
C237   O643    1.386   .     S
C238   O644    1.386   .     S
C239   O645    1.387   .     S
C240   O646    1.384   .     S
C241   O647    1.390   .     S
C242   O648    1.385   .     S
C243   H563    1.079   .     S
C243   C1481   1.385   1_545 S
C244   O649    1.385   .     S
C245   O650    1.388   .     S
C245   C261    1.403   .     A
C246   O652    1.386   .     S
C246   C260    1.392   .     A
C247   O653    1.384   .     S
C247   C259    1.404   .     A
C248   O654    1.386   .     S
C248   C258    1.393   .     A
C249   O655    1.386   .     S
C249   C257    1.390   .     A
C250   O656    1.386   .     S
C250   C256    1.391   .     A
C251   O657    1.385   .     S
C251   C255    1.395   .     A
C252   O658    1.386   .     S
C252   C253    1.393   .     A
C253   O659    1.382   .     S
C254   H574    1.078   .     S
C255   O660    1.385   .     S
C256   O661    1.386   .     S
C257   O663    1.387   .     S
C258   O664    1.384   .     S
C259   O665    1.386   .     S
C260   O666    1.386   .     S
C261   O667    1.385   .     S
C263   C720    1.419   .     S
H313   C783    1.112   .     S
H366   C1491   1.110   .     S
H511   C1552   1.111   .     S
H560   C1439   1.108   .     S
H561   C1439   1.111   .     S
O585   Zn672   1.945   .     S
O585   Zn669   1.951   .     S
O585   Zn2044  1.947   1_545 S
O585   Zn680   1.945   .     S
O586   Zn671   1.945   .     S
O587   Zn674   1.946   .     S
O588   Zn673   1.946   .     S
O589   Zn683   1.944   .     S
O590   Zn682   1.944   .     S
O591   Zn677   1.943   .     S
O592   Zn669   1.943   .     S
O593   Zn679   1.945   .     S
O594   Zn678   1.945   .     S
O595   Zn681   1.946   .     S
O596   Zn675   1.947   .     S
O596   Zn2039  1.945   1_545 S
O596   Zn677   1.951   .     S
O596   Zn681   1.945   .     S
O597   Zn680   1.946   .     S
O598   Zn672   1.944   .     S
O599   Zn671   1.944   .     S
O600   Zn674   1.932   .     S
O601   Zn673   1.932   .     S
O602   Zn676   1.941   .     S
O603   Zn675   1.941   .     S
O604   Zn670   1.931   .     S
O605   Zn684   1.931   .     S
O606   Zn671   1.932   .     S
O607   Zn670   1.951   .     S
O607   Zn1358  1.945   1_455 S
O607   Zn678   1.945   .     S
O607   Zn682   1.947   .     S
O608   Zn672   1.932   .     S
O609   Zn684   1.940   .     S
O610   Zn670   1.940   .     S
O611   Zn675   1.934   .     S
O612   Zn676   1.934   .     S
O613   Zn673   1.942   .     S
O614   Zn674   1.942   .     S
O615   Zn1363  1.944   .     S
O616   Zn678   1.944   .     S
O617   Zn2049  1.932   .     S
O618   Zn673   1.945   .     S
O618   Zn679   1.945   .     S
O618   Zn683   1.947   .     S
O618   Zn1368  1.951   1_455 S
O619   Zn680   1.932   .     S
O620   Zn683   1.941   .     S
O621   Zn1366  1.941   .     S
O622   Zn677   1.931   .     S
O623   Zn2037  1.931   .     S
O624   Zn1362  1.932   .     S
O625   Zn679   1.932   .     S
O626   Zn669   1.940   .     S
O627   Zn2045  1.940   .     S
O628   Zn682   1.934   .     S
O629   Zn676   1.944   .     S
O629   C1569   1.277   .     S
O630   Zn1367  1.934   .     S
O631   Zn2048  1.942   .     S
O632   Zn681   1.942   .     S
O640   Zn675   1.944   .     S
O640   C1570   1.279   1_545 S
O651   Zn670   1.943   .     S
O651   C887    1.280   1_455 S
O662   Zn684   1.943   .     S
O662   C888    1.280   .     S
O668   Zn672   1.945   .     S
Zn669  O1991   1.931   1_545 S
Zn671  O1964   1.945   .     S
Zn674  O1291   1.945   .     S
Zn676  O1953   1.947   .     S
Zn677  O1995   1.940   1_545 S
Zn678  O1308   1.932   1_455 S
Zn679  O1299   1.944   1_455 S
Zn680  O1999   1.942   1_545 S
Zn681  O1985   1.932   1_545 S
Zn682  O1305   1.941   1_455 S
Zn683  O1314   1.934   1_455 S
Zn684  O1302   1.951   .     S
C685   C763    1.391   .     A
C685   H949    1.078   .     S
C685   C688    1.404   .     A
C686   C698    1.400   .     A
C686   H950    1.080   .     S
C686   C2187   1.389   .     S
C687   C927    1.406   .     A
C687   C870    1.425   .     A
C687   C2090   1.425   1_545 S
C688   C871    1.425   .     A
C688   C34     1.421   1_655 S
C689   C720    1.421   .     A
C689   C873    1.420   .     A
C689   C796    1.399   .     A
C690   C872    1.405   .     A
C690   C874    1.421   .     A
C690   C2089   1.422   1_545 S
C691   C875    1.424   .     A
C691   C722    1.424   .     A
C691   C883    1.405   .     A
C692   C876    1.418   .     A
C692   C719    1.396   .     A
C692   C2091   1.420   .     S
C693   C877    1.422   .     A
C693   C730    1.404   .     A
C693   C724    1.419   .     A
C694   C878    1.423   .     A
C694   C741    1.406   .     A
C695   C879    1.425   .     A
C695   C752    1.405   .     A
C695   C726    1.425   .     A
C696   C880    1.426   .     A
C696   C723    1.421   .     A
C696   C938    1.404   .     A
C697   H961    1.080   .     S
C697   C830    1.386   .     A
C697   C699    1.404   .     A
C698   C881    1.420   .     A
C698   C2092   1.421   .     S
C699   C882    1.419   .     A
C699   C725    1.421   .     A
C700   C884    1.425   .     A
C700   C708    1.404   .     A
C701   C900    1.447   .     S
C701   C930    1.403   .     A
C701   C928    1.406   .     A
C702   C929    1.408   .     A
C702   C926    1.408   .     A
C702   C901    1.455   .     S
C703   C925    1.414   .     A
C703   C932    1.415   .     A
C703   C893    1.466   .     S
C704   C924    1.402   .     A
C704   C931    1.408   .     A
C704   C895    1.456   .     S
C705   C923    1.406   .     A
C705   C934    1.406   .     A
C705   C896    1.445   .     S
C706   C897    1.460   .     S
C706   C922    1.416   .     A
C706   C933    1.416   .     A
C707   C936    1.415   .     A
C707   C898    1.465   .     S
C707   C921    1.417   .     A
C708   H972    1.079   .     S
C709   C935    1.405   .     A
C709   C899    1.456   .     S
C709   C920    1.407   .     A
C710   C939    1.415   .     A
C710   C909    1.464   .     S
C710   C919    1.412   .     A
C711   C918    1.407   .     A
C711   C937    1.404   .     A
C711   C910    1.455   .     S
C712   C917    1.405   .     A
C712   C941    1.405   .     A
C712   C902    1.444   .     S
C713   C915    1.411   .     A
C713   C940    1.415   .     A
C713   C903    1.458   .     S
C714   C904    1.465   .     S
C714   C943    1.411   .     A
C714   C914    1.415   .     A
C715   C913    1.408   .     A
C715   C906    1.456   .     S
C715   C942    1.403   .     A
C716   C912    1.406   .     A
C716   C907    1.451   .     S
C716   C945    1.405   .     A
C717   C911    1.409   .     A
C717   C908    1.459   .     S
C717   C944    1.415   .     A
C718   C720    1.398   .     A
C718   C946    1.421   .     A
C719   H983    1.081   .     S
C719   C2176   1.388   .     S
C721   C948    1.422   .     A
C721   C722    1.402   .     A
C721   C2058   1.422   .     S
C722   C2055   1.425   .     S
C723   C2060   1.420   1_545 S
C723   C724    1.399   1_556 S
C724   C2066   1.421   1_545 S
C724   C723    1.399   1_554 S
C725   C10     1.422   1_655 S
C725   C726    1.401   1_556 S
C726   C16     1.423   1_655 S
C726   C725    1.401   1_554 S
C727   C852    1.534   .     S
C727   C728    1.533   .     S
C727   H1072   1.110   .     S
C727   H1061   1.104   .     S
C728   H1038   1.111   .     S
C728   H1049   1.111   .     S
C728   H1027   1.108   .     S
C729   C731    1.528   .     S
C729   H1116   1.109   .     S
C729   H1127   1.109   .     S
C729   C863    1.528   .     S
C730   H994    1.079   .     S
C730   C819    1.392   .     A
C731   H1094   1.110   .     S
C731   H1105   1.109   .     S
C731   H1083   1.108   .     S
C732   C869    1.527   .     S
C732   H1172   1.109   .     S
C732   C733    1.527   .     S
C732   H1183   1.109   .     S
C733   H1149   1.109   .     S
C733   H1138   1.109   .     S
C733   H1160   1.110   .     S
C734   H1199   1.109   .     S
C734   C870    1.533   .     S
C734   C735    1.529   .     S
C734   H1198   1.102   .     S
C735   H1194   1.108   .     S
C735   H1196   1.110   .     S
C735   H1197   1.108   .     S
C736   C871    1.535   .     S
C736   C737    1.531   .     S
C736   H1204   1.102   .     S
C736   H1205   1.109   .     S
C737   H1201   1.111   .     S
C737   H1200   1.108   .     S
C737   H1202   1.111   .     S
C738   C873    1.530   .     S
C738   H1209   1.104   .     S
C738   C739    1.532   .     S
C738   H1210   1.108   .     S
C739   H1208   1.111   .     S
C739   H1206   1.108   .     S
C739   H1207   1.111   .     S
C740   C874    1.528   .     S
C740   C742    1.527   .     S
C740   H1215   1.109   .     S
C740   H1216   1.108   .     S
C741   H1005   1.080   .     S
C742   H1211   1.108   .     S
C742   H1212   1.110   .     S
C742   H1213   1.110   .     S
C743   C875    1.535   .     S
C743   C744    1.530   .     S
C743   H1220   1.102   .     S
C743   H1221   1.108   .     S
C744   H1217   1.109   .     S
C744   H1219   1.111   .     S
C744   H1218   1.111   .     S
C745   H1226   1.104   .     S
C745   H1227   1.110   .     S
C745   C876    1.534   .     S
C745   C2114   1.533   .     S
C746   H1223   1.111   .     S
C746   H1224   1.111   .     S
C746   H1222   1.108   .     S
C746   C2113   1.533   1_545 S
C747   H1232   1.109   .     S
C747   H1231   1.110   .     S
C747   C748    1.527   .     S
C747   C877    1.528   .     S
C748   H1228   1.108   .     S
C748   H1230   1.109   .     S
C748   H1229   1.109   .     S
C749   H1237   1.109   .     S
C749   C878    1.529   .     S
C749   H1238   1.108   .     S
C749   C750    1.529   .     S
C750   H1235   1.109   .     S
C750   H1234   1.110   .     S
C750   H1233   1.108   .     S
C751   H1242   1.102   .     S
C751   C879    1.532   .     S
C751   C753    1.529   .     S
C751   H1243   1.109   .     S
C752   C841    1.385   .     A
C752   H1016   1.079   .     S
C753   H1241   1.107   .     S
C753   H1240   1.110   .     S
C753   H1239   1.108   .     S
C754   C880    1.534   .     S
C754   C755    1.531   .     S
C754   H1248   1.102   .     S
C754   H1249   1.109   .     S
C755   H1246   1.111   .     S
C755   H2612   1.108   1_545 S
C755   H2613   1.111   1_545 S
C756   C757    1.532   .     S
C756   C881    1.530   .     S
C756   H1254   1.107   .     S
C756   H1253   1.104   .     S
C757   H1250   1.108   .     S
C757   H1252   1.111   .     S
C757   H1251   1.111   .     S
C758   C882    1.527   .     S
C758   H1259   1.110   .     S
C758   C759    1.526   .     S
C758   H1260   1.109   .     S
C759   H1256   1.110   .     S
C759   H1257   1.108   .     S
C759   H1255   1.109   .     S
C760   H1265   1.109   .     S
C760   C761    1.531   .     S
C760   C884    1.535   .     S
C760   H1264   1.102   .     S
C761   H1262   1.111   .     S
C761   H1261   1.108   .     S
C761   H1263   1.111   .     S
C762   C764    1.528   .     S
C762   H1266   1.111   .     S
C762   H1267   1.117   .     S
C762   O1317   1.416   .     S
C763   C887    1.455   .     S
C763   C210    1.388   1_655 S
C764   H951    1.111   .     S
C764   H1268   1.112   .     S
C764   C765    1.525   .     S
C765   H952    1.111   .     S
C765   H954    1.107   .     S
C765   H953    1.110   .     S
C766   H955    1.115   .     S
C766   C767    1.528   .     S
C766   H956    1.114   .     S
C766   O1318   1.412   .     S
C767   C768    1.526   .     S
C767   H957    1.111   .     S
C767   H958    1.112   .     S
C768   H960    1.111   .     S
C768   H962    1.111   .     S
C768   H959    1.111   .     S
C769   H963    1.115   .     S
C769   O1319   1.412   .     S
C769   H964    1.114   .     S
C770   H966    1.111   .     S
C770   C771    1.525   .     S
C770   H965    1.109   .     S
C770   C85     1.531   1_655 S
C771   H969    1.109   .     S
C771   H968    1.111   .     S
C771   H967    1.111   .     S
C772   O1320   1.422   .     S
C772   H971    1.118   .     S
C772   C773    1.537   .     S
C772   H970    1.109   .     S
C773   C775    1.525   .     S
C773   H973    1.110   .     S
C773   H974    1.108   .     S
C774   C888    1.457   .     S
C774   C796    1.389   .     A
C775   H975    1.108   .     S
C775   H977    1.110   .     S
C775   H976    1.111   .     S
C776   H979    1.117   .     S
C776   O1321   1.419   .     S
C776   H978    1.112   .     S
C776   C777    1.529   .     S
C777   H981    1.111   .     S
C777   H980    1.112   .     S
C777   C778    1.526   .     S
C778   H984    1.110   .     S
C778   H982    1.111   .     S
C778   H985    1.109   .     S
C779   O1322   1.415   .     S
C779   H987    1.115   .     S
C779   C780    1.532   .     S
C779   H986    1.111   .     S
C780   H989    1.111   .     S
C780   H988    1.112   .     S
C780   C781    1.526   .     S
C781   H990    1.109   .     S
C781   H992    1.111   .     S
C781   H991    1.110   .     S
C782   H995    1.114   .     S
C782   H993    1.115   .     S
C782   O1323   1.411   .     S
C782   C99     1.531   1_655 S
C783   H996    1.111   .     S
C783   C784    1.525   .     S
C784   H999    1.111   .     S
C784   H998    1.111   .     S
C784   H1000   1.109   .     S
C785   C916    1.387   .     A
C785   C2240   1.386   .     S
C785   C2253   1.453   .     S
C786   H1001   1.112   .     S
C786   O1325   1.418   .     S
C786   C787    1.530   .     S
C786   H1002   1.116   .     S
C787   H1004   1.111   .     S
C787   H1003   1.111   .     S
C787   C788    1.527   .     S
C788   H1007   1.110   .     S
C788   H1006   1.111   .     S
C788   H1008   1.109   .     S
C789   O1326   1.412   .     S
C789   H1010   1.114   .     S
C789   H1009   1.115   .     S
C789   C2158   1.527   1_545 S
C790   C791    1.525   .     S
C790   H1012   1.110   .     S
C790   H1011   1.110   .     S
C790   C2157   1.527   .     S
C791   H1013   1.110   .     S
C791   H1014   1.110   .     S
C791   H1015   1.108   .     S
C792   C793    1.534   .     S
C792   H1017   1.111   .     S
C792   O1327   1.419   .     S
C792   H1018   1.118   .     S
C793   H1019   1.111   .     S
C793   H1020   1.109   .     S
C793   C794    1.523   .     S
C794   H1022   1.110   .     S
C794   H1023   1.108   .     S
C794   H1021   1.109   .     S
C795   H1025   1.117   .     S
C795   H1024   1.110   .     S
C795   C798    1.534   .     S
C795   O1328   1.419   .     S
C796   H1060   1.081   .     S
C797   C886    1.452   .     S
C797   C883    1.386   .     A
C797   C2295   1.385   .     S
C798   C799    1.523   .     S
C798   H1026   1.112   .     S
C798   H1028   1.106   .     S
C799   H1030   1.110   .     S
C799   H1031   1.108   .     S
C799   H1029   1.111   .     S
C800   H1032   1.111   .     S
C800   C801    1.531   .     S
C800   H1033   1.116   .     S
C800   O1329   1.417   .     S
C801   C802    1.526   .     S
C801   H1035   1.111   .     S
C801   H1034   1.110   .     S
C802   H1039   1.111   .     S
C802   H1037   1.110   .     S
C802   H1036   1.110   .     S
C803   H1040   1.115   .     S
C803   H1041   1.114   .     S
C803   O1330   1.411   .     S
C803   C2172   1.528   .     S
C804   H1043   1.112   .     S
C804   H1042   1.112   .     S
C804   C805    1.526   .     S
C804   C2171   1.528   1_545 S
C805   H1046   1.110   .     S
C805   H1044   1.110   .     S
C805   H1045   1.111   .     S
C806   H1047   1.112   .     S
C806   H1048   1.117   .     S
C806   O1331   1.419   .     S
C806   C807    1.534   .     S
C807   C809    1.526   .     S
C807   H1051   1.109   .     S
C807   H2418   1.110   1_545 S
C808   C938    1.392   .     A
C808   C891    1.456   .     S
C808   C2087   1.388   1_545 S
C809   H1053   1.110   .     S
C809   H1054   1.108   .     S
C809   H1052   1.111   .     S
C810   C811    1.530   .     S
C810   H1055   1.114   .     S
C810   O1332   1.412   .     S
C810   H1056   1.113   .     S
C811   H1057   1.111   .     S
C811   H1058   1.112   .     S
C811   C812    1.524   .     S
C812   H1063   1.110   .     S
C812   H1059   1.111   .     S
C812   H1062   1.111   .     S
C813   H1064   1.115   .     S
C813   C814    1.529   .     S
C813   H1065   1.115   .     S
C813   O1333   1.412   .     S
C814   H1067   1.111   .     S
C814   C815    1.526   .     S
C814   H1066   1.110   .     S
C815   H1068   1.111   .     S
C815   H1070   1.111   .     S
C815   H1069   1.111   .     S
C816   H1071   1.111   .     S
C816   H1073   1.116   .     S
C816   O1334   1.417   .     S
C816   C817    1.530   .     S
C817   H1074   1.112   .     S
C817   H1075   1.110   .     S
C817   C818    1.525   .     S
C818   H1077   1.110   .     S
C818   H1076   1.111   .     S
C818   H1078   1.107   .     S
C819   C892    1.458   .     S
C819   C2054   1.389   1_545 S
C820   H1079   1.111   .     S
C820   C821    1.532   .     S
C820   O1336   1.415   .     S
C820   H1080   1.116   .     S
C821   H1081   1.112   .     S
C821   H1082   1.111   .     S
C821   C822    1.526   .     S
C822   H1085   1.110   .     S
C822   H1086   1.111   .     S
C822   H1084   1.110   .     S
C823   H1087   1.115   .     S
C823   O1337   1.411   .     S
C823   C824    1.528   .     S
C823   H1088   1.114   .     S
C824   C825    1.524   .     S
C824   H1090   1.111   .     S
C824   H1089   1.111   .     S
C825   H1091   1.110   .     S
C825   H1093   1.108   .     S
C825   H1092   1.111   .     S
C826   H1095   1.110   .     S
C826   O1338   1.421   .     S
C826   C827    1.537   .     S
C826   H1096   1.117   .     S
C827   C828    1.525   .     S
C827   H1098   1.109   .     S
C827   H1097   1.111   .     S
C828   H1101   1.110   .     S
C828   H1099   1.108   .     S
C828   H1100   1.111   .     S
C829   C831    1.534   .     S
C829   O1339   1.420   .     S
C829   H1102   1.109   .     S
C829   H1103   1.117   .     S
C830   C57     1.389   1_655 S
C830   C205    1.454   1_655 S
C831   H1106   1.108   .     S
C831   C832    1.525   .     S
C831   H1104   1.112   .     S
C832   H1108   1.110   .     S
C832   H1107   1.111   .     S
C832   H1109   1.108   .     S
C833   H1110   1.111   .     S
C833   C834    1.532   .     S
C833   H1111   1.115   .     S
C833   O1340   1.415   .     S
C834   H1113   1.111   .     S
C834   H1112   1.112   .     S
C834   C835    1.526   .     S
C835   H1115   1.110   .     S
C835   H1117   1.111   .     S
C835   H1114   1.110   .     S
C836   H1119   1.114   .     S
C836   C837    1.530   .     S
C836   H1118   1.115   .     S
C836   O1341   1.412   .     S
C837   H1121   1.112   .     S
C837   H1120   1.111   .     S
C837   C838    1.526   .     S
C838   H1123   1.111   .     S
C838   H1124   1.110   .     S
C838   H1122   1.110   .     S
C839   O1342   1.421   .     S
C839   C840    1.536   .     S
C839   H1126   1.118   .     S
C839   H1125   1.111   .     S
C840   C842    1.525   .     S
C840   H1129   1.108   .     S
C840   H1128   1.110   .     S
C841   C24     1.387   1_655 S
C841   C206    1.454   1_655 S
C842   H1131   1.110   .     S
C842   H1132   1.110   .     S
C842   H1130   1.109   .     S
C843   H1133   1.115   .     S
C843   H1134   1.115   .     S
C843   C844    1.527   .     S
C843   O1343   1.411   .     S
C844   H1135   1.111   .     S
C844   H1136   1.111   .     S
C844   C845    1.525   .     S
C845   H1140   1.109   .     S
C845   H1137   1.110   .     S
C845   H1139   1.110   .     S
C846   O1344   1.419   .     S
C846   H1141   1.109   .     S
C846   C847    1.534   .     S
C846   H1142   1.118   .     S
C847   H1143   1.111   .     S
C847   C848    1.524   .     S
C847   H1144   1.110   .     S
C848   H1146   1.110   .     S
C848   H1147   1.110   .     S
C848   H1145   1.108   .     S
C849   O1345   1.419   .     S
C849   H1150   1.117   .     S
C849   C850    1.534   .     S
C849   H1148   1.110   .     S
C850   H1151   1.112   .     S
C850   H1152   1.107   .     S
C850   C851    1.525   .     S
C851   H1153   1.111   .     S
C851   H1154   1.111   .     S
C851   H1155   1.108   .     S
C852   C946    1.419   .     A
C852   C873    1.414   .     A
C853   H1157   1.115   .     S
C853   O1347   1.415   .     S
C853   C854    1.532   .     S
C853   H1156   1.111   .     S
C854   H1159   1.111   .     S
C854   C855    1.526   .     S
C854   H1158   1.112   .     S
C855   H1162   1.110   .     S
C855   H1163   1.111   .     S
C855   H1161   1.110   .     S
C856   H1164   1.116   .     S
C856   H1165   1.114   .     S
C856   O1348   1.411   .     S
C856   C857    1.528   .     S
C857   H1166   1.111   .     S
C857   H1167   1.111   .     S
C857   C858    1.525   .     S
C858   H1169   1.111   .     S
C858   H1170   1.110   .     S
C858   H1168   1.110   .     S
C859   C860    1.529   .     S
C859   H1174   1.114   .     S
C859   O1349   1.414   .     S
C859   H1173   1.112   .     S
C860   C861    1.524   .     S
C860   H1175   1.112   .     S
C860   H1176   1.112   .     S
C861   H1178   1.111   .     S
C861   H1179   1.108   .     S
C861   H1177   1.111   .     S
C862   O1350   1.421   .     S
C862   H1180   1.111   .     S
C862   C864    1.537   .     S
C862   H1181   1.117   .     S
C863   C947    1.423   .     A
C863   C871    1.422   .     A
C864   H1182   1.112   .     S
C864   H1184   1.109   .     S
C864   C865    1.524   .     S
C865   H1187   1.109   .     S
C865   H1185   1.111   .     S
C865   H1186   1.111   .     S
C866   C867    1.528   .     S
C866   H1189   1.114   .     S
C866   O1351   1.411   .     S
C866   H1188   1.114   .     S
C867   H1191   1.111   .     S
C867   H1190   1.111   .     S
C867   C868    1.525   .     S
C868   H1192   1.111   .     S
C868   H1193   1.110   .     S
C868   H2563   1.111   1_545 S
C869   C875    1.421   .     A
C869   C948    1.422   .     A
C870   C874    1.421   .     A
C872   H1171   1.080   .     S
C872   C2153   1.386   1_545 S
C876   C881    1.414   1_556 S
C877   C880    1.422   1_554 S
C878   C884    1.422   1_556 S
C879   C882    1.420   1_554 S
C880   C877    1.422   1_556 S
C881   C876    1.414   1_554 S
C882   C879    1.420   1_556 S
C883   H1203   1.079   .     S
C884   C878    1.422   1_554 S
C885   O1352   1.278   .     A
C885   C2153   1.453   1_545 S
C885   O2681   1.277   1_545 S
C886   O1270   1.276   .     A
C886   O2692   1.279   .     S
C887   O1271   1.280   .     A
C887   O651    1.280   1_655 S
C888   O1272   1.281   .     A
C889   O1277   1.281   .     A
C889   O1273   1.275   .     A
C890   O1274   1.280   .     A
C890   O1278   1.276   .     S
C891   O1275   1.280   .     A
C891   O1279   1.281   .     A
C892   O1276   1.281   .     S
C892   O1281   1.281   .     S
C893   O1310   1.284   .     A
C893   O1282   1.281   .     A
C894   C946    1.396   .     A
C894   H1214   1.081   .     S
C895   O1283   1.277   .     A
C895   O1311   1.282   .     A
C896   O1308   1.277   .     A
C896   O1284   1.276   .     A
C897   O1285   1.281   .     A
C897   O1309   1.281   .     A
C898   O1315   1.281   .     A
C898   O1286   1.281   .     A
C899   O1316   1.278   .     A
C899   O1287   1.279   .     A
C900   O1288   1.281   .     A
C900   O1312   1.277   .     A
C901   O1314   1.283   .     A
C901   O1289   1.281   .     A
C902   O1301   1.276   .     A
C902   O1290   1.277   .     A
C903   O1303   1.282   .     A
C903   O1292   1.279   .     A
C904   O1293   1.285   .     A
C904   O1299   1.279   .     A
C905   C947    1.403   .     A
C905   H1225   1.079   .     S
C905   C90     1.392   1_655 S
C906   O1300   1.277   .     A
C906   O1294   1.281   .     A
C907   O1295   1.281   .     A
C907   O1306   1.280   .     A
C908   O1307   1.287   .     A
C908   O1296   1.279   .     A
C909   O1297   1.279   .     A
C909   O1304   1.282   .     A
C910   O1305   1.276   .     A
C910   O1298   1.280   .     A
C911   O1317   1.386   .     S
C911   C928    1.399   .     A
C912   O1318   1.384   .     S
C912   C926    1.399   .     A
C913   C925    1.404   .     A
C913   O1319   1.385   .     S
C914   O1320   1.386   .     S
C914   C924    1.395   .     A
C915   C923    1.394   .     A
C915   O1321   1.386   .     S
C916   H1236   1.080   .     S
C916   C948    1.406   .     A
C917   C922    1.391   .     A
C917   O1322   1.386   .     S
C918   C921    1.396   .     A
C918   O1323   1.385   .     S
C919   O1325   1.388   .     S
C919   C920    1.399   .     A
C920   O1326   1.384   .     S
C921   O1327   1.386   .     S
C922   O1328   1.386   .     S
C923   O1329   1.387   .     S
C924   O1330   1.384   .     S
C925   O1331   1.390   .     S
C926   O1332   1.385   .     S
C927   H1247   1.079   .     S
C927   C2165   1.385   1_545 S
C928   O1333   1.385   .     S
C929   O1334   1.388   .     S
C929   C945    1.403   .     A
C930   O1336   1.386   .     S
C930   C944    1.392   .     A
C931   O1337   1.384   .     S
C931   C943    1.404   .     A
C932   O1338   1.386   .     S
C932   C942    1.393   .     A
C933   O1339   1.386   .     S
C933   C941    1.390   .     A
C934   O1340   1.386   .     S
C934   C940    1.391   .     A
C935   O1341   1.385   .     S
C935   C939    1.395   .     A
C936   O1342   1.386   .     S
C936   C937    1.393   .     A
C937   O1343   1.382   .     S
C938   H1258   1.078   .     S
C939   O1344   1.385   .     S
C940   O1345   1.386   .     S
C941   O1347   1.387   .     S
C942   O1348   1.384   .     S
C943   O1349   1.386   .     S
C944   O1350   1.386   .     S
C945   O1351   1.385   .     S
C947   C36     1.419   1_655 S
H997   C99     1.112   1_655 S
H1050  C2175   1.110   .     S
H1195  C2236   1.111   .     S
H1244  C2123   1.108   .     S
H1245  C2123   1.111   .     S
O1269  Zn1356  1.945   .     S
O1269  Zn1353  1.951   .     S
O1269  Zn2728  1.947   1_545 S
O1269  Zn1364  1.945   .     S
O1270  Zn1355  1.945   .     S
O1271  Zn1358  1.946   .     S
O1272  Zn1357  1.946   .     S
O1273  Zn1367  1.944   .     S
O1274  Zn1366  1.944   .     S
O1275  Zn1361  1.943   .     S
O1276  Zn1353  1.943   .     S
O1277  Zn1363  1.945   .     S
O1278  Zn1362  1.945   .     S
O1279  Zn1365  1.946   .     S
O1280  Zn1359  1.947   .     S
O1280  Zn2723  1.945   1_545 S
O1280  Zn1361  1.951   .     S
O1280  Zn1365  1.945   .     S
O1281  Zn1364  1.946   .     S
O1282  Zn1356  1.944   .     S
O1283  Zn1355  1.944   .     S
O1284  Zn1358  1.932   .     S
O1285  Zn1357  1.932   .     S
O1286  Zn1360  1.941   .     S
O1287  Zn1359  1.941   .     S
O1288  Zn1354  1.931   .     S
O1289  Zn1368  1.931   .     S
O1290  Zn1355  1.932   .     S
O1291  Zn1354  1.951   .     S
O1291  Zn1362  1.945   .     S
O1291  Zn1366  1.947   .     S
O1292  Zn1356  1.932   .     S
O1293  Zn1368  1.940   .     S
O1294  Zn1354  1.940   .     S
O1295  Zn1359  1.934   .     S
O1296  Zn1360  1.934   .     S
O1297  Zn1357  1.942   .     S
O1298  Zn1358  1.942   .     S
O1299  Zn679   1.944   1_655 S
O1300  Zn1362  1.944   .     S
O1301  Zn2733  1.932   .     S
O1302  Zn1357  1.945   .     S
O1302  Zn1363  1.945   .     S
O1302  Zn1367  1.947   .     S
O1303  Zn1364  1.932   .     S
O1304  Zn1367  1.941   .     S
O1305  Zn682   1.941   1_655 S
O1306  Zn1361  1.931   .     S
O1307  Zn2721  1.931   .     S
O1308  Zn678   1.932   1_655 S
O1309  Zn1363  1.932   .     S
O1310  Zn1353  1.940   .     S
O1311  Zn2729  1.940   .     S
O1312  Zn1366  1.934   .     S
O1313  Zn1360  1.944   .     S
O1313  C2253   1.277   .     S
O1314  Zn683   1.934   1_655 S
O1315  Zn2732  1.942   .     S
O1316  Zn1365  1.942   .     S
O1324  Zn1359  1.944   .     S
O1324  C2254   1.279   1_545 S
O1335  Zn1354  1.943   .     S
O1346  Zn1368  1.943   .     S
O1346  C204    1.280   1_655 S
O1352  Zn1356  1.945   .     S
Zn1353 O2675   1.931   1_545 S
Zn1355 O2648   1.945   .     S
Zn1358 O607    1.945   1_655 S
Zn1360 O2637   1.947   .     S
Zn1361 O2679   1.940   1_545 S
Zn1364 O2683   1.942   1_545 S
Zn1365 O2669   1.932   1_545 S
Zn1368 O618    1.951   1_655 S
C1369  C1447   1.391   .     A
C1369  H1633   1.078   .     S
C1369  C1372   1.404   .     A
C1370  C1382   1.400   .     A
C1370  H1634   1.080   .     S
C1370  C135    1.389   1_565 S
C1371  C1611   1.406   .     A
C1371  C1554   1.425   .     A
C1372  C1555   1.425   .     A
C1372  C2086   1.421   .     S
C1373  C1404   1.421   .     A
C1373  C1557   1.420   .     A
C1373  C1480   1.399   .     A
C1374  C1556   1.405   .     A
C1374  C1558   1.421   .     A
C1375  C1559   1.424   .     A
C1375  C1406   1.424   .     A
C1375  C1567   1.405   .     A
C1376  C1560   1.418   .     A
C1376  C1403   1.396   .     A
C1376  C39     1.420   1_565 S
C1377  C1561   1.422   .     A
C1377  C1414   1.404   .     A
C1377  C1408   1.419   .     A
C1378  C1562   1.423   .     A
C1378  C1425   1.406   .     A
C1378  C2093   1.422   1_455 S
C1379  C1563   1.425   .     A
C1379  C1436   1.405   .     A
C1379  C1410   1.425   .     A
C1380  C1564   1.426   .     A
C1380  C1407   1.421   .     A
C1380  C1622   1.404   .     A
C1381  H1645   1.080   .     S
C1381  C1514   1.386   .     A
C1381  C1383   1.404   .     A
C1382  C1565   1.420   .     A
C1382  C40     1.421   1_565 S
C1383  C1566   1.419   .     A
C1383  C1409   1.421   .     A
C1384  C1568   1.425   .     A
C1384  C1392   1.404   .     A
C1384  C2094   1.423   1_455 S
C1385  C1584   1.447   .     S
C1385  C1614   1.403   .     A
C1385  C1612   1.406   .     A
C1386  C1613   1.408   .     A
C1386  C1610   1.408   .     A
C1386  C1585   1.455   .     S
C1387  C1609   1.414   .     A
C1387  C1616   1.415   .     A
C1387  C1577   1.466   .     S
C1388  C1608   1.402   .     A
C1388  C1615   1.408   .     A
C1388  C1579   1.456   .     S
C1389  C1607   1.406   .     A
C1389  C1618   1.406   .     A
C1389  C1580   1.445   .     S
C1390  C1581   1.460   .     S
C1390  C1606   1.416   .     A
C1390  C1617   1.416   .     A
C1391  C1620   1.415   .     A
C1391  C1582   1.465   .     S
C1391  C1605   1.417   .     A
C1392  H1656   1.079   .     S
C1392  C2209   1.387   1_455 S
C1393  C1619   1.405   .     A
C1393  C1583   1.456   .     S
C1393  C1604   1.407   .     A
C1394  C1623   1.415   .     A
C1394  C1593   1.464   .     S
C1394  C1603   1.412   .     A
C1395  C1602   1.407   .     A
C1395  C1621   1.404   .     A
C1395  C1594   1.455   .     S
C1396  C1601   1.405   .     A
C1396  C1625   1.405   .     A
C1396  C1586   1.444   .     S
C1397  C1599   1.411   .     A
C1397  C1624   1.415   .     A
C1397  C1587   1.458   .     S
C1398  C1588   1.465   .     S
C1398  C1627   1.411   .     A
C1398  C1598   1.415   .     A
C1399  C1597   1.408   .     A
C1399  C1590   1.456   .     S
C1399  C1626   1.403   .     A
C1400  C1596   1.406   .     A
C1400  C1591   1.451   .     S
C1400  C1629   1.405   .     A
C1401  C1595   1.409   .     A
C1401  C1592   1.459   .     S
C1401  C1628   1.415   .     A
C1402  C1404   1.398   .     A
C1402  C1630   1.421   .     A
C1402  C2056   1.421   1_455 S
C1403  H1667   1.081   .     S
C1403  C124    1.388   1_565 S
C1404  C2315   1.419   1_455 S
C1405  C1632   1.422   .     A
C1405  C1406   1.402   .     A
C1405  C6      1.422   1_565 S
C1406  C3      1.425   1_565 S
C1407  C1408   1.399   1_556 S
C1408  C1407   1.399   1_554 S
C1409  C2062   1.422   .     S
C1409  C1410   1.401   1_556 S
C1410  C2068   1.423   .     S
C1410  C1409   1.401   1_554 S
C1411  C1536   1.534   .     S
C1411  C1412   1.533   .     S
C1411  H1756   1.110   .     S
C1411  H1745   1.104   .     S
C1412  H1722   1.111   .     S
C1412  H1733   1.111   .     S
C1412  H1711   1.108   .     S
C1413  C1415   1.528   .     S
C1413  H1800   1.109   .     S
C1413  H1811   1.109   .     S
C1413  C1547   1.528   .     S
C1414  H1678   1.079   .     S
C1414  C1503   1.392   .     A
C1415  H1778   1.110   .     S
C1415  H1789   1.109   .     S
C1415  H1767   1.108   .     S
C1416  C1553   1.527   .     S
C1416  H1856   1.109   .     S
C1416  C1417   1.527   .     S
C1416  H1867   1.109   .     S
C1417  H1833   1.109   .     S
C1417  H1822   1.109   .     S
C1417  H1844   1.110   .     S
C1418  H1883   1.109   .     S
C1418  C1554   1.533   .     S
C1418  C1419   1.529   .     S
C1418  H1882   1.102   .     S
C1419  H1878   1.108   .     S
C1419  H1880   1.110   .     S
C1419  H1881   1.108   .     S
C1420  C1555   1.535   .     S
C1420  C1421   1.531   .     S
C1420  H1888   1.102   .     S
C1420  H1889   1.109   .     S
C1421  H1885   1.111   .     S
C1421  H1884   1.108   .     S
C1421  H1886   1.111   .     S
C1422  C1557   1.530   .     S
C1422  H1893   1.104   .     S
C1422  C1423   1.532   .     S
C1422  H1894   1.108   .     S
C1423  H1892   1.111   .     S
C1423  H1890   1.108   .     S
C1423  H1891   1.111   .     S
C1424  C1558   1.528   .     S
C1424  C1426   1.527   .     S
C1424  H1899   1.109   .     S
C1424  H1900   1.108   .     S
C1425  H1689   1.080   .     S
C1425  C2198   1.389   1_455 S
C1426  H1895   1.108   .     S
C1426  H1896   1.110   .     S
C1426  H1897   1.110   .     S
C1427  C1559   1.535   .     S
C1427  C1428   1.530   .     S
C1427  H1904   1.102   .     S
C1427  H1905   1.108   .     S
C1428  H1901   1.109   .     S
C1428  H1903   1.111   .     S
C1428  H1902   1.111   .     S
C1429  H1910   1.104   .     S
C1429  H1911   1.110   .     S
C1429  C1560   1.534   .     S
C1429  C62     1.533   1_565 S
C1430  H1907   1.111   .     S
C1430  H1908   1.111   .     S
C1430  H1906   1.108   .     S
C1431  H1916   1.109   .     S
C1431  H1915   1.110   .     S
C1431  C1432   1.527   .     S
C1431  C1561   1.528   .     S
C1432  H1912   1.108   .     S
C1432  H1914   1.109   .     S
C1432  H1913   1.109   .     S
C1433  H1921   1.109   .     S
C1433  C1562   1.529   .     S
C1433  H1922   1.108   .     S
C1433  C1434   1.529   .     S
C1434  H1919   1.109   .     S
C1434  H1918   1.110   .     S
C1434  H1917   1.108   .     S
C1435  H1926   1.102   .     S
C1435  C1563   1.532   .     S
C1435  C1437   1.529   .     S
C1435  H1927   1.109   .     S
C1436  C1525   1.385   .     A
C1436  H1700   1.079   .     S
C1437  H1925   1.107   .     S
C1437  H1924   1.110   .     S
C1437  H1923   1.108   .     S
C1438  C1564   1.534   .     S
C1438  C1439   1.531   .     S
C1438  H1932   1.102   .     S
C1438  H1933   1.109   .     S
C1439  H1930   1.111   .     S
C1440  C1441   1.532   .     S
C1440  C1565   1.530   .     S
C1440  H1938   1.107   .     S
C1440  H1937   1.104   .     S
C1441  H1934   1.108   .     S
C1441  H1936   1.111   .     S
C1441  H1935   1.111   .     S
C1442  C1566   1.527   .     S
C1442  H1943   1.110   .     S
C1442  C1443   1.526   .     S
C1442  H1944   1.109   .     S
C1443  H1940   1.110   .     S
C1443  H1941   1.108   .     S
C1443  H1939   1.109   .     S
C1444  H1949   1.109   .     S
C1444  C1445   1.531   .     S
C1444  C1568   1.535   .     S
C1444  H1948   1.102   .     S
C1445  H1946   1.111   .     S
C1445  H1945   1.108   .     S
C1445  H1947   1.111   .     S
C1446  C1448   1.528   .     S
C1446  H1950   1.111   .     S
C1446  H1951   1.117   .     S
C1446  O2001   1.416   .     S
C1447  C1571   1.455   .     S
C1447  C2262   1.388   .     S
C1448  H1635   1.111   .     S
C1448  H1952   1.112   .     S
C1448  C1449   1.525   .     S
C1449  H1636   1.111   .     S
C1449  H1638   1.107   .     S
C1449  H1637   1.110   .     S
C1450  H1639   1.115   .     S
C1450  C1451   1.528   .     S
C1450  H1640   1.114   .     S
C1450  O2002   1.412   .     S
C1451  C1452   1.526   .     S
C1451  H1641   1.111   .     S
C1451  H1642   1.112   .     S
C1452  H1644   1.111   .     S
C1452  H1646   1.111   .     S
C1452  H1643   1.111   .     S
C1453  H1647   1.115   .     S
C1453  O2003   1.412   .     S
C1453  H1648   1.114   .     S
C1453  C2138   1.531   1_455 S
C1454  H1650   1.111   .     S
C1454  C1455   1.525   .     S
C1454  H1649   1.109   .     S
C1454  C2137   1.531   .     S
C1455  H1653   1.109   .     S
C1455  H1652   1.111   .     S
C1455  H1651   1.111   .     S
C1456  O2004   1.422   .     S
C1456  H1655   1.118   .     S
C1456  C1457   1.537   .     S
C1456  H1654   1.109   .     S
C1457  C1459   1.525   .     S
C1457  H1657   1.110   .     S
C1457  H1658   1.108   .     S
C1458  C1572   1.457   .     S
C1458  C1480   1.389   .     A
C1458  C2273   1.392   1_455 S
C1459  H1659   1.108   .     S
C1459  H1661   1.110   .     S
C1459  H1660   1.111   .     S
C1460  H1663   1.117   .     S
C1460  O2005   1.419   .     S
C1460  H1662   1.112   .     S
C1460  C1461   1.529   .     S
C1461  H1665   1.111   .     S
C1461  H1664   1.112   .     S
C1461  C1462   1.526   .     S
C1462  H1668   1.110   .     S
C1462  H1666   1.111   .     S
C1462  H1669   1.109   .     S
C1463  O2006   1.415   .     S
C1463  H1671   1.115   .     S
C1463  C1464   1.532   .     S
C1463  H1670   1.111   .     S
C1464  H1673   1.111   .     S
C1464  H1672   1.112   .     S
C1464  C1465   1.526   .     S
C1465  H1674   1.109   .     S
C1465  H1676   1.111   .     S
C1465  H1675   1.110   .     S
C1466  H1679   1.114   .     S
C1466  H1677   1.115   .     S
C1466  O2007   1.411   .     S
C1466  C2151   1.531   .     S
C1467  H1680   1.111   .     S
C1467  C1468   1.525   .     S
C1467  C2150   1.531   1_455 S
C1467  H2365   1.112   1_455 S
C1468  H1683   1.111   .     S
C1468  H1682   1.111   .     S
C1468  H1684   1.109   .     S
C1469  C1600   1.387   .     A
C1469  C188    1.386   1_565 S
C1469  C201    1.453   1_565 S
C1470  H1685   1.112   .     S
C1470  O2009   1.418   .     S
C1470  C1471   1.530   .     S
C1470  H1686   1.116   .     S
C1471  H1688   1.111   .     S
C1471  H1687   1.111   .     S
C1471  C1472   1.527   .     S
C1472  H1691   1.110   .     S
C1472  H1690   1.111   .     S
C1472  H1692   1.109   .     S
C1473  O2010   1.412   .     S
C1473  H1694   1.114   .     S
C1473  H1693   1.115   .     S
C1474  C1475   1.525   .     S
C1474  H1696   1.110   .     S
C1474  H1695   1.110   .     S
C1474  C105    1.527   1_565 S
C1475  H1697   1.110   .     S
C1475  H1698   1.110   .     S
C1475  H1699   1.108   .     S
C1476  C1477   1.534   .     S
C1476  H1701   1.111   .     S
C1476  O2011   1.419   .     S
C1476  H1702   1.118   .     S
C1477  H1703   1.111   .     S
C1477  H1704   1.109   .     S
C1477  C1478   1.523   .     S
C1478  H1706   1.110   .     S
C1478  H1707   1.108   .     S
C1478  H1705   1.109   .     S
C1479  H1709   1.117   .     S
C1479  H1708   1.110   .     S
C1479  C1482   1.534   .     S
C1479  O2012   1.419   .     S
C1480  H1744   1.081   .     S
C1481  C1570   1.452   .     S
C1481  C1567   1.386   .     A
C1481  C243    1.385   1_565 S
C1482  C1483   1.523   .     S
C1482  H1710   1.112   .     S
C1482  H1712   1.106   .     S
C1483  H1714   1.110   .     S
C1483  H1715   1.108   .     S
C1483  H1713   1.111   .     S
C1484  H1716   1.111   .     S
C1484  C1485   1.531   .     S
C1484  H1717   1.116   .     S
C1484  O2013   1.417   .     S
C1485  C1486   1.526   .     S
C1485  H1719   1.111   .     S
C1485  H1718   1.110   .     S
C1486  H1723   1.111   .     S
C1486  H1721   1.110   .     S
C1486  H1720   1.110   .     S
C1487  H1724   1.115   .     S
C1487  H1725   1.114   .     S
C1487  O2014   1.411   .     S
C1487  C120    1.528   1_565 S
C1488  H1727   1.112   .     S
C1488  H1726   1.112   .     S
C1488  C1489   1.526   .     S
C1489  H1730   1.110   .     S
C1489  H1728   1.110   .     S
C1489  H1729   1.111   .     S
C1490  H1731   1.112   .     S
C1490  H1732   1.117   .     S
C1490  O2015   1.419   .     S
C1490  C1491   1.534   .     S
C1491  C1493   1.526   .     S
C1491  H1735   1.109   .     S
C1492  C1622   1.392   .     A
C1492  C1575   1.456   .     S
C1493  H1737   1.110   .     S
C1493  H1738   1.108   .     S
C1493  H1736   1.111   .     S
C1494  C1495   1.530   .     S
C1494  H1739   1.114   .     S
C1494  O2016   1.412   .     S
C1494  H1740   1.113   .     S
C1495  H1741   1.111   .     S
C1495  H1742   1.112   .     S
C1495  C1496   1.524   .     S
C1496  H1747   1.110   .     S
C1496  H1743   1.111   .     S
C1496  H1746   1.111   .     S
C1497  H1748   1.115   .     S
C1497  C1498   1.529   .     S
C1497  H1749   1.115   .     S
C1497  O2017   1.412   .     S
C1498  H1751   1.111   .     S
C1498  C1499   1.526   .     S
C1498  H1750   1.110   .     S
C1499  H1752   1.111   .     S
C1499  H1754   1.111   .     S
C1499  H1753   1.111   .     S
C1500  H1755   1.111   .     S
C1500  H1757   1.116   .     S
C1500  O2018   1.417   .     S
C1500  C1501   1.530   .     S
C1501  H1758   1.112   .     S
C1501  H1759   1.110   .     S
C1501  C1502   1.525   .     S
C1502  H1761   1.110   .     S
C1502  H1760   1.111   .     S
C1502  H1762   1.107   .     S
C1503  C1576   1.458   .     S
C1504  H1763   1.111   .     S
C1504  C1505   1.532   .     S
C1504  O2020   1.415   .     S
C1504  H1764   1.116   .     S
C1505  H1765   1.112   .     S
C1505  H1766   1.111   .     S
C1505  C1506   1.526   .     S
C1506  H1769   1.110   .     S
C1506  H1770   1.111   .     S
C1506  H1768   1.110   .     S
C1507  H1771   1.115   .     S
C1507  O2021   1.411   .     S
C1507  C1508   1.528   .     S
C1507  H1772   1.114   .     S
C1508  C1509   1.524   .     S
C1508  H1774   1.111   .     S
C1508  H1773   1.111   .     S
C1509  H1775   1.110   .     S
C1509  H1777   1.108   .     S
C1509  H1776   1.111   .     S
C1510  H1779   1.110   .     S
C1510  O2022   1.421   .     S
C1510  C1511   1.537   .     S
C1510  H1780   1.117   .     S
C1511  C1512   1.525   .     S
C1511  H1782   1.109   .     S
C1511  H1781   1.111   .     S
C1512  H1785   1.110   .     S
C1512  H1783   1.108   .     S
C1512  H1784   1.111   .     S
C1513  C1515   1.534   .     S
C1513  O2023   1.420   .     S
C1513  H1786   1.109   .     S
C1513  H1787   1.117   .     S
C1514  C2109   1.389   .     S
C1514  C2257   1.454   .     S
C1515  H1790   1.108   .     S
C1515  C1516   1.525   .     S
C1515  H1788   1.112   .     S
C1516  H1792   1.110   .     S
C1516  H1791   1.111   .     S
C1516  H1793   1.108   .     S
C1517  H1794   1.111   .     S
C1517  C1518   1.532   .     S
C1517  H1795   1.115   .     S
C1517  O2024   1.415   .     S
C1518  H1797   1.111   .     S
C1518  H1796   1.112   .     S
C1518  C1519   1.526   .     S
C1519  H1799   1.110   .     S
C1519  H1801   1.111   .     S
C1519  H1798   1.110   .     S
C1520  H1803   1.114   .     S
C1520  C1521   1.530   .     S
C1520  H1802   1.115   .     S
C1520  O2025   1.412   .     S
C1521  H1805   1.112   .     S
C1521  H1804   1.111   .     S
C1521  C1522   1.526   .     S
C1522  H1807   1.111   .     S
C1522  H1808   1.110   .     S
C1522  H1806   1.110   .     S
C1523  O2026   1.421   .     S
C1523  C1524   1.536   .     S
C1523  H1810   1.118   .     S
C1523  H1809   1.111   .     S
C1524  C1526   1.525   .     S
C1524  H1813   1.108   .     S
C1524  H1812   1.110   .     S
C1525  C2076   1.387   .     S
C1525  C2258   1.454   .     S
C1526  H1815   1.110   .     S
C1526  H1816   1.110   .     S
C1526  H1814   1.109   .     S
C1527  H1817   1.115   .     S
C1527  H1818   1.115   .     S
C1527  C1528   1.527   .     S
C1527  O2027   1.411   .     S
C1528  H1819   1.111   .     S
C1528  H1820   1.111   .     S
C1528  C1529   1.525   .     S
C1529  H1824   1.109   .     S
C1529  H1821   1.110   .     S
C1529  H1823   1.110   .     S
C1530  O2028   1.419   .     S
C1530  H1825   1.109   .     S
C1530  C1531   1.534   .     S
C1530  H1826   1.118   .     S
C1531  H1827   1.111   .     S
C1531  C1532   1.524   .     S
C1531  H1828   1.110   .     S
C1532  H1830   1.110   .     S
C1532  H1831   1.110   .     S
C1532  H1829   1.108   .     S
C1533  O2029   1.419   .     S
C1533  H1834   1.117   .     S
C1533  C1534   1.534   .     S
C1533  H1832   1.110   .     S
C1534  H1835   1.112   .     S
C1534  H1836   1.107   .     S
C1534  C1535   1.525   .     S
C1535  H1837   1.111   .     S
C1535  H1838   1.111   .     S
C1535  H1839   1.108   .     S
C1536  C1630   1.419   .     A
C1536  C1557   1.414   .     A
C1537  H1841   1.115   .     S
C1537  O2031   1.415   .     S
C1537  C1538   1.532   .     S
C1537  H1840   1.111   .     S
C1538  H1843   1.111   .     S
C1538  C1539   1.526   .     S
C1538  H1842   1.112   .     S
C1539  H1846   1.110   .     S
C1539  H1847   1.111   .     S
C1539  H1845   1.110   .     S
C1540  H1848   1.116   .     S
C1540  H1849   1.114   .     S
C1540  O2032   1.411   .     S
C1540  C1541   1.528   .     S
C1541  H1850   1.111   .     S
C1541  H1851   1.111   .     S
C1541  C1542   1.525   .     S
C1542  H1853   1.111   .     S
C1542  H1854   1.110   .     S
C1542  H1852   1.110   .     S
C1543  C1544   1.529   .     S
C1543  H1858   1.114   .     S
C1543  O2033   1.414   .     S
C1543  H1857   1.112   .     S
C1544  C1545   1.524   .     S
C1544  H1859   1.112   .     S
C1544  H1860   1.112   .     S
C1545  H1862   1.111   .     S
C1545  H1863   1.108   .     S
C1545  H1861   1.111   .     S
C1546  O2034   1.421   .     S
C1546  H1864   1.111   .     S
C1546  C1548   1.537   .     S
C1546  H1865   1.117   .     S
C1547  C1631   1.423   .     A
C1547  C1555   1.422   .     A
C1548  H1866   1.112   .     S
C1548  H1868   1.109   .     S
C1548  C1549   1.524   .     S
C1549  H1871   1.109   .     S
C1549  H1869   1.111   .     S
C1549  H1870   1.111   .     S
C1550  C1551   1.528   .     S
C1550  H1873   1.114   .     S
C1550  O2035   1.411   .     S
C1550  H1872   1.114   .     S
C1551  H1875   1.111   .     S
C1551  H1874   1.111   .     S
C1551  C1552   1.525   .     S
C1552  H1876   1.111   .     S
C1552  H1877   1.110   .     S
C1553  C1559   1.421   .     A
C1553  C1632   1.422   .     A
C1554  C1558   1.421   .     A
C1556  H1855   1.080   .     S
C1560  C1565   1.414   1_556 S
C1561  C1564   1.422   1_554 S
C1562  C1568   1.422   1_556 S
C1563  C1566   1.420   1_554 S
C1564  C1561   1.422   1_556 S
C1565  C1560   1.414   1_554 S
C1566  C1563   1.420   1_556 S
C1567  H1887   1.079   .     S
C1568  C1562   1.422   1_554 S
C1569  O2036   1.278   .     A
C1570  O1954   1.276   .     A
C1570  O640    1.279   1_565 S
C1571  O1955   1.280   .     A
C1571  O2703   1.280   .     S
C1572  O1956   1.281   .     A
C1572  O2714   1.280   1_455 S
C1573  O1961   1.281   .     A
C1573  O1957   1.275   .     A
C1573  C2198   1.454   1_455 S
C1574  O1958   1.280   .     A
C1574  C2209   1.454   1_455 S
C1574  O1962   1.276   .     S
C1575  O1959   1.280   .     A
C1575  O1963   1.281   .     A
C1576  O1960   1.281   .     S
C1576  O1965   1.281   .     S
C1577  O1994   1.284   .     A
C1577  O1966   1.281   .     A
C1578  C1630   1.396   .     A
C1578  H1898   1.081   .     S
C1578  C2131   1.388   1_455 S
C1579  O1967   1.277   .     A
C1579  O1995   1.282   .     A
C1580  O1992   1.277   .     A
C1580  O1968   1.276   .     A
C1581  O1969   1.281   .     A
C1581  O1993   1.281   .     A
C1582  O1999   1.281   .     A
C1582  O1970   1.281   .     A
C1583  O2000   1.278   .     A
C1583  O1971   1.279   .     A
C1584  O1972   1.281   .     A
C1584  O1996   1.277   .     A
C1585  O1998   1.283   .     A
C1585  O1973   1.281   .     A
C1586  O1985   1.276   .     A
C1586  O1974   1.277   .     A
C1587  O1987   1.282   .     A
C1587  O1976   1.279   .     A
C1588  O1977   1.285   .     A
C1588  O1983   1.279   .     A
C1589  C1631   1.403   .     A
C1589  H1909   1.079   .     S
C1589  C2142   1.392   .     S
C1590  O1984   1.277   .     A
C1590  O1978   1.281   .     A
C1591  O1979   1.281   .     A
C1591  O1990   1.280   .     A
C1592  O1991   1.287   .     A
C1592  O1980   1.279   .     A
C1593  O1981   1.279   .     A
C1593  O1988   1.282   .     A
C1594  O1989   1.276   .     A
C1594  O1982   1.280   .     A
C1595  O2001   1.386   .     S
C1595  C1612   1.399   .     A
C1596  O2002   1.384   .     S
C1596  C1610   1.399   .     A
C1597  C1609   1.404   .     A
C1597  O2003   1.385   .     S
C1598  O2004   1.386   .     S
C1598  C1608   1.395   .     A
C1599  C1607   1.394   .     A
C1599  O2005   1.386   .     S
C1600  H1920   1.080   .     S
C1600  C1632   1.406   .     A
C1601  C1606   1.391   .     A
C1601  O2006   1.386   .     S
C1602  C1605   1.396   .     A
C1602  O2007   1.385   .     S
C1603  O2009   1.388   .     S
C1603  C1604   1.399   .     A
C1604  O2010   1.384   .     S
C1605  O2011   1.386   .     S
C1606  O2012   1.386   .     S
C1607  O2013   1.387   .     S
C1608  O2014   1.384   .     S
C1609  O2015   1.390   .     S
C1610  O2016   1.385   .     S
C1611  H1931   1.079   .     S
C1612  O2017   1.385   .     S
C1613  O2018   1.388   .     S
C1613  C1629   1.403   .     A
C1614  O2020   1.386   .     S
C1614  C1628   1.392   .     A
C1615  O2021   1.384   .     S
C1615  C1627   1.404   .     A
C1616  O2022   1.386   .     S
C1616  C1626   1.393   .     A
C1617  O2023   1.386   .     S
C1617  C1625   1.390   .     A
C1618  O2024   1.386   .     S
C1618  C1624   1.391   .     A
C1619  O2025   1.385   .     S
C1619  C1623   1.395   .     A
C1620  O2026   1.386   .     S
C1620  C1621   1.393   .     A
C1621  O2027   1.382   .     S
C1622  H1942   1.078   .     S
C1623  O2028   1.385   .     S
C1624  O2029   1.386   .     S
C1625  O2031   1.387   .     S
C1626  O2032   1.384   .     S
C1627  O2033   1.386   .     S
C1628  O2034   1.386   .     S
C1629  O2035   1.385   .     S
C1631  C2088   1.419   .     S
H1681  C2151   1.112   .     S
H1734  C123    1.110   1_565 S
H1879  C184    1.111   1_565 S
H1928  C71     1.108   1_565 S
H1929  C71     1.111   1_565 S
O1953  Zn2040  1.945   .     S
O1953  Zn2037  1.951   .     S
O1953  Zn2048  1.945   .     S
O1954  Zn2039  1.945   .     S
O1955  Zn2042  1.946   .     S
O1956  Zn2041  1.946   .     S
O1957  Zn2051  1.944   .     S
O1958  Zn2050  1.944   .     S
O1959  Zn2045  1.943   .     S
O1960  Zn2037  1.943   .     S
O1961  Zn2047  1.945   .     S
O1962  Zn2046  1.945   .     S
O1963  Zn2049  1.946   .     S
O1964  Zn2043  1.947   .     S
O1964  Zn2045  1.951   .     S
O1964  Zn2049  1.945   .     S
O1965  Zn2048  1.946   .     S
O1966  Zn2040  1.944   .     S
O1967  Zn2039  1.944   .     S
O1968  Zn2042  1.932   .     S
O1969  Zn2041  1.932   .     S
O1970  Zn2044  1.941   .     S
O1971  Zn2043  1.941   .     S
O1972  Zn2038  1.931   .     S
O1973  Zn2052  1.931   .     S
O1974  Zn2039  1.932   .     S
O1975  Zn2038  1.951   .     S
O1975  Zn2726  1.945   1_455 S
O1975  Zn2046  1.945   .     S
O1975  Zn2050  1.947   .     S
O1976  Zn2040  1.932   .     S
O1977  Zn2052  1.940   .     S
O1978  Zn2038  1.940   .     S
O1979  Zn2043  1.934   .     S
O1980  Zn2044  1.934   .     S
O1981  Zn2041  1.942   .     S
O1982  Zn2042  1.942   .     S
O1983  Zn2731  1.944   .     S
O1984  Zn2046  1.944   .     S
O1985  Zn681   1.932   1_565 S
O1986  Zn2041  1.945   .     S
O1986  Zn2047  1.945   .     S
O1986  Zn2051  1.947   .     S
O1986  Zn2736  1.951   1_455 S
O1987  Zn2048  1.932   .     S
O1988  Zn2051  1.941   .     S
O1989  Zn2734  1.941   .     S
O1990  Zn2045  1.931   .     S
O1991  Zn669   1.931   1_565 S
O1992  Zn2730  1.932   .     S
O1993  Zn2047  1.932   .     S
O1994  Zn2037  1.940   .     S
O1995  Zn677   1.940   1_565 S
O1996  Zn2050  1.934   .     S
O1997  Zn2044  1.944   .     S
O1997  C201    1.277   1_565 S
O1998  Zn2735  1.934   .     S
O1999  Zn680   1.942   1_565 S
O2000  Zn2049  1.942   .     S
O2008  Zn2043  1.944   .     S
O2019  Zn2038  1.943   .     S
O2019  C2255   1.280   1_455 S
O2030  Zn2052  1.943   .     S
O2030  C2256   1.280   .     S
O2036  Zn2040  1.945   .     S
Zn2039 O596    1.945   1_565 S
Zn2042 O2659   1.945   .     S
Zn2044 O585    1.947   1_565 S
Zn2046 O2676   1.932   1_455 S
Zn2047 O2667   1.944   1_455 S
Zn2050 O2673   1.941   1_455 S
Zn2051 O2682   1.934   1_455 S
Zn2052 O2670   1.951   .     S
C2053  C2131   1.391   .     A
C2053  H2317   1.078   .     S
C2053  C2056   1.404   .     A
C2054  C2066   1.400   .     A
C2054  H2318   1.080   .     S
C2054  C819    1.389   1_565 S
C2055  C2295   1.406   .     A
C2055  C2238   1.425   .     A
C2056  C2239   1.425   .     A
C2056  C1402   1.421   1_655 S
C2057  C2088   1.421   .     A
C2057  C2241   1.420   .     A
C2057  C2164   1.399   .     A
C2058  C2240   1.405   .     A
C2058  C2242   1.421   .     A
C2059  C2243   1.424   .     A
C2059  C2090   1.424   .     A
C2059  C2251   1.405   .     A
C2060  C2244   1.418   .     A
C2060  C2087   1.396   .     A
C2060  C723    1.420   1_565 S
C2061  C2245   1.422   .     A
C2061  C2098   1.404   .     A
C2061  C2092   1.419   .     A
C2062  C2246   1.423   .     A
C2062  C2109   1.406   .     A
C2063  C2247   1.425   .     A
C2063  C2120   1.405   .     A
C2063  C2094   1.425   .     A
C2064  C2248   1.426   .     A
C2064  C2091   1.421   .     A
C2064  C2306   1.404   .     A
C2065  H2329   1.080   .     S
C2065  C2198   1.386   .     A
C2065  C2067   1.404   .     A
C2066  C2249   1.420   .     A
C2066  C724    1.421   1_565 S
C2067  C2250   1.419   .     A
C2067  C2093   1.421   .     A
C2068  C2252   1.425   .     A
C2068  C2076   1.404   .     A
C2069  C2268   1.447   .     S
C2069  C2298   1.403   .     A
C2069  C2296   1.406   .     A
C2070  C2297   1.408   .     A
C2070  C2294   1.408   .     A
C2070  C2269   1.455   .     S
C2071  C2293   1.414   .     A
C2071  C2300   1.415   .     A
C2071  C2261   1.466   .     S
C2072  C2292   1.402   .     A
C2072  C2299   1.408   .     A
C2072  C2263   1.456   .     S
C2073  C2291   1.406   .     A
C2073  C2302   1.406   .     A
C2073  C2264   1.445   .     S
C2074  C2265   1.460   .     S
C2074  C2290   1.416   .     A
C2074  C2301   1.416   .     A
C2075  C2304   1.415   .     A
C2075  C2266   1.465   .     S
C2075  C2289   1.417   .     A
C2076  H2340   1.079   .     S
C2077  C2303   1.405   .     A
C2077  C2267   1.456   .     S
C2077  C2288   1.407   .     A
C2078  C2307   1.415   .     A
C2078  C2277   1.464   .     S
C2078  C2287   1.412   .     A
C2079  C2286   1.407   .     A
C2079  C2305   1.404   .     A
C2079  C2278   1.455   .     S
C2080  C2285   1.405   .     A
C2080  C2309   1.405   .     A
C2080  C2270   1.444   .     S
C2081  C2283   1.411   .     A
C2081  C2308   1.415   .     A
C2081  C2271   1.458   .     S
C2082  C2272   1.465   .     S
C2082  C2311   1.411   .     A
C2082  C2282   1.415   .     A
C2083  C2281   1.408   .     A
C2083  C2274   1.456   .     S
C2083  C2310   1.403   .     A
C2084  C2280   1.406   .     A
C2084  C2275   1.451   .     S
C2084  C2313   1.405   .     A
C2085  C2279   1.409   .     A
C2085  C2276   1.459   .     S
C2085  C2312   1.415   .     A
C2086  C2088   1.398   .     A
C2086  C2314   1.421   .     A
C2087  H2351   1.081   .     S
C2087  C808    1.388   1_565 S
C2089  C2316   1.422   .     A
C2089  C2090   1.402   .     A
C2089  C690    1.422   1_565 S
C2090  C687    1.425   1_565 S
C2091  C2092   1.399   1_556 S
C2092  C2091   1.399   1_554 S
C2093  C1378   1.422   1_655 S
C2093  C2094   1.401   1_556 S
C2094  C1384   1.423   1_655 S
C2094  C2093   1.401   1_554 S
C2095  C2220   1.534   .     S
C2095  C2096   1.533   .     S
C2095  H2440   1.110   .     S
C2095  H2429   1.104   .     S
C2096  H2406   1.111   .     S
C2096  H2417   1.111   .     S
C2096  H2395   1.108   .     S
C2097  C2099   1.528   .     S
C2097  H2484   1.109   .     S
C2097  H2495   1.109   .     S
C2097  C2231   1.528   .     S
C2098  H2362   1.079   .     S
C2098  C2187   1.392   .     A
C2099  H2462   1.110   .     S
C2099  H2473   1.109   .     S
C2099  H2451   1.108   .     S
C2100  C2237   1.527   .     S
C2100  H2540   1.109   .     S
C2100  C2101   1.527   .     S
C2100  H2551   1.109   .     S
C2101  H2517   1.109   .     S
C2101  H2506   1.109   .     S
C2101  H2528   1.110   .     S
C2102  H2567   1.109   .     S
C2102  C2238   1.533   .     S
C2102  C2103   1.529   .     S
C2102  H2566   1.102   .     S
C2103  H2562   1.108   .     S
C2103  H2564   1.110   .     S
C2103  H2565   1.108   .     S
C2104  C2239   1.535   .     S
C2104  C2105   1.531   .     S
C2104  H2572   1.102   .     S
C2104  H2573   1.109   .     S
C2105  H2569   1.111   .     S
C2105  H2568   1.108   .     S
C2105  H2570   1.111   .     S
C2106  C2241   1.530   .     S
C2106  H2577   1.104   .     S
C2106  C2107   1.532   .     S
C2106  H2578   1.108   .     S
C2107  H2576   1.111   .     S
C2107  H2574   1.108   .     S
C2107  H2575   1.111   .     S
C2108  C2242   1.528   .     S
C2108  C2110   1.527   .     S
C2108  H2583   1.109   .     S
C2108  H2584   1.108   .     S
C2109  H2373   1.080   .     S
C2110  H2579   1.108   .     S
C2110  H2580   1.110   .     S
C2110  H2581   1.110   .     S
C2111  C2243   1.535   .     S
C2111  C2112   1.530   .     S
C2111  H2588   1.102   .     S
C2111  H2589   1.108   .     S
C2112  H2585   1.109   .     S
C2112  H2587   1.111   .     S
C2112  H2586   1.111   .     S
C2113  H2594   1.104   .     S
C2113  H2595   1.110   .     S
C2113  C2244   1.534   .     S
C2113  C746    1.533   1_565 S
C2114  H2591   1.111   .     S
C2114  H2592   1.111   .     S
C2114  H2590   1.108   .     S
C2115  H2600   1.109   .     S
C2115  H2599   1.110   .     S
C2115  C2116   1.527   .     S
C2115  C2245   1.528   .     S
C2116  H2596   1.108   .     S
C2116  H2598   1.109   .     S
C2116  H2597   1.109   .     S
C2117  H2605   1.109   .     S
C2117  C2246   1.529   .     S
C2117  H2606   1.108   .     S
C2117  C2118   1.529   .     S
C2118  H2603   1.109   .     S
C2118  H2602   1.110   .     S
C2118  H2601   1.108   .     S
C2119  H2610   1.102   .     S
C2119  C2247   1.532   .     S
C2119  C2121   1.529   .     S
C2119  H2611   1.109   .     S
C2120  C2209   1.385   .     A
C2120  H2384   1.079   .     S
C2121  H2609   1.107   .     S
C2121  H2608   1.110   .     S
C2121  H2607   1.108   .     S
C2122  C2248   1.534   .     S
C2122  C2123   1.531   .     S
C2122  H2616   1.102   .     S
C2122  H2617   1.109   .     S
C2123  H2614   1.111   .     S
C2124  C2125   1.532   .     S
C2124  C2249   1.530   .     S
C2124  H2622   1.107   .     S
C2124  H2621   1.104   .     S
C2125  H2618   1.108   .     S
C2125  H2620   1.111   .     S
C2125  H2619   1.111   .     S
C2126  C2250   1.527   .     S
C2126  H2627   1.110   .     S
C2126  C2127   1.526   .     S
C2126  H2628   1.109   .     S
C2127  H2624   1.110   .     S
C2127  H2625   1.108   .     S
C2127  H2623   1.109   .     S
C2128  H2633   1.109   .     S
C2128  C2129   1.531   .     S
C2128  C2252   1.535   .     S
C2128  H2632   1.102   .     S
C2129  H2630   1.111   .     S
C2129  H2629   1.108   .     S
C2129  H2631   1.111   .     S
C2130  C2132   1.528   .     S
C2130  H2634   1.111   .     S
C2130  H2635   1.117   .     S
C2130  O2685   1.416   .     S
C2131  C2255   1.455   .     S
C2131  C1578   1.388   1_655 S
C2132  H2319   1.111   .     S
C2132  H2636   1.112   .     S
C2132  C2133   1.525   .     S
C2133  H2320   1.111   .     S
C2133  H2322   1.107   .     S
C2133  H2321   1.110   .     S
C2134  H2323   1.115   .     S
C2134  C2135   1.528   .     S
C2134  H2324   1.114   .     S
C2134  O2686   1.412   .     S
C2135  C2136   1.526   .     S
C2135  H2325   1.111   .     S
C2135  H2326   1.112   .     S
C2136  H2328   1.111   .     S
C2136  H2330   1.111   .     S
C2136  H2327   1.111   .     S
C2137  H2331   1.115   .     S
C2137  O2687   1.412   .     S
C2137  H2332   1.114   .     S
C2138  H2334   1.111   .     S
C2138  C2139   1.525   .     S
C2138  H2333   1.109   .     S
C2138  C1453   1.531   1_655 S
C2139  H2337   1.109   .     S
C2139  H2336   1.111   .     S
C2139  H2335   1.111   .     S
C2140  O2688   1.422   .     S
C2140  H2339   1.118   .     S
C2140  C2141   1.537   .     S
C2140  H2338   1.109   .     S
C2141  C2143   1.525   .     S
C2141  H2341   1.110   .     S
C2141  H2342   1.108   .     S
C2142  C2256   1.457   .     S
C2142  C2164   1.389   .     A
C2143  H2343   1.108   .     S
C2143  H2345   1.110   .     S
C2143  H2344   1.111   .     S
C2144  H2347   1.117   .     S
C2144  O2689   1.419   .     S
C2144  H2346   1.112   .     S
C2144  C2145   1.529   .     S
C2145  H2349   1.111   .     S
C2145  H2348   1.112   .     S
C2145  C2146   1.526   .     S
C2146  H2352   1.110   .     S
C2146  H2350   1.111   .     S
C2146  H2353   1.109   .     S
C2147  O2690   1.415   .     S
C2147  H2355   1.115   .     S
C2147  C2148   1.532   .     S
C2147  H2354   1.111   .     S
C2148  H2357   1.111   .     S
C2148  H2356   1.112   .     S
C2148  C2149   1.526   .     S
C2149  H2358   1.109   .     S
C2149  H2360   1.111   .     S
C2149  H2359   1.110   .     S
C2150  H2363   1.114   .     S
C2150  H2361   1.115   .     S
C2150  O2691   1.411   .     S
C2150  C1467   1.531   1_655 S
C2151  H2364   1.111   .     S
C2151  C2152   1.525   .     S
C2152  H2367   1.111   .     S
C2152  H2366   1.111   .     S
C2152  H2368   1.109   .     S
C2153  C2284   1.387   .     A
C2153  C872    1.386   1_565 S
C2153  C885    1.453   1_565 S
C2154  H2369   1.112   .     S
C2154  O2693   1.418   .     S
C2154  C2155   1.530   .     S
C2154  H2370   1.116   .     S
C2155  H2372   1.111   .     S
C2155  H2371   1.111   .     S
C2155  C2156   1.527   .     S
C2156  H2375   1.110   .     S
C2156  H2374   1.111   .     S
C2156  H2376   1.109   .     S
C2157  O2694   1.412   .     S
C2157  H2378   1.114   .     S
C2157  H2377   1.115   .     S
C2158  C2159   1.525   .     S
C2158  H2380   1.110   .     S
C2158  H2379   1.110   .     S
C2158  C789    1.527   1_565 S
C2159  H2381   1.110   .     S
C2159  H2382   1.110   .     S
C2159  H2383   1.108   .     S
C2160  C2161   1.534   .     S
C2160  H2385   1.111   .     S
C2160  O2695   1.419   .     S
C2160  H2386   1.118   .     S
C2161  H2387   1.111   .     S
C2161  H2388   1.109   .     S
C2161  C2162   1.523   .     S
C2162  H2390   1.110   .     S
C2162  H2391   1.108   .     S
C2162  H2389   1.109   .     S
C2163  H2393   1.117   .     S
C2163  H2392   1.110   .     S
C2163  C2166   1.534   .     S
C2163  O2696   1.419   .     S
C2164  H2428   1.081   .     S
C2165  C2254   1.452   .     S
C2165  C2251   1.386   .     A
C2165  C927    1.385   1_565 S
C2166  C2167   1.523   .     S
C2166  H2394   1.112   .     S
C2166  H2396   1.106   .     S
C2167  H2398   1.110   .     S
C2167  H2399   1.108   .     S
C2167  H2397   1.111   .     S
C2168  H2400   1.111   .     S
C2168  C2169   1.531   .     S
C2168  H2401   1.116   .     S
C2168  O2697   1.417   .     S
C2169  C2170   1.526   .     S
C2169  H2403   1.111   .     S
C2169  H2402   1.110   .     S
C2170  H2407   1.111   .     S
C2170  H2405   1.110   .     S
C2170  H2404   1.110   .     S
C2171  H2408   1.115   .     S
C2171  H2409   1.114   .     S
C2171  O2698   1.411   .     S
C2171  C804    1.528   1_565 S
C2172  H2411   1.112   .     S
C2172  H2410   1.112   .     S
C2172  C2173   1.526   .     S
C2173  H2414   1.110   .     S
C2173  H2412   1.110   .     S
C2173  H2413   1.111   .     S
C2174  H2415   1.112   .     S
C2174  H2416   1.117   .     S
C2174  O2699   1.419   .     S
C2174  C2175   1.534   .     S
C2175  C2177   1.526   .     S
C2175  H2419   1.109   .     S
C2176  C2306   1.392   .     A
C2176  C2259   1.456   .     S
C2177  H2421   1.110   .     S
C2177  H2422   1.108   .     S
C2177  H2420   1.111   .     S
C2178  C2179   1.530   .     S
C2178  H2423   1.114   .     S
C2178  O2700   1.412   .     S
C2178  H2424   1.113   .     S
C2179  H2425   1.111   .     S
C2179  H2426   1.112   .     S
C2179  C2180   1.524   .     S
C2180  H2431   1.110   .     S
C2180  H2427   1.111   .     S
C2180  H2430   1.111   .     S
C2181  H2432   1.115   .     S
C2181  C2182   1.529   .     S
C2181  H2433   1.115   .     S
C2181  O2701   1.412   .     S
C2182  H2435   1.111   .     S
C2182  C2183   1.526   .     S
C2182  H2434   1.110   .     S
C2183  H2436   1.111   .     S
C2183  H2438   1.111   .     S
C2183  H2437   1.111   .     S
C2184  H2439   1.111   .     S
C2184  H2441   1.116   .     S
C2184  O2702   1.417   .     S
C2184  C2185   1.530   .     S
C2185  H2442   1.112   .     S
C2185  H2443   1.110   .     S
C2185  C2186   1.525   .     S
C2186  H2445   1.110   .     S
C2186  H2444   1.111   .     S
C2186  H2446   1.107   .     S
C2187  C2260   1.458   .     S
C2188  H2447   1.111   .     S
C2188  C2189   1.532   .     S
C2188  O2704   1.415   .     S
C2188  H2448   1.116   .     S
C2189  H2449   1.112   .     S
C2189  H2450   1.111   .     S
C2189  C2190   1.526   .     S
C2190  H2453   1.110   .     S
C2190  H2454   1.111   .     S
C2190  H2452   1.110   .     S
C2191  H2455   1.115   .     S
C2191  O2705   1.411   .     S
C2191  C2192   1.528   .     S
C2191  H2456   1.114   .     S
C2192  C2193   1.524   .     S
C2192  H2458   1.111   .     S
C2192  H2457   1.111   .     S
C2193  H2459   1.110   .     S
C2193  H2461   1.108   .     S
C2193  H2460   1.111   .     S
C2194  H2463   1.110   .     S
C2194  O2706   1.421   .     S
C2194  C2195   1.537   .     S
C2194  H2464   1.117   .     S
C2195  C2196   1.525   .     S
C2195  H2466   1.109   .     S
C2195  H2465   1.111   .     S
C2196  H2469   1.110   .     S
C2196  H2467   1.108   .     S
C2196  H2468   1.111   .     S
C2197  C2199   1.534   .     S
C2197  O2707   1.420   .     S
C2197  H2470   1.109   .     S
C2197  H2471   1.117   .     S
C2198  C1425   1.389   1_655 S
C2198  C1573   1.454   1_655 S
C2199  H2474   1.108   .     S
C2199  C2200   1.525   .     S
C2199  H2472   1.112   .     S
C2200  H2476   1.110   .     S
C2200  H2475   1.111   .     S
C2200  H2477   1.108   .     S
C2201  H2478   1.111   .     S
C2201  C2202   1.532   .     S
C2201  H2479   1.115   .     S
C2201  O2708   1.415   .     S
C2202  H2481   1.111   .     S
C2202  H2480   1.112   .     S
C2202  C2203   1.526   .     S
C2203  H2483   1.110   .     S
C2203  H2485   1.111   .     S
C2203  H2482   1.110   .     S
C2204  H2487   1.114   .     S
C2204  C2205   1.530   .     S
C2204  H2486   1.115   .     S
C2204  O2709   1.412   .     S
C2205  H2489   1.112   .     S
C2205  H2488   1.111   .     S
C2205  C2206   1.526   .     S
C2206  H2491   1.111   .     S
C2206  H2492   1.110   .     S
C2206  H2490   1.110   .     S
C2207  O2710   1.421   .     S
C2207  C2208   1.536   .     S
C2207  H2494   1.118   .     S
C2207  H2493   1.111   .     S
C2208  C2210   1.525   .     S
C2208  H2497   1.108   .     S
C2208  H2496   1.110   .     S
C2209  C1392   1.387   1_655 S
C2209  C1574   1.454   1_655 S
C2210  H2499   1.110   .     S
C2210  H2500   1.110   .     S
C2210  H2498   1.109   .     S
C2211  H2501   1.115   .     S
C2211  H2502   1.115   .     S
C2211  C2212   1.527   .     S
C2211  O2711   1.411   .     S
C2212  H2503   1.111   .     S
C2212  H2504   1.111   .     S
C2212  C2213   1.525   .     S
C2213  H2508   1.109   .     S
C2213  H2505   1.110   .     S
C2213  H2507   1.110   .     S
C2214  O2712   1.419   .     S
C2214  H2509   1.109   .     S
C2214  C2215   1.534   .     S
C2214  H2510   1.118   .     S
C2215  H2511   1.111   .     S
C2215  C2216   1.524   .     S
C2215  H2512   1.110   .     S
C2216  H2514   1.110   .     S
C2216  H2515   1.110   .     S
C2216  H2513   1.108   .     S
C2217  O2713   1.419   .     S
C2217  H2518   1.117   .     S
C2217  C2218   1.534   .     S
C2217  H2516   1.110   .     S
C2218  H2519   1.112   .     S
C2218  H2520   1.107   .     S
C2218  C2219   1.525   .     S
C2219  H2521   1.111   .     S
C2219  H2522   1.111   .     S
C2219  H2523   1.108   .     S
C2220  C2314   1.419   .     A
C2220  C2241   1.414   .     A
C2221  H2525   1.115   .     S
C2221  O2715   1.415   .     S
C2221  C2222   1.532   .     S
C2221  H2524   1.111   .     S
C2222  H2527   1.111   .     S
C2222  C2223   1.526   .     S
C2222  H2526   1.112   .     S
C2223  H2530   1.110   .     S
C2223  H2531   1.111   .     S
C2223  H2529   1.110   .     S
C2224  H2532   1.116   .     S
C2224  H2533   1.114   .     S
C2224  O2716   1.411   .     S
C2224  C2225   1.528   .     S
C2225  H2534   1.111   .     S
C2225  H2535   1.111   .     S
C2225  C2226   1.525   .     S
C2226  H2537   1.111   .     S
C2226  H2538   1.110   .     S
C2226  H2536   1.110   .     S
C2227  C2228   1.529   .     S
C2227  H2542   1.114   .     S
C2227  O2717   1.414   .     S
C2227  H2541   1.112   .     S
C2228  C2229   1.524   .     S
C2228  H2543   1.112   .     S
C2228  H2544   1.112   .     S
C2229  H2546   1.111   .     S
C2229  H2547   1.108   .     S
C2229  H2545   1.111   .     S
C2230  O2718   1.421   .     S
C2230  H2548   1.111   .     S
C2230  C2232   1.537   .     S
C2230  H2549   1.117   .     S
C2231  C2315   1.423   .     A
C2231  C2239   1.422   .     A
C2232  H2550   1.112   .     S
C2232  H2552   1.109   .     S
C2232  C2233   1.524   .     S
C2233  H2555   1.109   .     S
C2233  H2553   1.111   .     S
C2233  H2554   1.111   .     S
C2234  C2235   1.528   .     S
C2234  H2557   1.114   .     S
C2234  O2719   1.411   .     S
C2234  H2556   1.114   .     S
C2235  H2559   1.111   .     S
C2235  H2558   1.111   .     S
C2235  C2236   1.525   .     S
C2236  H2560   1.111   .     S
C2236  H2561   1.110   .     S
C2237  C2243   1.421   .     A
C2237  C2316   1.422   .     A
C2238  C2242   1.421   .     A
C2240  H2539   1.080   .     S
C2244  C2249   1.414   1_556 S
C2245  C2248   1.422   1_554 S
C2246  C2252   1.422   1_556 S
C2247  C2250   1.420   1_554 S
C2248  C2245   1.422   1_556 S
C2249  C2244   1.414   1_554 S
C2250  C2247   1.420   1_556 S
C2251  H2571   1.079   .     S
C2252  C2246   1.422   1_554 S
C2253  O2720   1.278   .     A
C2254  O2638   1.276   .     A
C2254  O1324   1.279   1_565 S
C2255  O2639   1.280   .     A
C2255  O2019   1.280   1_655 S
C2256  O2640   1.281   .     A
C2257  O2645   1.281   .     A
C2257  O2641   1.275   .     A
C2258  O2642   1.280   .     A
C2258  O2646   1.276   .     S
C2259  O2643   1.280   .     A
C2259  O2647   1.281   .     A
C2260  O2644   1.281   .     S
C2260  O2649   1.281   .     S
C2261  O2678   1.284   .     A
C2261  O2650   1.281   .     A
C2262  C2314   1.396   .     A
C2262  H2582   1.081   .     S
C2263  O2651   1.277   .     A
C2263  O2679   1.282   .     A
C2264  O2676   1.277   .     A
C2264  O2652   1.276   .     A
C2265  O2653   1.281   .     A
C2265  O2677   1.281   .     A
C2266  O2683   1.281   .     A
C2266  O2654   1.281   .     A
C2267  O2684   1.278   .     A
C2267  O2655   1.279   .     A
C2268  O2656   1.281   .     A
C2268  O2680   1.277   .     A
C2269  O2682   1.283   .     A
C2269  O2657   1.281   .     A
C2270  O2669   1.276   .     A
C2270  O2658   1.277   .     A
C2271  O2671   1.282   .     A
C2271  O2660   1.279   .     A
C2272  O2661   1.285   .     A
C2272  O2667   1.279   .     A
C2273  C2315   1.403   .     A
C2273  H2593   1.079   .     S
C2273  C1458   1.392   1_655 S
C2274  O2668   1.277   .     A
C2274  O2662   1.281   .     A
C2275  O2663   1.281   .     A
C2275  O2674   1.280   .     A
C2276  O2675   1.287   .     A
C2276  O2664   1.279   .     A
C2277  O2665   1.279   .     A
C2277  O2672   1.282   .     A
C2278  O2673   1.276   .     A
C2278  O2666   1.280   .     A
C2279  O2685   1.386   .     S
C2279  C2296   1.399   .     A
C2280  O2686   1.384   .     S
C2280  C2294   1.399   .     A
C2281  C2293   1.404   .     A
C2281  O2687   1.385   .     S
C2282  O2688   1.386   .     S
C2282  C2292   1.395   .     A
C2283  C2291   1.394   .     A
C2283  O2689   1.386   .     S
C2284  H2604   1.080   .     S
C2284  C2316   1.406   .     A
C2285  C2290   1.391   .     A
C2285  O2690   1.386   .     S
C2286  C2289   1.396   .     A
C2286  O2691   1.385   .     S
C2287  O2693   1.388   .     S
C2287  C2288   1.399   .     A
C2288  O2694   1.384   .     S
C2289  O2695   1.386   .     S
C2290  O2696   1.386   .     S
C2291  O2697   1.387   .     S
C2292  O2698   1.384   .     S
C2293  O2699   1.390   .     S
C2294  O2700   1.385   .     S
C2295  H2615   1.079   .     S
C2296  O2701   1.385   .     S
C2297  O2702   1.388   .     S
C2297  C2313   1.403   .     A
C2298  O2704   1.386   .     S
C2298  C2312   1.392   .     A
C2299  O2705   1.384   .     S
C2299  C2311   1.404   .     A
C2300  O2706   1.386   .     S
C2300  C2310   1.393   .     A
C2301  O2707   1.386   .     S
C2301  C2309   1.390   .     A
C2302  O2708   1.386   .     S
C2302  C2308   1.391   .     A
C2303  O2709   1.385   .     S
C2303  C2307   1.395   .     A
C2304  O2710   1.386   .     S
C2304  C2305   1.393   .     A
C2305  O2711   1.382   .     S
C2306  H2626   1.078   .     S
C2307  O2712   1.385   .     S
C2308  O2713   1.386   .     S
C2309  O2715   1.387   .     S
C2310  O2716   1.384   .     S
C2311  O2717   1.386   .     S
C2312  O2718   1.386   .     S
C2313  O2719   1.385   .     S
C2315  C1404   1.419   1_655 S
H2365  C1467   1.112   1_655 S
H2418  C807    1.110   1_565 S
H2563  C868    1.111   1_565 S
H2612  C755    1.108   1_565 S
H2613  C755    1.111   1_565 S
O2637  Zn2724  1.945   .     S
O2637  Zn2721  1.951   .     S
O2637  Zn2732  1.945   .     S
O2638  Zn2723  1.945   .     S
O2639  Zn2726  1.946   .     S
O2640  Zn2725  1.946   .     S
O2641  Zn2735  1.944   .     S
O2642  Zn2734  1.944   .     S
O2643  Zn2729  1.943   .     S
O2644  Zn2721  1.943   .     S
O2645  Zn2731  1.945   .     S
O2646  Zn2730  1.945   .     S
O2647  Zn2733  1.946   .     S
O2648  Zn2727  1.947   .     S
O2648  Zn2729  1.951   .     S
O2648  Zn2733  1.945   .     S
O2649  Zn2732  1.946   .     S
O2650  Zn2724  1.944   .     S
O2651  Zn2723  1.944   .     S
O2652  Zn2726  1.932   .     S
O2653  Zn2725  1.932   .     S
O2654  Zn2728  1.941   .     S
O2655  Zn2727  1.941   .     S
O2656  Zn2722  1.931   .     S
O2657  Zn2736  1.931   .     S
O2658  Zn2723  1.932   .     S
O2659  Zn2722  1.951   .     S
O2659  Zn2730  1.945   .     S
O2659  Zn2734  1.947   .     S
O2660  Zn2724  1.932   .     S
O2661  Zn2736  1.940   .     S
O2662  Zn2722  1.940   .     S
O2663  Zn2727  1.934   .     S
O2664  Zn2728  1.934   .     S
O2665  Zn2725  1.942   .     S
O2666  Zn2726  1.942   .     S
O2667  Zn2047  1.944   1_655 S
O2668  Zn2730  1.944   .     S
O2669  Zn1365  1.932   1_565 S
O2670  Zn2725  1.945   .     S
O2670  Zn2731  1.945   .     S
O2670  Zn2735  1.947   .     S
O2671  Zn2732  1.932   .     S
O2672  Zn2735  1.941   .     S
O2673  Zn2050  1.941   1_655 S
O2674  Zn2729  1.931   .     S
O2675  Zn1353  1.931   1_565 S
O2676  Zn2046  1.932   1_655 S
O2677  Zn2731  1.932   .     S
O2678  Zn2721  1.940   .     S
O2679  Zn1361  1.940   1_565 S
O2680  Zn2734  1.934   .     S
O2681  Zn2728  1.944   .     S
O2681  C885    1.277   1_565 S
O2682  Zn2051  1.934   1_655 S
O2683  Zn1364  1.942   1_565 S
O2684  Zn2733  1.942   .     S
O2692  Zn2727  1.944   .     S
O2703  Zn2722  1.943   .     S
O2714  Zn2736  1.943   .     S
O2714  C1572   1.280   1_655 S
O2720  Zn2724  1.945   .     S
Zn2723 O1280   1.945   1_565 S
Zn2726 O1975   1.945   1_655 S
Zn2728 O1269   1.947   1_565 S
Zn2736 O1986   1.951   1_655 S
