data_str_m1_o1_o2_pcu_sym.73
_audit_creation_date              2020-01-03
_audit_creation_method            'Materials Studio'
_symmetry_space_group_name_H-M    'P1'
_symmetry_Int_Tables_number       1
_symmetry_cell_setting            triclinic
loop_
_symmetry_equiv_pos_as_xyz
  x,y,z
_cell_length_a                    36.7000
_cell_length_b                    36.7000
_cell_length_c                    34.4022
_cell_angle_alpha                 90.0000
_cell_angle_beta                  90.0000
_cell_angle_gamma                 90.0000
loop_
_atom_site_label
_atom_site_type_symbol
_atom_site_fract_x
_atom_site_fract_y
_atom_site_fract_z
_atom_site_U_iso_or_equiv
_atom_site_adp_type
_atom_site_occupancy
C1     C     0.23579   0.47020   0.04159   0.00000  Uiso   1.00
C2     C     0.01421   0.22020   0.45841   0.00000  Uiso   1.00
C3     C     0.34814   0.40186   0.75000   0.00000  Uiso   1.00
C4     C     0.40185   0.15185   0.25000   0.00000  Uiso   1.00
C5     C     0.09814   0.34814   0.75000   0.00000  Uiso   1.00
C6     C     0.34815   0.40185   0.25000   0.00000  Uiso   1.00
C7     C     0.15186   0.09814   0.75000   0.00000  Uiso   1.00
C8     C     0.09815   0.15185   0.75000   0.00000  Uiso   1.00
C9     C     0.40186   0.34814   0.25000   0.00000  Uiso   1.00
C10    C     0.15185   0.40185   0.75000   0.00000  Uiso   1.00
C11    C     0.34814   0.09814   0.25000   0.00000  Uiso   1.00
C12    C     0.40185   0.34815   0.75000   0.00000  Uiso   1.00
C13    C     0.27980   0.48579   0.54159   0.00000  Uiso   1.00
C14    C     0.09814   0.15186   0.25000   0.00000  Uiso   1.00
C15    C     0.34815   0.09815   0.75000   0.00000  Uiso   1.00
C16    C     0.15186   0.40186   0.25000   0.00000  Uiso   1.00
C17    C     0.25000   0.00000   0.10258   0.00000  Uiso   1.00
C18    C     0.25000   0.00000   0.89742   0.00000  Uiso   1.00
C19    C    -0.00000   0.25000   0.10258   0.00000  Uiso   1.00
C20    C    -0.00000   0.25000   0.89742   0.00000  Uiso   1.00
C21    C    -0.00000   0.25000   0.60258   0.00000  Uiso   1.00
C22    C     0.00000   0.25000   0.39742   0.00000  Uiso   1.00
C23    C     0.25000  -0.00000   0.60258   0.00000  Uiso   1.00
C24    C     0.27980   0.01421   0.45841   0.00000  Uiso   1.00
C25    C     0.25000   0.00000   0.39742   0.00000  Uiso   1.00
C26    C     0.01421   0.27980   0.54159   0.00000  Uiso   1.00
C27    C     0.48579   0.27980   0.45841   0.00000  Uiso   1.00
C28    C     0.22020   0.01421   0.54159   0.00000  Uiso   1.00
C29    C     0.22020   0.48579   0.45841   0.00000  Uiso   1.00
C30    C     0.23565   0.46981   0.08214   0.00000  Uiso   1.00
C31    C     0.26435   0.46981   0.91786   0.00000  Uiso   1.00
C32    C     0.03018   0.23565   0.08214   0.00000  Uiso   1.00
C33    C     0.26421   0.47020   0.95841   0.00000  Uiso   1.00
C34    C     0.03018   0.26435   0.91786   0.00000  Uiso   1.00
C35    C     0.26435   0.03019   0.08214   0.00000  Uiso   1.00
C36    C     0.23565   0.03019   0.91786   0.00000  Uiso   1.00
C37    C     0.46981   0.26435   0.08214   0.00000  Uiso   1.00
C38    C     0.46981   0.23565   0.91786   0.00000  Uiso   1.00
C39    C     0.48565   0.21982   0.58214   0.00000  Uiso   1.00
C40    C     0.01435   0.21981   0.41786   0.00000  Uiso   1.00
C41    C     0.28018   0.48565   0.58214   0.00000  Uiso   1.00
C42    C     0.28018   0.01435   0.41786   0.00000  Uiso   1.00
C43    C     0.01435   0.28018   0.58214   0.00000  Uiso   1.00
C44    C     0.02980   0.23579   0.04159   0.00000  Uiso   1.00
C45    C     0.48565   0.28019   0.41786   0.00000  Uiso   1.00
C46    C     0.21981   0.01435   0.58214   0.00000  Uiso   1.00
C47    C     0.21981   0.48565   0.41786   0.00000  Uiso   1.00
C48    C     0.25000   0.00000   0.02131   0.00000  Uiso   1.00
C49    C     0.25000   0.00000   0.97869   0.00000  Uiso   1.00
C50    C    -0.00000   0.25000   0.02131   0.00000  Uiso   1.00
C51    C    -0.00000   0.25000   0.97869   0.00000  Uiso   1.00
C52    C    -0.00000   0.25000   0.52131   0.00000  Uiso   1.00
C53    C    -0.00000   0.25000   0.47870   0.00000  Uiso   1.00
C54    C     0.25000   0.00000   0.52130   0.00000  Uiso   1.00
C55    C     0.02980   0.26421   0.95841   0.00000  Uiso   1.00
C56    C     0.25000   0.00000   0.47869   0.00000  Uiso   1.00
C57    C     0.25000   0.00000   0.35508   0.00000  Uiso   1.00
C58    C     0.25000  -0.00000   0.64492   0.00000  Uiso   1.00
C59    C     0.00000   0.25000   0.35508   0.00000  Uiso   1.00
C60    C    -0.00000   0.25000   0.64492   0.00000  Uiso   1.00
C61    C     0.00000   0.25000   0.85508   0.00000  Uiso   1.00
C62    C     0.00000   0.25000   0.14492   0.00000  Uiso   1.00
C63    C     0.25000   0.00000   0.85508   0.00000  Uiso   1.00
C64    C     0.25000   0.00000   0.14492   0.00000  Uiso   1.00
C65    C     0.17991   0.07009   0.25000   0.00000  Uiso   1.00
C66    C     0.26421   0.02980   0.04159   0.00000  Uiso   1.00
C67    C     0.32008   0.42992   0.75000   0.00000  Uiso   1.00
C68    C     0.42991   0.17991   0.25000   0.00000  Uiso   1.00
C69    C     0.07008   0.32008   0.75000   0.00000  Uiso   1.00
C70    C     0.32009   0.42991   0.25000   0.00000  Uiso   1.00
C71    C     0.17992   0.07008   0.75000   0.00000  Uiso   1.00
C72    C     0.07009   0.32009   0.25000   0.00000  Uiso   1.00
C73    C     0.42992   0.17992   0.75000   0.00000  Uiso   1.00
C74    C     0.17991   0.42991   0.75000   0.00000  Uiso   1.00
C75    C     0.32008   0.07008   0.25000   0.00000  Uiso   1.00
C76    C     0.42991   0.32009   0.75000   0.00000  Uiso   1.00
C77    C     0.23579   0.02980   0.95841   0.00000  Uiso   1.00
C78    C     0.07008   0.17992   0.25000   0.00000  Uiso   1.00
C79    C     0.32009   0.07009   0.75000   0.00000  Uiso   1.00
C80    C     0.17992   0.42992   0.25000   0.00000  Uiso   1.00
C81    C     0.07009   0.17991   0.75000   0.00000  Uiso   1.00
C82    C     0.42992   0.32008   0.25000   0.00000  Uiso   1.00
C83    C     0.12260   0.40414   0.22393   0.00000  Uiso   1.00
C84    C     0.37743   0.09587   0.77606   0.00000  Uiso   1.00
C85    C     0.09586   0.12260   0.22393   0.00000  Uiso   1.00
C86    C     0.40413   0.37743   0.77606   0.00000  Uiso   1.00
C87    C     0.37740   0.09586   0.22393   0.00000  Uiso   1.00
C88    C     0.47020   0.26421   0.04159   0.00000  Uiso   1.00
C89    C     0.12257   0.40413   0.77606   0.00000  Uiso   1.00
C90    C     0.40414   0.37740   0.22393   0.00000  Uiso   1.00
C91    C     0.09587   0.12257   0.77606   0.00000  Uiso   1.00
C92    C     0.12260   0.09586   0.77607   0.00000  Uiso   1.00
C93    C     0.37743   0.40413   0.22394   0.00000  Uiso   1.00
C94    C     0.09586   0.37740   0.77607   0.00000  Uiso   1.00
C95    C     0.40413   0.12257   0.22394   0.00000  Uiso   1.00
C96    C     0.37740   0.40414   0.77607   0.00000  Uiso   1.00
C97    C     0.12257   0.09587   0.22394   0.00000  Uiso   1.00
C98    C     0.40414   0.12260   0.77607   0.00000  Uiso   1.00
C99    C     0.47020   0.23579   0.95841   0.00000  Uiso   1.00
C100   C     0.09587   0.37743   0.22394   0.00000  Uiso   1.00
C101   C     0.37260   0.15414   0.72393   0.00000  Uiso   1.00
C102   C     0.12743   0.34587   0.27606   0.00000  Uiso   1.00
C103   C     0.34586   0.37260   0.72393   0.00000  Uiso   1.00
C104   C     0.15413   0.12743   0.27606   0.00000  Uiso   1.00
C105   C     0.12740   0.34586   0.72393   0.00000  Uiso   1.00
C106   C     0.37257   0.15413   0.27606   0.00000  Uiso   1.00
C107   C     0.15414   0.12740   0.72393   0.00000  Uiso   1.00
C108   C     0.34587   0.37257   0.27606   0.00000  Uiso   1.00
C109   C     0.37260   0.34586   0.27607   0.00000  Uiso   1.00
C110   C     0.48579   0.22020   0.54159   0.00000  Uiso   1.00
C111   C     0.12743   0.15413   0.72394   0.00000  Uiso   1.00
C112   C     0.34586   0.12740   0.27607   0.00000  Uiso   1.00
C113   C     0.15413   0.37257   0.72394   0.00000  Uiso   1.00
C114   C     0.12740   0.15414   0.27607   0.00000  Uiso   1.00
C115   C     0.37257   0.34587   0.72394   0.00000  Uiso   1.00
C116   C     0.15414   0.37260   0.27607   0.00000  Uiso   1.00
C117   C     0.34587   0.12743   0.72394   0.00000  Uiso   1.00
C118   C     0.09815   0.34815   0.25000   0.00000  Uiso   1.00
C119   C     0.40186   0.15186   0.75000   0.00000  Uiso   1.00
C120   C     0.15185   0.09815   0.25000   0.00000  Uiso   1.00
H121   H     0.22453   0.44741   0.02560   0.00000  Uiso   1.00
H122   H     0.02547   0.19741   0.47440   0.00000  Uiso   1.00
H123   H     0.30259   0.47453   0.52560   0.00000  Uiso   1.00
H124   H     0.30259   0.02547   0.47440   0.00000  Uiso   1.00
H125   H     0.02547   0.30259   0.52560   0.00000  Uiso   1.00
H126   H     0.47453   0.30259   0.47440   0.00000  Uiso   1.00
H127   H     0.19741   0.02547   0.52560   0.00000  Uiso   1.00
H128   H     0.19741   0.47453   0.47440   0.00000  Uiso   1.00
H129   H     0.12035   0.42648   0.20349   0.00000  Uiso   1.00
H130   H     0.37970   0.07352   0.79647   0.00000  Uiso   1.00
H131   H     0.07352   0.12035   0.20349   0.00000  Uiso   1.00
H132   H     0.27547   0.44741   0.97440   0.00000  Uiso   1.00
H133   H     0.42648   0.37970   0.79647   0.00000  Uiso   1.00
H134   H     0.37965   0.07352   0.20349   0.00000  Uiso   1.00
H135   H     0.12030   0.42648   0.79647   0.00000  Uiso   1.00
H136   H     0.42648   0.37965   0.20349   0.00000  Uiso   1.00
H137   H     0.07352   0.12030   0.79647   0.00000  Uiso   1.00
H138   H     0.12035   0.07352   0.79651   0.00000  Uiso   1.00
H139   H     0.37970   0.42648   0.20353   0.00000  Uiso   1.00
H140   H     0.07352   0.37965   0.79651   0.00000  Uiso   1.00
H141   H     0.42648   0.12030   0.20353   0.00000  Uiso   1.00
H142   H     0.37965   0.42648   0.79651   0.00000  Uiso   1.00
H143   H     0.05259   0.22453   0.02560   0.00000  Uiso   1.00
H144   H     0.12030   0.07352   0.20353   0.00000  Uiso   1.00
H145   H     0.42648   0.12035   0.79651   0.00000  Uiso   1.00
H146   H     0.07352   0.37970   0.20353   0.00000  Uiso   1.00
H147   H     0.37035   0.17648   0.70349   0.00000  Uiso   1.00
H148   H     0.12970   0.32352   0.29647   0.00000  Uiso   1.00
H149   H     0.32352   0.37035   0.70349   0.00000  Uiso   1.00
H150   H     0.17648   0.12970   0.29647   0.00000  Uiso   1.00
H151   H     0.12965   0.32352   0.70349   0.00000  Uiso   1.00
H152   H     0.37030   0.17648   0.29647   0.00000  Uiso   1.00
H153   H     0.17648   0.12965   0.70349   0.00000  Uiso   1.00
H154   H     0.05259   0.27547   0.97440   0.00000  Uiso   1.00
H155   H     0.32352   0.37030   0.29647   0.00000  Uiso   1.00
H156   H     0.37035   0.32352   0.29651   0.00000  Uiso   1.00
H157   H     0.12970   0.17648   0.70353   0.00000  Uiso   1.00
H158   H     0.32352   0.12965   0.29651   0.00000  Uiso   1.00
H159   H     0.17648   0.37030   0.70353   0.00000  Uiso   1.00
H160   H     0.12965   0.17648   0.29651   0.00000  Uiso   1.00
H161   H     0.37030   0.32352   0.70353   0.00000  Uiso   1.00
H162   H     0.17648   0.37035   0.29651   0.00000  Uiso   1.00
H163   H     0.32352   0.12970   0.70353   0.00000  Uiso   1.00
H164   H     0.23095   0.40239   0.15953   0.00000  Uiso   1.00
H165   H     0.27547   0.05259   0.02560   0.00000  Uiso   1.00
H166   H     0.26905   0.40239   0.84047   0.00000  Uiso   1.00
H167   H     0.09761   0.23095   0.15953   0.00000  Uiso   1.00
H168   H     0.09761   0.26905   0.84047   0.00000  Uiso   1.00
H169   H     0.26905   0.09761   0.15953   0.00000  Uiso   1.00
H170   H     0.23095   0.09761   0.84047   0.00000  Uiso   1.00
H171   H     0.40239   0.26905   0.15953   0.00000  Uiso   1.00
H172   H     0.40240   0.23095   0.84047   0.00000  Uiso   1.00
H173   H     0.48095   0.15239   0.65953   0.00000  Uiso   1.00
H174   H     0.01904   0.15239   0.34047   0.00000  Uiso   1.00
H175   H     0.34760   0.48095   0.65953   0.00000  Uiso   1.00
H176   H     0.22453   0.05259   0.97440   0.00000  Uiso   1.00
H177   H     0.34761   0.01905   0.34047   0.00000  Uiso   1.00
H178   H     0.01905   0.34761   0.65953   0.00000  Uiso   1.00
H179   H     0.48095   0.34761   0.34047   0.00000  Uiso   1.00
H180   H     0.15239   0.01905   0.65953   0.00000  Uiso   1.00
H181   H     0.15239   0.48095   0.34047   0.00000  Uiso   1.00
H182   H     0.44741   0.27547   0.02560   0.00000  Uiso   1.00
H183   H     0.44741   0.22453   0.97440   0.00000  Uiso   1.00
H184   H     0.47453   0.19741   0.52560   0.00000  Uiso   1.00
O185   O     0.25000   0.00000   0.25000   0.00000  Uiso   1.00
O186   O     0.25000   0.46964   0.66317   0.00000  Uiso   1.00
O187   O     0.16903   0.49561   0.35690   0.00000  Uiso   1.00
O188   O     0.46964   0.25000   0.33683   0.00000  Uiso   1.00
O189   O     0.03036   0.25000   0.66317   0.00000  Uiso   1.00
O190   O     0.00000   0.21964   0.83683   0.00000  Uiso   1.00
O191   O    -0.00000   0.28036   0.16317   0.00000  Uiso   1.00
O192   O     0.28036   0.00000   0.83683   0.00000  Uiso   1.00
O193   O     0.21964   0.00000   0.16317   0.00000  Uiso   1.00
O194   O     0.00000   0.28036   0.83683   0.00000  Uiso   1.00
O195   O    -0.00000   0.21964   0.16317   0.00000  Uiso   1.00
O196   O     0.21964   0.00000   0.83683   0.00000  Uiso   1.00
O197   O     0.25000   0.00000   0.75000   0.00000  Uiso   1.00
O198   O     0.28036   0.00000   0.16317   0.00000  Uiso   1.00
O199   O     0.20725   0.07307   0.27282   0.00000  Uiso   1.00
O200   O     0.29274   0.42693   0.72718   0.00000  Uiso   1.00
O201   O     0.42693   0.20726   0.27282   0.00000  Uiso   1.00
O202   O     0.07307   0.29274   0.72718   0.00000  Uiso   1.00
O203   O     0.29274   0.42693   0.27282   0.00000  Uiso   1.00
O204   O     0.20725   0.07307   0.72718   0.00000  Uiso   1.00
O205   O     0.07307   0.29274   0.27282   0.00000  Uiso   1.00
O206   O     0.42693   0.20726   0.72718   0.00000  Uiso   1.00
O207   O     0.20725   0.42693   0.72718   0.00000  Uiso   1.00
O208   O    -0.00000   0.25000   0.25000   0.00000  Uiso   1.00
O209   O     0.29274   0.07307   0.27282   0.00000  Uiso   1.00
O210   O     0.42693   0.29275   0.72718   0.00000  Uiso   1.00
O211   O     0.07307   0.20725   0.27282   0.00000  Uiso   1.00
O212   O     0.29274   0.07307   0.72718   0.00000  Uiso   1.00
O213   O     0.20725   0.42693   0.27282   0.00000  Uiso   1.00
O214   O     0.07307   0.20725   0.72718   0.00000  Uiso   1.00
O215   O     0.42693   0.29275   0.27282   0.00000  Uiso   1.00
O216   O     0.45725   0.32307   0.77282   0.00000  Uiso   1.00
O217   O     0.04274   0.17693   0.22718   0.00000  Uiso   1.00
O218   O     0.17693   0.45725   0.77282   0.00000  Uiso   1.00
O219   O     0.00000   0.25000   0.75000   0.00000  Uiso   1.00
O220   O     0.32307   0.04275   0.22718   0.00000  Uiso   1.00
O221   O     0.04274   0.17693   0.77282   0.00000  Uiso   1.00
O222   O     0.45725   0.32307   0.22718   0.00000  Uiso   1.00
O223   O     0.32307   0.04275   0.77282   0.00000  Uiso   1.00
O224   O     0.17693   0.45725   0.22718   0.00000  Uiso   1.00
O225   O     0.45725   0.17693   0.22718   0.00000  Uiso   1.00
O226   O     0.04274   0.32307   0.77282   0.00000  Uiso   1.00
O227   O     0.17693   0.04275   0.22718   0.00000  Uiso   1.00
O228   O     0.32307   0.45725   0.77282   0.00000  Uiso   1.00
O229   O     0.04274   0.32307   0.22718   0.00000  Uiso   1.00
O230   O     0.25000   0.46964   0.33683   0.00000  Uiso   1.00
O231   O     0.45725   0.17693   0.77282   0.00000  Uiso   1.00
O232   O     0.32307   0.45725   0.22718   0.00000  Uiso   1.00
O233   O     0.17693   0.04275   0.77282   0.00000  Uiso   1.00
O234   O     0.18091   0.44052   0.12256   0.00000  Uiso   1.00
O235   O     0.21405   0.39960   0.07877   0.00000  Uiso   1.00
O236   O     0.24561   0.41903   0.14310   0.00000  Uiso   1.00
O237   O     0.31909   0.44052   0.87744   0.00000  Uiso   1.00
O238   O     0.28595   0.39960   0.92123   0.00000  Uiso   1.00
O239   O     0.25439   0.41903   0.85690   0.00000  Uiso   1.00
O240   O     0.05948   0.18091   0.12256   0.00000  Uiso   1.00
O241   O     0.25000   0.03036   0.66317   0.00000  Uiso   1.00
O242   O     0.10040   0.21405   0.07877   0.00000  Uiso   1.00
O243   O     0.08097   0.24561   0.14310   0.00000  Uiso   1.00
O244   O     0.05948   0.31909   0.87744   0.00000  Uiso   1.00
O245   O     0.10040   0.28595   0.92123   0.00000  Uiso   1.00
O246   O     0.08097   0.25439   0.85690   0.00000  Uiso   1.00
O247   O     0.31909   0.05948   0.12256   0.00000  Uiso   1.00
O248   O     0.28595   0.10040   0.07877   0.00000  Uiso   1.00
O249   O     0.25439   0.08097   0.14310   0.00000  Uiso   1.00
O250   O     0.18091   0.05948   0.87744   0.00000  Uiso   1.00
O251   O     0.21405   0.10040   0.92123   0.00000  Uiso   1.00
O252   O     0.03036   0.25000   0.33683   0.00000  Uiso   1.00
O253   O     0.24561   0.08097   0.85690   0.00000  Uiso   1.00
O254   O     0.44051   0.31909   0.12256   0.00000  Uiso   1.00
O255   O     0.39960   0.28595   0.07877   0.00000  Uiso   1.00
O256   O     0.41903   0.25439   0.14310   0.00000  Uiso   1.00
O257   O     0.44052   0.18091   0.87744   0.00000  Uiso   1.00
O258   O     0.39960   0.21405   0.92123   0.00000  Uiso   1.00
O259   O     0.41903   0.24561   0.85690   0.00000  Uiso   1.00
O260   O     0.43091   0.19052   0.62256   0.00000  Uiso   1.00
O261   O     0.46405   0.14960   0.57877   0.00000  Uiso   1.00
O262   O     0.49561   0.16903   0.64310   0.00000  Uiso   1.00
O263   O     0.46964   0.25000   0.66317   0.00000  Uiso   1.00
O264   O     0.06909   0.19051   0.37744   0.00000  Uiso   1.00
O265   O     0.03595   0.14960   0.42123   0.00000  Uiso   1.00
O266   O     0.00439   0.16903   0.35690   0.00000  Uiso   1.00
O267   O     0.30948   0.43091   0.62256   0.00000  Uiso   1.00
O268   O     0.35040   0.46405   0.57877   0.00000  Uiso   1.00
O269   O     0.33097   0.49561   0.64310   0.00000  Uiso   1.00
O270   O     0.30948   0.06909   0.37744   0.00000  Uiso   1.00
O271   O     0.35040   0.03595   0.42123   0.00000  Uiso   1.00
O272   O     0.33097   0.00439   0.35690   0.00000  Uiso   1.00
O273   O     0.06909   0.30948   0.62256   0.00000  Uiso   1.00
O274   O     0.25000   0.03036   0.33683   0.00000  Uiso   1.00
O275   O     0.03595   0.35040   0.57877   0.00000  Uiso   1.00
O276   O     0.00439   0.33097   0.64310   0.00000  Uiso   1.00
O277   O     0.43091   0.30949   0.37744   0.00000  Uiso   1.00
O278   O     0.46405   0.35040   0.42123   0.00000  Uiso   1.00
O279   O     0.49561   0.33097   0.35690   0.00000  Uiso   1.00
O280   O     0.19052   0.06909   0.62256   0.00000  Uiso   1.00
O281   O     0.14960   0.03595   0.57877   0.00000  Uiso   1.00
O282   O     0.16903   0.00439   0.64310   0.00000  Uiso   1.00
O283   O     0.19052   0.43091   0.37744   0.00000  Uiso   1.00
O284   O     0.14960   0.46405   0.42123   0.00000  Uiso   1.00
S285   S     0.21779   0.43109   0.10642   0.00000  Uiso   1.00
S286   S     0.03221   0.18109   0.39358   0.00000  Uiso   1.00
S287   S     0.31891   0.46779   0.60642   0.00000  Uiso   1.00
S288   S     0.31891   0.03221   0.39358   0.00000  Uiso   1.00
S289   S     0.03221   0.31891   0.60642   0.00000  Uiso   1.00
S290   S     0.46779   0.31891   0.39358   0.00000  Uiso   1.00
S291   S     0.18109   0.03221   0.60642   0.00000  Uiso   1.00
S292   S     0.18109   0.46779   0.39358   0.00000  Uiso   1.00
S293   S     0.28221   0.43109   0.89358   0.00000  Uiso   1.00
S294   S     0.06891   0.21779   0.10642   0.00000  Uiso   1.00
S295   S     0.06891   0.28221   0.89358   0.00000  Uiso   1.00
S296   S     0.28221   0.06891   0.10642   0.00000  Uiso   1.00
S297   S     0.21779   0.06891   0.89358   0.00000  Uiso   1.00
S298   S     0.43109   0.28221   0.10642   0.00000  Uiso   1.00
S299   S     0.43109   0.21779   0.89358   0.00000  Uiso   1.00
S300   S     0.46779   0.18109   0.60642   0.00000  Uiso   1.00
Zn301  Zn    0.20660   0.00000   0.21760   0.00000  Uiso   1.00
Zn302  Zn    0.04340   0.25000   0.28240   0.00000  Uiso   1.00
Zn303  Zn    0.25000   0.45660   0.71760   0.00000  Uiso   1.00
Zn304  Zn    0.25000   0.04340   0.28240   0.00000  Uiso   1.00
Zn305  Zn    0.04340   0.25000   0.71760   0.00000  Uiso   1.00
Zn306  Zn    0.45660   0.25000   0.28240   0.00000  Uiso   1.00
Zn307  Zn    0.25000   0.04340   0.71760   0.00000  Uiso   1.00
Zn308  Zn    0.25000   0.45660   0.28240   0.00000  Uiso   1.00
Zn309  Zn    0.29340   0.00000   0.78240   0.00000  Uiso   1.00
Zn310  Zn   -0.00000   0.20660   0.21760   0.00000  Uiso   1.00
Zn311  Zn    0.00000   0.29340   0.78240   0.00000  Uiso   1.00
Zn312  Zn    0.29340   0.00000   0.21760   0.00000  Uiso   1.00
Zn313  Zn    0.20660   0.00000   0.78240   0.00000  Uiso   1.00
Zn314  Zn    0.00000   0.29340   0.21760   0.00000  Uiso   1.00
Zn315  Zn    0.00000   0.20660   0.78240   0.00000  Uiso   1.00
Zn316  Zn    0.45660   0.25000   0.71760   0.00000  Uiso   1.00
C317   C     0.73579   0.47020   0.04159   0.00000  Uiso   1.00
C318   C     0.51421   0.22020   0.45841   0.00000  Uiso   1.00
C319   C     0.84814   0.40186   0.75000   0.00000  Uiso   1.00
C320   C     0.90185   0.15185   0.25000   0.00000  Uiso   1.00
C321   C     0.59814   0.34814   0.75000   0.00000  Uiso   1.00
C322   C     0.84815   0.40185   0.25000   0.00000  Uiso   1.00
C323   C     0.65186   0.09814   0.75000   0.00000  Uiso   1.00
C324   C     0.59815   0.15185   0.75000   0.00000  Uiso   1.00
C325   C     0.90186   0.34814   0.25000   0.00000  Uiso   1.00
C326   C     0.65185   0.40185   0.75000   0.00000  Uiso   1.00
C327   C     0.84814   0.09814   0.25000   0.00000  Uiso   1.00
C328   C     0.90185   0.34815   0.75000   0.00000  Uiso   1.00
C329   C     0.77980   0.48579   0.54159   0.00000  Uiso   1.00
C330   C     0.59814   0.15186   0.25000   0.00000  Uiso   1.00
C331   C     0.84815   0.09815   0.75000   0.00000  Uiso   1.00
C332   C     0.65186   0.40186   0.25000   0.00000  Uiso   1.00
C333   C     0.75000   0.00000   0.10258   0.00000  Uiso   1.00
C334   C     0.75000   0.00000   0.89742   0.00000  Uiso   1.00
C335   C     0.50000   0.25000   0.10258   0.00000  Uiso   1.00
C336   C     0.50000   0.25000   0.89742   0.00000  Uiso   1.00
C337   C     0.50000   0.25000   0.60258   0.00000  Uiso   1.00
C338   C     0.50000   0.25000   0.39742   0.00000  Uiso   1.00
C339   C     0.75000  -0.00000   0.60258   0.00000  Uiso   1.00
C340   C     0.77980   0.01421   0.45841   0.00000  Uiso   1.00
C341   C     0.75000   0.00000   0.39742   0.00000  Uiso   1.00
C342   C     0.51421   0.27980   0.54159   0.00000  Uiso   1.00
C343   C     0.98579   0.27980   0.45841   0.00000  Uiso   1.00
C344   C     0.72020   0.01421   0.54159   0.00000  Uiso   1.00
C345   C     0.72020   0.48579   0.45841   0.00000  Uiso   1.00
C346   C     0.73565   0.46981   0.08214   0.00000  Uiso   1.00
C347   C     0.76435   0.46981   0.91786   0.00000  Uiso   1.00
C348   C     0.53018   0.23565   0.08214   0.00000  Uiso   1.00
C349   C     0.76421   0.47020   0.95841   0.00000  Uiso   1.00
C350   C     0.53018   0.26435   0.91786   0.00000  Uiso   1.00
C351   C     0.76435   0.03019   0.08214   0.00000  Uiso   1.00
C352   C     0.73565   0.03019   0.91786   0.00000  Uiso   1.00
C353   C     0.96981   0.26435   0.08214   0.00000  Uiso   1.00
C354   C     0.96981   0.23565   0.91786   0.00000  Uiso   1.00
C355   C     0.98565   0.21982   0.58214   0.00000  Uiso   1.00
C356   C     0.51435   0.21981   0.41786   0.00000  Uiso   1.00
C357   C     0.78018   0.48565   0.58214   0.00000  Uiso   1.00
C358   C     0.78018   0.01435   0.41786   0.00000  Uiso   1.00
C359   C     0.51435   0.28018   0.58214   0.00000  Uiso   1.00
C360   C     0.52980   0.23579   0.04159   0.00000  Uiso   1.00
C361   C     0.98565   0.28019   0.41786   0.00000  Uiso   1.00
C362   C     0.71981   0.01435   0.58214   0.00000  Uiso   1.00
C363   C     0.71981   0.48565   0.41786   0.00000  Uiso   1.00
C364   C     0.75000   0.00000   0.02131   0.00000  Uiso   1.00
C365   C     0.75000   0.00000   0.97869   0.00000  Uiso   1.00
C366   C     0.50000   0.25000   0.02131   0.00000  Uiso   1.00
C367   C     0.50000   0.25000   0.97869   0.00000  Uiso   1.00
C368   C     0.50000   0.25000   0.52131   0.00000  Uiso   1.00
C369   C     0.50000   0.25000   0.47870   0.00000  Uiso   1.00
C370   C     0.75000   0.00000   0.52130   0.00000  Uiso   1.00
C371   C     0.52980   0.26421   0.95841   0.00000  Uiso   1.00
C372   C     0.75000   0.00000   0.47869   0.00000  Uiso   1.00
C373   C     0.75000   0.00000   0.35508   0.00000  Uiso   1.00
C374   C     0.75000  -0.00000   0.64492   0.00000  Uiso   1.00
C375   C     0.50000   0.25000   0.35508   0.00000  Uiso   1.00
C376   C     0.50000   0.25000   0.64492   0.00000  Uiso   1.00
C377   C     0.50000   0.25000   0.85508   0.00000  Uiso   1.00
C378   C     0.50000   0.25000   0.14492   0.00000  Uiso   1.00
C379   C     0.75000   0.00000   0.85508   0.00000  Uiso   1.00
C380   C     0.75000   0.00000   0.14492   0.00000  Uiso   1.00
C381   C     0.67991   0.07009   0.25000   0.00000  Uiso   1.00
C382   C     0.76421   0.02980   0.04159   0.00000  Uiso   1.00
C383   C     0.82008   0.42992   0.75000   0.00000  Uiso   1.00
C384   C     0.92991   0.17991   0.25000   0.00000  Uiso   1.00
C385   C     0.57008   0.32008   0.75000   0.00000  Uiso   1.00
C386   C     0.82009   0.42991   0.25000   0.00000  Uiso   1.00
C387   C     0.67992   0.07008   0.75000   0.00000  Uiso   1.00
C388   C     0.57009   0.32009   0.25000   0.00000  Uiso   1.00
C389   C     0.92992   0.17992   0.75000   0.00000  Uiso   1.00
C390   C     0.67991   0.42991   0.75000   0.00000  Uiso   1.00
C391   C     0.82008   0.07008   0.25000   0.00000  Uiso   1.00
C392   C     0.92991   0.32009   0.75000   0.00000  Uiso   1.00
C393   C     0.73579   0.02980   0.95841   0.00000  Uiso   1.00
C394   C     0.57008   0.17992   0.25000   0.00000  Uiso   1.00
C395   C     0.82009   0.07009   0.75000   0.00000  Uiso   1.00
C396   C     0.67992   0.42992   0.25000   0.00000  Uiso   1.00
C397   C     0.57009   0.17991   0.75000   0.00000  Uiso   1.00
C398   C     0.92992   0.32008   0.25000   0.00000  Uiso   1.00
C399   C     0.62260   0.40414   0.22393   0.00000  Uiso   1.00
C400   C     0.87743   0.09587   0.77606   0.00000  Uiso   1.00
C401   C     0.59586   0.12260   0.22393   0.00000  Uiso   1.00
C402   C     0.90413   0.37743   0.77606   0.00000  Uiso   1.00
C403   C     0.87740   0.09586   0.22393   0.00000  Uiso   1.00
C404   C     0.97020   0.26421   0.04159   0.00000  Uiso   1.00
C405   C     0.62257   0.40413   0.77606   0.00000  Uiso   1.00
C406   C     0.90414   0.37740   0.22393   0.00000  Uiso   1.00
C407   C     0.59587   0.12257   0.77606   0.00000  Uiso   1.00
C408   C     0.62260   0.09586   0.77607   0.00000  Uiso   1.00
C409   C     0.87743   0.40413   0.22394   0.00000  Uiso   1.00
C410   C     0.59586   0.37740   0.77607   0.00000  Uiso   1.00
C411   C     0.90413   0.12257   0.22394   0.00000  Uiso   1.00
C412   C     0.87740   0.40414   0.77607   0.00000  Uiso   1.00
C413   C     0.62257   0.09587   0.22394   0.00000  Uiso   1.00
C414   C     0.90414   0.12260   0.77607   0.00000  Uiso   1.00
C415   C     0.97020   0.23579   0.95841   0.00000  Uiso   1.00
C416   C     0.59587   0.37743   0.22394   0.00000  Uiso   1.00
C417   C     0.87260   0.15414   0.72393   0.00000  Uiso   1.00
C418   C     0.62743   0.34587   0.27606   0.00000  Uiso   1.00
C419   C     0.84586   0.37260   0.72393   0.00000  Uiso   1.00
C420   C     0.65413   0.12743   0.27606   0.00000  Uiso   1.00
C421   C     0.62740   0.34586   0.72393   0.00000  Uiso   1.00
C422   C     0.87257   0.15413   0.27606   0.00000  Uiso   1.00
C423   C     0.65414   0.12740   0.72393   0.00000  Uiso   1.00
C424   C     0.84587   0.37257   0.27606   0.00000  Uiso   1.00
C425   C     0.87260   0.34586   0.27607   0.00000  Uiso   1.00
C426   C     0.98579   0.22020   0.54159   0.00000  Uiso   1.00
C427   C     0.62743   0.15413   0.72394   0.00000  Uiso   1.00
C428   C     0.84586   0.12740   0.27607   0.00000  Uiso   1.00
C429   C     0.65413   0.37257   0.72394   0.00000  Uiso   1.00
C430   C     0.62740   0.15414   0.27607   0.00000  Uiso   1.00
C431   C     0.87257   0.34587   0.72394   0.00000  Uiso   1.00
C432   C     0.65414   0.37260   0.27607   0.00000  Uiso   1.00
C433   C     0.84587   0.12743   0.72394   0.00000  Uiso   1.00
C434   C     0.59815   0.34815   0.25000   0.00000  Uiso   1.00
C435   C     0.90186   0.15186   0.75000   0.00000  Uiso   1.00
C436   C     0.65185   0.09815   0.25000   0.00000  Uiso   1.00
H437   H     0.72453   0.44741   0.02560   0.00000  Uiso   1.00
H438   H     0.52547   0.19741   0.47440   0.00000  Uiso   1.00
H439   H     0.80259   0.47453   0.52560   0.00000  Uiso   1.00
H440   H     0.80259   0.02547   0.47440   0.00000  Uiso   1.00
H441   H     0.52547   0.30259   0.52560   0.00000  Uiso   1.00
H442   H     0.97453   0.30259   0.47440   0.00000  Uiso   1.00
H443   H     0.69741   0.02547   0.52560   0.00000  Uiso   1.00
H444   H     0.69741   0.47453   0.47440   0.00000  Uiso   1.00
H445   H     0.62035   0.42648   0.20349   0.00000  Uiso   1.00
H446   H     0.87970   0.07352   0.79647   0.00000  Uiso   1.00
H447   H     0.57352   0.12035   0.20349   0.00000  Uiso   1.00
H448   H     0.77547   0.44741   0.97440   0.00000  Uiso   1.00
H449   H     0.92648   0.37970   0.79647   0.00000  Uiso   1.00
H450   H     0.87965   0.07352   0.20349   0.00000  Uiso   1.00
H451   H     0.62030   0.42648   0.79647   0.00000  Uiso   1.00
H452   H     0.92648   0.37965   0.20349   0.00000  Uiso   1.00
H453   H     0.57352   0.12030   0.79647   0.00000  Uiso   1.00
H454   H     0.62035   0.07352   0.79651   0.00000  Uiso   1.00
H455   H     0.87970   0.42648   0.20353   0.00000  Uiso   1.00
H456   H     0.57352   0.37965   0.79651   0.00000  Uiso   1.00
H457   H     0.92648   0.12030   0.20353   0.00000  Uiso   1.00
H458   H     0.87965   0.42648   0.79651   0.00000  Uiso   1.00
H459   H     0.55259   0.22453   0.02560   0.00000  Uiso   1.00
H460   H     0.62030   0.07352   0.20353   0.00000  Uiso   1.00
H461   H     0.92648   0.12035   0.79651   0.00000  Uiso   1.00
H462   H     0.57352   0.37970   0.20353   0.00000  Uiso   1.00
H463   H     0.87035   0.17648   0.70349   0.00000  Uiso   1.00
H464   H     0.62970   0.32352   0.29647   0.00000  Uiso   1.00
H465   H     0.82352   0.37035   0.70349   0.00000  Uiso   1.00
H466   H     0.67648   0.12970   0.29647   0.00000  Uiso   1.00
H467   H     0.62965   0.32352   0.70349   0.00000  Uiso   1.00
H468   H     0.87030   0.17648   0.29647   0.00000  Uiso   1.00
H469   H     0.67648   0.12965   0.70349   0.00000  Uiso   1.00
H470   H     0.55259   0.27547   0.97440   0.00000  Uiso   1.00
H471   H     0.82352   0.37030   0.29647   0.00000  Uiso   1.00
H472   H     0.87035   0.32352   0.29651   0.00000  Uiso   1.00
H473   H     0.62970   0.17648   0.70353   0.00000  Uiso   1.00
H474   H     0.82352   0.12965   0.29651   0.00000  Uiso   1.00
H475   H     0.67648   0.37030   0.70353   0.00000  Uiso   1.00
H476   H     0.62965   0.17648   0.29651   0.00000  Uiso   1.00
H477   H     0.87030   0.32352   0.70353   0.00000  Uiso   1.00
H478   H     0.67648   0.37035   0.29651   0.00000  Uiso   1.00
H479   H     0.82352   0.12970   0.70353   0.00000  Uiso   1.00
H480   H     0.73095   0.40239   0.15953   0.00000  Uiso   1.00
H481   H     0.77547   0.05259   0.02560   0.00000  Uiso   1.00
H482   H     0.76905   0.40239   0.84047   0.00000  Uiso   1.00
H483   H     0.59761   0.23095   0.15953   0.00000  Uiso   1.00
H484   H     0.59761   0.26905   0.84047   0.00000  Uiso   1.00
H485   H     0.76905   0.09761   0.15953   0.00000  Uiso   1.00
H486   H     0.73095   0.09761   0.84047   0.00000  Uiso   1.00
H487   H     0.90239   0.26905   0.15953   0.00000  Uiso   1.00
H488   H     0.90240   0.23095   0.84047   0.00000  Uiso   1.00
H489   H     0.98095   0.15239   0.65953   0.00000  Uiso   1.00
H490   H     0.51904   0.15239   0.34047   0.00000  Uiso   1.00
H491   H     0.84760   0.48095   0.65953   0.00000  Uiso   1.00
H492   H     0.72453   0.05259   0.97440   0.00000  Uiso   1.00
H493   H     0.84761   0.01905   0.34047   0.00000  Uiso   1.00
H494   H     0.51905   0.34761   0.65953   0.00000  Uiso   1.00
H495   H     0.98095   0.34761   0.34047   0.00000  Uiso   1.00
H496   H     0.65239   0.01905   0.65953   0.00000  Uiso   1.00
H497   H     0.65239   0.48095   0.34047   0.00000  Uiso   1.00
H498   H     0.94741   0.27547   0.02560   0.00000  Uiso   1.00
H499   H     0.94741   0.22453   0.97440   0.00000  Uiso   1.00
H500   H     0.97453   0.19741   0.52560   0.00000  Uiso   1.00
O501   O     0.75000   0.00000   0.25000   0.00000  Uiso   1.00
O502   O     0.75000   0.46964   0.66317   0.00000  Uiso   1.00
O503   O     0.66903   0.49561   0.35690   0.00000  Uiso   1.00
O504   O     0.96964   0.25000   0.33683   0.00000  Uiso   1.00
O505   O     0.53036   0.25000   0.66317   0.00000  Uiso   1.00
O506   O     0.50000   0.21964   0.83683   0.00000  Uiso   1.00
O507   O     0.50000   0.28036   0.16317   0.00000  Uiso   1.00
O508   O     0.78036   0.00000   0.83683   0.00000  Uiso   1.00
O509   O     0.71964   0.00000   0.16317   0.00000  Uiso   1.00
O510   O     0.50000   0.28036   0.83683   0.00000  Uiso   1.00
O511   O     0.50000   0.21964   0.16317   0.00000  Uiso   1.00
O512   O     0.71964   0.00000   0.83683   0.00000  Uiso   1.00
O513   O     0.75000   0.00000   0.75000   0.00000  Uiso   1.00
O514   O     0.78036   0.00000   0.16317   0.00000  Uiso   1.00
O515   O     0.70725   0.07307   0.27282   0.00000  Uiso   1.00
O516   O     0.79274   0.42693   0.72718   0.00000  Uiso   1.00
O517   O     0.92693   0.20726   0.27282   0.00000  Uiso   1.00
O518   O     0.57307   0.29274   0.72718   0.00000  Uiso   1.00
O519   O     0.79274   0.42693   0.27282   0.00000  Uiso   1.00
O520   O     0.70725   0.07307   0.72718   0.00000  Uiso   1.00
O521   O     0.57307   0.29274   0.27282   0.00000  Uiso   1.00
O522   O     0.92693   0.20726   0.72718   0.00000  Uiso   1.00
O523   O     0.70725   0.42693   0.72718   0.00000  Uiso   1.00
O524   O     0.50000   0.25000   0.25000   0.00000  Uiso   1.00
O525   O     0.79274   0.07307   0.27282   0.00000  Uiso   1.00
O526   O     0.92693   0.29275   0.72718   0.00000  Uiso   1.00
O527   O     0.57307   0.20725   0.27282   0.00000  Uiso   1.00
O528   O     0.79274   0.07307   0.72718   0.00000  Uiso   1.00
O529   O     0.70725   0.42693   0.27282   0.00000  Uiso   1.00
O530   O     0.57307   0.20725   0.72718   0.00000  Uiso   1.00
O531   O     0.92693   0.29275   0.27282   0.00000  Uiso   1.00
O532   O     0.95725   0.32307   0.77282   0.00000  Uiso   1.00
O533   O     0.54274   0.17693   0.22718   0.00000  Uiso   1.00
O534   O     0.67693   0.45725   0.77282   0.00000  Uiso   1.00
O535   O     0.50000   0.25000   0.75000   0.00000  Uiso   1.00
O536   O     0.82307   0.04275   0.22718   0.00000  Uiso   1.00
O537   O     0.54274   0.17693   0.77282   0.00000  Uiso   1.00
O538   O     0.95725   0.32307   0.22718   0.00000  Uiso   1.00
O539   O     0.82307   0.04275   0.77282   0.00000  Uiso   1.00
O540   O     0.67693   0.45725   0.22718   0.00000  Uiso   1.00
O541   O     0.95725   0.17693   0.22718   0.00000  Uiso   1.00
O542   O     0.54274   0.32307   0.77282   0.00000  Uiso   1.00
O543   O     0.67693   0.04275   0.22718   0.00000  Uiso   1.00
O544   O     0.82307   0.45725   0.77282   0.00000  Uiso   1.00
O545   O     0.54274   0.32307   0.22718   0.00000  Uiso   1.00
O546   O     0.75000   0.46964   0.33683   0.00000  Uiso   1.00
O547   O     0.95725   0.17693   0.77282   0.00000  Uiso   1.00
O548   O     0.82307   0.45725   0.22718   0.00000  Uiso   1.00
O549   O     0.67693   0.04275   0.77282   0.00000  Uiso   1.00
O550   O     0.68091   0.44052   0.12256   0.00000  Uiso   1.00
O551   O     0.71405   0.39960   0.07877   0.00000  Uiso   1.00
O552   O     0.74561   0.41903   0.14310   0.00000  Uiso   1.00
O553   O     0.81909   0.44052   0.87744   0.00000  Uiso   1.00
O554   O     0.78595   0.39960   0.92123   0.00000  Uiso   1.00
O555   O     0.75439   0.41903   0.85690   0.00000  Uiso   1.00
O556   O     0.55948   0.18091   0.12256   0.00000  Uiso   1.00
O557   O     0.75000   0.03036   0.66317   0.00000  Uiso   1.00
O558   O     0.60040   0.21405   0.07877   0.00000  Uiso   1.00
O559   O     0.58097   0.24561   0.14310   0.00000  Uiso   1.00
O560   O     0.55948   0.31909   0.87744   0.00000  Uiso   1.00
O561   O     0.60040   0.28595   0.92123   0.00000  Uiso   1.00
O562   O     0.58097   0.25439   0.85690   0.00000  Uiso   1.00
O563   O     0.81909   0.05948   0.12256   0.00000  Uiso   1.00
O564   O     0.78595   0.10040   0.07877   0.00000  Uiso   1.00
O565   O     0.75439   0.08097   0.14310   0.00000  Uiso   1.00
O566   O     0.68091   0.05948   0.87744   0.00000  Uiso   1.00
O567   O     0.71405   0.10040   0.92123   0.00000  Uiso   1.00
O568   O     0.53036   0.25000   0.33683   0.00000  Uiso   1.00
O569   O     0.74561   0.08097   0.85690   0.00000  Uiso   1.00
O570   O     0.94051   0.31909   0.12256   0.00000  Uiso   1.00
O571   O     0.89960   0.28595   0.07877   0.00000  Uiso   1.00
O572   O     0.91903   0.25439   0.14310   0.00000  Uiso   1.00
O573   O     0.94052   0.18091   0.87744   0.00000  Uiso   1.00
O574   O     0.89960   0.21405   0.92123   0.00000  Uiso   1.00
O575   O     0.91903   0.24561   0.85690   0.00000  Uiso   1.00
O576   O     0.93091   0.19052   0.62256   0.00000  Uiso   1.00
O577   O     0.96405   0.14960   0.57877   0.00000  Uiso   1.00
O578   O     0.99561   0.16903   0.64310   0.00000  Uiso   1.00
O579   O     0.96964   0.25000   0.66317   0.00000  Uiso   1.00
O580   O     0.56909   0.19051   0.37744   0.00000  Uiso   1.00
O581   O     0.53595   0.14960   0.42123   0.00000  Uiso   1.00
O582   O     0.50439   0.16903   0.35690   0.00000  Uiso   1.00
O583   O     0.80948   0.43091   0.62256   0.00000  Uiso   1.00
O584   O     0.85040   0.46405   0.57877   0.00000  Uiso   1.00
O585   O     0.83097   0.49561   0.64310   0.00000  Uiso   1.00
O586   O     0.80948   0.06909   0.37744   0.00000  Uiso   1.00
O587   O     0.85040   0.03595   0.42123   0.00000  Uiso   1.00
O588   O     0.83097   0.00439   0.35690   0.00000  Uiso   1.00
O589   O     0.56909   0.30948   0.62256   0.00000  Uiso   1.00
O590   O     0.75000   0.03036   0.33683   0.00000  Uiso   1.00
O591   O     0.53595   0.35040   0.57877   0.00000  Uiso   1.00
O592   O     0.50439   0.33097   0.64310   0.00000  Uiso   1.00
O593   O     0.93091   0.30949   0.37744   0.00000  Uiso   1.00
O594   O     0.96405   0.35040   0.42123   0.00000  Uiso   1.00
O595   O     0.99561   0.33097   0.35690   0.00000  Uiso   1.00
O596   O     0.69052   0.06909   0.62256   0.00000  Uiso   1.00
O597   O     0.64960   0.03595   0.57877   0.00000  Uiso   1.00
O598   O     0.66903   0.00439   0.64310   0.00000  Uiso   1.00
O599   O     0.69052   0.43091   0.37744   0.00000  Uiso   1.00
O600   O     0.64960   0.46405   0.42123   0.00000  Uiso   1.00
S601   S     0.71779   0.43109   0.10642   0.00000  Uiso   1.00
S602   S     0.53221   0.18109   0.39358   0.00000  Uiso   1.00
S603   S     0.81891   0.46779   0.60642   0.00000  Uiso   1.00
S604   S     0.81891   0.03221   0.39358   0.00000  Uiso   1.00
S605   S     0.53221   0.31891   0.60642   0.00000  Uiso   1.00
S606   S     0.96779   0.31891   0.39358   0.00000  Uiso   1.00
S607   S     0.68109   0.03221   0.60642   0.00000  Uiso   1.00
S608   S     0.68109   0.46779   0.39358   0.00000  Uiso   1.00
S609   S     0.78221   0.43109   0.89358   0.00000  Uiso   1.00
S610   S     0.56891   0.21779   0.10642   0.00000  Uiso   1.00
S611   S     0.56891   0.28221   0.89358   0.00000  Uiso   1.00
S612   S     0.78221   0.06891   0.10642   0.00000  Uiso   1.00
S613   S     0.71779   0.06891   0.89358   0.00000  Uiso   1.00
S614   S     0.93109   0.28221   0.10642   0.00000  Uiso   1.00
S615   S     0.93109   0.21779   0.89358   0.00000  Uiso   1.00
S616   S     0.96779   0.18109   0.60642   0.00000  Uiso   1.00
Zn617  Zn    0.70660   0.00000   0.21760   0.00000  Uiso   1.00
Zn618  Zn    0.54340   0.25000   0.28240   0.00000  Uiso   1.00
Zn619  Zn    0.75000   0.45660   0.71760   0.00000  Uiso   1.00
Zn620  Zn    0.75000   0.04340   0.28240   0.00000  Uiso   1.00
Zn621  Zn    0.54340   0.25000   0.71760   0.00000  Uiso   1.00
Zn622  Zn    0.95660   0.25000   0.28240   0.00000  Uiso   1.00
Zn623  Zn    0.75000   0.04340   0.71760   0.00000  Uiso   1.00
Zn624  Zn    0.75000   0.45660   0.28240   0.00000  Uiso   1.00
Zn625  Zn    0.79340   0.00000   0.78240   0.00000  Uiso   1.00
Zn626  Zn    0.50000   0.20660   0.21760   0.00000  Uiso   1.00
Zn627  Zn    0.50000   0.29340   0.78240   0.00000  Uiso   1.00
Zn628  Zn    0.79340   0.00000   0.21760   0.00000  Uiso   1.00
Zn629  Zn    0.70660   0.00000   0.78240   0.00000  Uiso   1.00
Zn630  Zn    0.50000   0.29340   0.21760   0.00000  Uiso   1.00
Zn631  Zn    0.50000   0.20660   0.78240   0.00000  Uiso   1.00
Zn632  Zn    0.95660   0.25000   0.71760   0.00000  Uiso   1.00
C633   C     0.23579   0.97020   0.04159   0.00000  Uiso   1.00
C634   C     0.01421   0.72020   0.45841   0.00000  Uiso   1.00
C635   C     0.34814   0.90186   0.75000   0.00000  Uiso   1.00
C636   C     0.40185   0.65185   0.25000   0.00000  Uiso   1.00
C637   C     0.09814   0.84814   0.75000   0.00000  Uiso   1.00
C638   C     0.34815   0.90185   0.25000   0.00000  Uiso   1.00
C639   C     0.15186   0.59814   0.75000   0.00000  Uiso   1.00
C640   C     0.09815   0.65185   0.75000   0.00000  Uiso   1.00
C641   C     0.40186   0.84814   0.25000   0.00000  Uiso   1.00
C642   C     0.15185   0.90185   0.75000   0.00000  Uiso   1.00
C643   C     0.34814   0.59814   0.25000   0.00000  Uiso   1.00
C644   C     0.40185   0.84815   0.75000   0.00000  Uiso   1.00
C645   C     0.27980   0.98579   0.54159   0.00000  Uiso   1.00
C646   C     0.09814   0.65186   0.25000   0.00000  Uiso   1.00
C647   C     0.34815   0.59815   0.75000   0.00000  Uiso   1.00
C648   C     0.15186   0.90186   0.25000   0.00000  Uiso   1.00
C649   C     0.25000   0.50000   0.10258   0.00000  Uiso   1.00
C650   C     0.25000   0.50000   0.89742   0.00000  Uiso   1.00
C651   C    -0.00000   0.75000   0.10258   0.00000  Uiso   1.00
C652   C    -0.00000   0.75000   0.89742   0.00000  Uiso   1.00
C653   C    -0.00000   0.75000   0.60258   0.00000  Uiso   1.00
C654   C     0.00000   0.75000   0.39742   0.00000  Uiso   1.00
C655   C     0.25000   0.50000   0.60258   0.00000  Uiso   1.00
C656   C     0.27980   0.51421   0.45841   0.00000  Uiso   1.00
C657   C     0.25000   0.50000   0.39742   0.00000  Uiso   1.00
C658   C     0.01421   0.77980   0.54159   0.00000  Uiso   1.00
C659   C     0.48579   0.77980   0.45841   0.00000  Uiso   1.00
C660   C     0.22020   0.51421   0.54159   0.00000  Uiso   1.00
C661   C     0.22020   0.98579   0.45841   0.00000  Uiso   1.00
C662   C     0.23565   0.96981   0.08214   0.00000  Uiso   1.00
C663   C     0.26435   0.96981   0.91786   0.00000  Uiso   1.00
C664   C     0.03018   0.73565   0.08214   0.00000  Uiso   1.00
C665   C     0.26421   0.97020   0.95841   0.00000  Uiso   1.00
C666   C     0.03018   0.76435   0.91786   0.00000  Uiso   1.00
C667   C     0.26435   0.53019   0.08214   0.00000  Uiso   1.00
C668   C     0.23565   0.53019   0.91786   0.00000  Uiso   1.00
C669   C     0.46981   0.76435   0.08214   0.00000  Uiso   1.00
C670   C     0.46981   0.73565   0.91786   0.00000  Uiso   1.00
C671   C     0.48565   0.71982   0.58214   0.00000  Uiso   1.00
C672   C     0.01435   0.71981   0.41786   0.00000  Uiso   1.00
C673   C     0.28018   0.98565   0.58214   0.00000  Uiso   1.00
C674   C     0.28018   0.51435   0.41786   0.00000  Uiso   1.00
C675   C     0.01435   0.78018   0.58214   0.00000  Uiso   1.00
C676   C     0.02980   0.73579   0.04159   0.00000  Uiso   1.00
C677   C     0.48565   0.78019   0.41786   0.00000  Uiso   1.00
C678   C     0.21981   0.51435   0.58214   0.00000  Uiso   1.00
C679   C     0.21981   0.98565   0.41786   0.00000  Uiso   1.00
C680   C     0.25000   0.50000   0.02131   0.00000  Uiso   1.00
C681   C     0.25000   0.50000   0.97869   0.00000  Uiso   1.00
C682   C    -0.00000   0.75000   0.02131   0.00000  Uiso   1.00
C683   C    -0.00000   0.75000   0.97869   0.00000  Uiso   1.00
C684   C    -0.00000   0.75000   0.52131   0.00000  Uiso   1.00
C685   C    -0.00000   0.75000   0.47870   0.00000  Uiso   1.00
C686   C     0.25000   0.50000   0.52130   0.00000  Uiso   1.00
C687   C     0.02980   0.76421   0.95841   0.00000  Uiso   1.00
C688   C     0.25000   0.50000   0.47869   0.00000  Uiso   1.00
C689   C     0.25000   0.50000   0.35508   0.00000  Uiso   1.00
C690   C     0.25000   0.50000   0.64492   0.00000  Uiso   1.00
C691   C     0.00000   0.75000   0.35508   0.00000  Uiso   1.00
C692   C    -0.00000   0.75000   0.64492   0.00000  Uiso   1.00
C693   C     0.00000   0.75000   0.85508   0.00000  Uiso   1.00
C694   C     0.00000   0.75000   0.14492   0.00000  Uiso   1.00
C695   C     0.25000   0.50000   0.85508   0.00000  Uiso   1.00
C696   C     0.25000   0.50000   0.14492   0.00000  Uiso   1.00
C697   C     0.17991   0.57009   0.25000   0.00000  Uiso   1.00
C698   C     0.26421   0.52980   0.04159   0.00000  Uiso   1.00
C699   C     0.32008   0.92992   0.75000   0.00000  Uiso   1.00
C700   C     0.42991   0.67991   0.25000   0.00000  Uiso   1.00
C701   C     0.07008   0.82008   0.75000   0.00000  Uiso   1.00
C702   C     0.32009   0.92991   0.25000   0.00000  Uiso   1.00
C703   C     0.17992   0.57008   0.75000   0.00000  Uiso   1.00
C704   C     0.07009   0.82009   0.25000   0.00000  Uiso   1.00
C705   C     0.42992   0.67992   0.75000   0.00000  Uiso   1.00
C706   C     0.17991   0.92991   0.75000   0.00000  Uiso   1.00
C707   C     0.32008   0.57008   0.25000   0.00000  Uiso   1.00
C708   C     0.42991   0.82009   0.75000   0.00000  Uiso   1.00
C709   C     0.23579   0.52980   0.95841   0.00000  Uiso   1.00
C710   C     0.07008   0.67992   0.25000   0.00000  Uiso   1.00
C711   C     0.32009   0.57009   0.75000   0.00000  Uiso   1.00
C712   C     0.17992   0.92992   0.25000   0.00000  Uiso   1.00
C713   C     0.07009   0.67991   0.75000   0.00000  Uiso   1.00
C714   C     0.42992   0.82008   0.25000   0.00000  Uiso   1.00
C715   C     0.12260   0.90414   0.22393   0.00000  Uiso   1.00
C716   C     0.37743   0.59587   0.77606   0.00000  Uiso   1.00
C717   C     0.09586   0.62260   0.22393   0.00000  Uiso   1.00
C718   C     0.40413   0.87743   0.77606   0.00000  Uiso   1.00
C719   C     0.37740   0.59586   0.22393   0.00000  Uiso   1.00
C720   C     0.47020   0.76421   0.04159   0.00000  Uiso   1.00
C721   C     0.12257   0.90413   0.77606   0.00000  Uiso   1.00
C722   C     0.40414   0.87740   0.22393   0.00000  Uiso   1.00
C723   C     0.09587   0.62257   0.77606   0.00000  Uiso   1.00
C724   C     0.12260   0.59586   0.77607   0.00000  Uiso   1.00
C725   C     0.37743   0.90413   0.22394   0.00000  Uiso   1.00
C726   C     0.09586   0.87740   0.77607   0.00000  Uiso   1.00
C727   C     0.40413   0.62257   0.22394   0.00000  Uiso   1.00
C728   C     0.37740   0.90414   0.77607   0.00000  Uiso   1.00
C729   C     0.12257   0.59587   0.22394   0.00000  Uiso   1.00
C730   C     0.40414   0.62260   0.77607   0.00000  Uiso   1.00
C731   C     0.47020   0.73579   0.95841   0.00000  Uiso   1.00
C732   C     0.09587   0.87743   0.22394   0.00000  Uiso   1.00
C733   C     0.37260   0.65414   0.72393   0.00000  Uiso   1.00
C734   C     0.12743   0.84587   0.27606   0.00000  Uiso   1.00
C735   C     0.34586   0.87260   0.72393   0.00000  Uiso   1.00
C736   C     0.15413   0.62743   0.27606   0.00000  Uiso   1.00
C737   C     0.12740   0.84586   0.72393   0.00000  Uiso   1.00
C738   C     0.37257   0.65413   0.27606   0.00000  Uiso   1.00
C739   C     0.15414   0.62740   0.72393   0.00000  Uiso   1.00
C740   C     0.34587   0.87257   0.27606   0.00000  Uiso   1.00
C741   C     0.37260   0.84586   0.27607   0.00000  Uiso   1.00
C742   C     0.48579   0.72020   0.54159   0.00000  Uiso   1.00
C743   C     0.12743   0.65413   0.72394   0.00000  Uiso   1.00
C744   C     0.34586   0.62740   0.27607   0.00000  Uiso   1.00
C745   C     0.15413   0.87257   0.72394   0.00000  Uiso   1.00
C746   C     0.12740   0.65414   0.27607   0.00000  Uiso   1.00
C747   C     0.37257   0.84587   0.72394   0.00000  Uiso   1.00
C748   C     0.15414   0.87260   0.27607   0.00000  Uiso   1.00
C749   C     0.34587   0.62743   0.72394   0.00000  Uiso   1.00
C750   C     0.09815   0.84815   0.25000   0.00000  Uiso   1.00
C751   C     0.40186   0.65186   0.75000   0.00000  Uiso   1.00
C752   C     0.15185   0.59815   0.25000   0.00000  Uiso   1.00
H753   H     0.22453   0.94741   0.02560   0.00000  Uiso   1.00
H754   H     0.02547   0.69741   0.47440   0.00000  Uiso   1.00
H755   H     0.30259   0.97453   0.52560   0.00000  Uiso   1.00
H756   H     0.30259   0.52547   0.47440   0.00000  Uiso   1.00
H757   H     0.02547   0.80259   0.52560   0.00000  Uiso   1.00
H758   H     0.47453   0.80259   0.47440   0.00000  Uiso   1.00
H759   H     0.19741   0.52547   0.52560   0.00000  Uiso   1.00
H760   H     0.19741   0.97453   0.47440   0.00000  Uiso   1.00
H761   H     0.12035   0.92648   0.20349   0.00000  Uiso   1.00
H762   H     0.37970   0.57352   0.79647   0.00000  Uiso   1.00
H763   H     0.07352   0.62035   0.20349   0.00000  Uiso   1.00
H764   H     0.27547   0.94741   0.97440   0.00000  Uiso   1.00
H765   H     0.42648   0.87970   0.79647   0.00000  Uiso   1.00
H766   H     0.37965   0.57352   0.20349   0.00000  Uiso   1.00
H767   H     0.12030   0.92648   0.79647   0.00000  Uiso   1.00
H768   H     0.42648   0.87965   0.20349   0.00000  Uiso   1.00
H769   H     0.07352   0.62030   0.79647   0.00000  Uiso   1.00
H770   H     0.12035   0.57352   0.79651   0.00000  Uiso   1.00
H771   H     0.37970   0.92648   0.20353   0.00000  Uiso   1.00
H772   H     0.07352   0.87965   0.79651   0.00000  Uiso   1.00
H773   H     0.42648   0.62030   0.20353   0.00000  Uiso   1.00
H774   H     0.37965   0.92648   0.79651   0.00000  Uiso   1.00
H775   H     0.05259   0.72453   0.02560   0.00000  Uiso   1.00
H776   H     0.12030   0.57352   0.20353   0.00000  Uiso   1.00
H777   H     0.42648   0.62035   0.79651   0.00000  Uiso   1.00
H778   H     0.07352   0.87970   0.20353   0.00000  Uiso   1.00
H779   H     0.37035   0.67648   0.70349   0.00000  Uiso   1.00
H780   H     0.12970   0.82352   0.29647   0.00000  Uiso   1.00
H781   H     0.32352   0.87035   0.70349   0.00000  Uiso   1.00
H782   H     0.17648   0.62970   0.29647   0.00000  Uiso   1.00
H783   H     0.12965   0.82352   0.70349   0.00000  Uiso   1.00
H784   H     0.37030   0.67648   0.29647   0.00000  Uiso   1.00
H785   H     0.17648   0.62965   0.70349   0.00000  Uiso   1.00
H786   H     0.05259   0.77547   0.97440   0.00000  Uiso   1.00
H787   H     0.32352   0.87030   0.29647   0.00000  Uiso   1.00
H788   H     0.37035   0.82352   0.29651   0.00000  Uiso   1.00
H789   H     0.12970   0.67648   0.70353   0.00000  Uiso   1.00
H790   H     0.32352   0.62965   0.29651   0.00000  Uiso   1.00
H791   H     0.17648   0.87030   0.70353   0.00000  Uiso   1.00
H792   H     0.12965   0.67648   0.29651   0.00000  Uiso   1.00
H793   H     0.37030   0.82352   0.70353   0.00000  Uiso   1.00
H794   H     0.17648   0.87035   0.29651   0.00000  Uiso   1.00
H795   H     0.32352   0.62970   0.70353   0.00000  Uiso   1.00
H796   H     0.23095   0.90239   0.15953   0.00000  Uiso   1.00
H797   H     0.27547   0.55259   0.02560   0.00000  Uiso   1.00
H798   H     0.26905   0.90239   0.84047   0.00000  Uiso   1.00
H799   H     0.09761   0.73095   0.15953   0.00000  Uiso   1.00
H800   H     0.09761   0.76905   0.84047   0.00000  Uiso   1.00
H801   H     0.26905   0.59761   0.15953   0.00000  Uiso   1.00
H802   H     0.23095   0.59761   0.84047   0.00000  Uiso   1.00
H803   H     0.40239   0.76905   0.15953   0.00000  Uiso   1.00
H804   H     0.40240   0.73095   0.84047   0.00000  Uiso   1.00
H805   H     0.48095   0.65239   0.65953   0.00000  Uiso   1.00
H806   H     0.01904   0.65239   0.34047   0.00000  Uiso   1.00
H807   H     0.34760   0.98095   0.65953   0.00000  Uiso   1.00
H808   H     0.22453   0.55259   0.97440   0.00000  Uiso   1.00
H809   H     0.34761   0.51905   0.34047   0.00000  Uiso   1.00
H810   H     0.01905   0.84761   0.65953   0.00000  Uiso   1.00
H811   H     0.48095   0.84761   0.34047   0.00000  Uiso   1.00
H812   H     0.15239   0.51905   0.65953   0.00000  Uiso   1.00
H813   H     0.15239   0.98095   0.34047   0.00000  Uiso   1.00
H814   H     0.44741   0.77547   0.02560   0.00000  Uiso   1.00
H815   H     0.44741   0.72453   0.97440   0.00000  Uiso   1.00
H816   H     0.47453   0.69741   0.52560   0.00000  Uiso   1.00
O817   O     0.25000   0.50000   0.25000   0.00000  Uiso   1.00
O818   O     0.25000   0.96964   0.66317   0.00000  Uiso   1.00
O819   O     0.16903   0.99561   0.35690   0.00000  Uiso   1.00
O820   O     0.46964   0.75000   0.33683   0.00000  Uiso   1.00
O821   O     0.03036   0.75000   0.66317   0.00000  Uiso   1.00
O822   O     0.00000   0.71964   0.83683   0.00000  Uiso   1.00
O823   O    -0.00000   0.78036   0.16317   0.00000  Uiso   1.00
O824   O     0.28036   0.50000   0.83683   0.00000  Uiso   1.00
O825   O     0.21964   0.50000   0.16317   0.00000  Uiso   1.00
O826   O     0.00000   0.78036   0.83683   0.00000  Uiso   1.00
O827   O    -0.00000   0.71964   0.16317   0.00000  Uiso   1.00
O828   O     0.21964   0.50000   0.83683   0.00000  Uiso   1.00
O829   O     0.25000   0.50000   0.75000   0.00000  Uiso   1.00
O830   O     0.28036   0.50000   0.16317   0.00000  Uiso   1.00
O831   O     0.20725   0.57307   0.27282   0.00000  Uiso   1.00
O832   O     0.29274   0.92693   0.72718   0.00000  Uiso   1.00
O833   O     0.42693   0.70726   0.27282   0.00000  Uiso   1.00
O834   O     0.07307   0.79274   0.72718   0.00000  Uiso   1.00
O835   O     0.29274   0.92693   0.27282   0.00000  Uiso   1.00
O836   O     0.20725   0.57307   0.72718   0.00000  Uiso   1.00
O837   O     0.07307   0.79274   0.27282   0.00000  Uiso   1.00
O838   O     0.42693   0.70726   0.72718   0.00000  Uiso   1.00
O839   O     0.20725   0.92693   0.72718   0.00000  Uiso   1.00
O840   O    -0.00000   0.75000   0.25000   0.00000  Uiso   1.00
O841   O     0.29274   0.57307   0.27282   0.00000  Uiso   1.00
O842   O     0.42693   0.79275   0.72718   0.00000  Uiso   1.00
O843   O     0.07307   0.70725   0.27282   0.00000  Uiso   1.00
O844   O     0.29274   0.57307   0.72718   0.00000  Uiso   1.00
O845   O     0.20725   0.92693   0.27282   0.00000  Uiso   1.00
O846   O     0.07307   0.70725   0.72718   0.00000  Uiso   1.00
O847   O     0.42693   0.79275   0.27282   0.00000  Uiso   1.00
O848   O     0.45725   0.82307   0.77282   0.00000  Uiso   1.00
O849   O     0.04274   0.67693   0.22718   0.00000  Uiso   1.00
O850   O     0.17693   0.95725   0.77282   0.00000  Uiso   1.00
O851   O     0.00000   0.75000   0.75000   0.00000  Uiso   1.00
O852   O     0.32307   0.54275   0.22718   0.00000  Uiso   1.00
O853   O     0.04274   0.67693   0.77282   0.00000  Uiso   1.00
O854   O     0.45725   0.82307   0.22718   0.00000  Uiso   1.00
O855   O     0.32307   0.54275   0.77282   0.00000  Uiso   1.00
O856   O     0.17693   0.95725   0.22718   0.00000  Uiso   1.00
O857   O     0.45725   0.67693   0.22718   0.00000  Uiso   1.00
O858   O     0.04274   0.82307   0.77282   0.00000  Uiso   1.00
O859   O     0.17693   0.54275   0.22718   0.00000  Uiso   1.00
O860   O     0.32307   0.95725   0.77282   0.00000  Uiso   1.00
O861   O     0.04274   0.82307   0.22718   0.00000  Uiso   1.00
O862   O     0.25000   0.96964   0.33683   0.00000  Uiso   1.00
O863   O     0.45725   0.67693   0.77282   0.00000  Uiso   1.00
O864   O     0.32307   0.95725   0.22718   0.00000  Uiso   1.00
O865   O     0.17693   0.54275   0.77282   0.00000  Uiso   1.00
O866   O     0.18091   0.94052   0.12256   0.00000  Uiso   1.00
O867   O     0.21405   0.89960   0.07877   0.00000  Uiso   1.00
O868   O     0.24561   0.91903   0.14310   0.00000  Uiso   1.00
O869   O     0.31909   0.94052   0.87744   0.00000  Uiso   1.00
O870   O     0.28595   0.89960   0.92123   0.00000  Uiso   1.00
O871   O     0.25439   0.91903   0.85690   0.00000  Uiso   1.00
O872   O     0.05948   0.68091   0.12256   0.00000  Uiso   1.00
O873   O     0.25000   0.53036   0.66317   0.00000  Uiso   1.00
O874   O     0.10040   0.71405   0.07877   0.00000  Uiso   1.00
O875   O     0.08097   0.74561   0.14310   0.00000  Uiso   1.00
O876   O     0.05948   0.81909   0.87744   0.00000  Uiso   1.00
O877   O     0.10040   0.78595   0.92123   0.00000  Uiso   1.00
O878   O     0.08097   0.75439   0.85690   0.00000  Uiso   1.00
O879   O     0.31909   0.55948   0.12256   0.00000  Uiso   1.00
O880   O     0.28595   0.60040   0.07877   0.00000  Uiso   1.00
O881   O     0.25439   0.58097   0.14310   0.00000  Uiso   1.00
O882   O     0.18091   0.55948   0.87744   0.00000  Uiso   1.00
O883   O     0.21405   0.60040   0.92123   0.00000  Uiso   1.00
O884   O     0.03036   0.75000   0.33683   0.00000  Uiso   1.00
O885   O     0.24561   0.58097   0.85690   0.00000  Uiso   1.00
O886   O     0.44051   0.81909   0.12256   0.00000  Uiso   1.00
O887   O     0.39960   0.78595   0.07877   0.00000  Uiso   1.00
O888   O     0.41903   0.75439   0.14310   0.00000  Uiso   1.00
O889   O     0.44052   0.68091   0.87744   0.00000  Uiso   1.00
O890   O     0.39960   0.71405   0.92123   0.00000  Uiso   1.00
O891   O     0.41903   0.74561   0.85690   0.00000  Uiso   1.00
O892   O     0.43091   0.69052   0.62256   0.00000  Uiso   1.00
O893   O     0.46405   0.64960   0.57877   0.00000  Uiso   1.00
O894   O     0.49561   0.66903   0.64310   0.00000  Uiso   1.00
O895   O     0.46964   0.75000   0.66317   0.00000  Uiso   1.00
O896   O     0.06909   0.69051   0.37744   0.00000  Uiso   1.00
O897   O     0.03595   0.64960   0.42123   0.00000  Uiso   1.00
O898   O     0.00439   0.66903   0.35690   0.00000  Uiso   1.00
O899   O     0.30948   0.93091   0.62256   0.00000  Uiso   1.00
O900   O     0.35040   0.96405   0.57877   0.00000  Uiso   1.00
O901   O     0.33097   0.99561   0.64310   0.00000  Uiso   1.00
O902   O     0.30948   0.56909   0.37744   0.00000  Uiso   1.00
O903   O     0.35040   0.53595   0.42123   0.00000  Uiso   1.00
O904   O     0.33097   0.50439   0.35690   0.00000  Uiso   1.00
O905   O     0.06909   0.80948   0.62256   0.00000  Uiso   1.00
O906   O     0.25000   0.53036   0.33683   0.00000  Uiso   1.00
O907   O     0.03595   0.85040   0.57877   0.00000  Uiso   1.00
O908   O     0.00439   0.83097   0.64310   0.00000  Uiso   1.00
O909   O     0.43091   0.80949   0.37744   0.00000  Uiso   1.00
O910   O     0.46405   0.85040   0.42123   0.00000  Uiso   1.00
O911   O     0.49561   0.83097   0.35690   0.00000  Uiso   1.00
O912   O     0.19052   0.56909   0.62256   0.00000  Uiso   1.00
O913   O     0.14960   0.53595   0.57877   0.00000  Uiso   1.00
O914   O     0.16903   0.50439   0.64310   0.00000  Uiso   1.00
O915   O     0.19052   0.93091   0.37744   0.00000  Uiso   1.00
O916   O     0.14960   0.96405   0.42123   0.00000  Uiso   1.00
S917   S     0.21779   0.93109   0.10642   0.00000  Uiso   1.00
S918   S     0.03221   0.68109   0.39358   0.00000  Uiso   1.00
S919   S     0.31891   0.96779   0.60642   0.00000  Uiso   1.00
S920   S     0.31891   0.53221   0.39358   0.00000  Uiso   1.00
S921   S     0.03221   0.81891   0.60642   0.00000  Uiso   1.00
S922   S     0.46779   0.81891   0.39358   0.00000  Uiso   1.00
S923   S     0.18109   0.53221   0.60642   0.00000  Uiso   1.00
S924   S     0.18109   0.96779   0.39358   0.00000  Uiso   1.00
S925   S     0.28221   0.93109   0.89358   0.00000  Uiso   1.00
S926   S     0.06891   0.71779   0.10642   0.00000  Uiso   1.00
S927   S     0.06891   0.78221   0.89358   0.00000  Uiso   1.00
S928   S     0.28221   0.56891   0.10642   0.00000  Uiso   1.00
S929   S     0.21779   0.56891   0.89358   0.00000  Uiso   1.00
S930   S     0.43109   0.78221   0.10642   0.00000  Uiso   1.00
S931   S     0.43109   0.71779   0.89358   0.00000  Uiso   1.00
S932   S     0.46779   0.68109   0.60642   0.00000  Uiso   1.00
Zn933  Zn    0.20660   0.50000   0.21760   0.00000  Uiso   1.00
Zn934  Zn    0.04340   0.75000   0.28240   0.00000  Uiso   1.00
Zn935  Zn    0.25000   0.95660   0.71760   0.00000  Uiso   1.00
Zn936  Zn    0.25000   0.54340   0.28240   0.00000  Uiso   1.00
Zn937  Zn    0.04340   0.75000   0.71760   0.00000  Uiso   1.00
Zn938  Zn    0.45660   0.75000   0.28240   0.00000  Uiso   1.00
Zn939  Zn    0.25000   0.54340   0.71760   0.00000  Uiso   1.00
Zn940  Zn    0.25000   0.95660   0.28240   0.00000  Uiso   1.00
Zn941  Zn    0.29340   0.50000   0.78240   0.00000  Uiso   1.00
Zn942  Zn   -0.00000   0.70660   0.21760   0.00000  Uiso   1.00
Zn943  Zn    0.00000   0.79340   0.78240   0.00000  Uiso   1.00
Zn944  Zn    0.29340   0.50000   0.21760   0.00000  Uiso   1.00
Zn945  Zn    0.20660   0.50000   0.78240   0.00000  Uiso   1.00
Zn946  Zn    0.00000   0.79340   0.21760   0.00000  Uiso   1.00
Zn947  Zn    0.00000   0.70660   0.78240   0.00000  Uiso   1.00
Zn948  Zn    0.45660   0.75000   0.71760   0.00000  Uiso   1.00
C949   C     0.73579   0.97020   0.04159   0.00000  Uiso   1.00
C950   C     0.51421   0.72020   0.45841   0.00000  Uiso   1.00
C951   C     0.84814   0.90186   0.75000   0.00000  Uiso   1.00
C952   C     0.90185   0.65185   0.25000   0.00000  Uiso   1.00
C953   C     0.59814   0.84814   0.75000   0.00000  Uiso   1.00
C954   C     0.84815   0.90185   0.25000   0.00000  Uiso   1.00
C955   C     0.65186   0.59814   0.75000   0.00000  Uiso   1.00
C956   C     0.59815   0.65185   0.75000   0.00000  Uiso   1.00
C957   C     0.90186   0.84814   0.25000   0.00000  Uiso   1.00
C958   C     0.65185   0.90185   0.75000   0.00000  Uiso   1.00
C959   C     0.84814   0.59814   0.25000   0.00000  Uiso   1.00
C960   C     0.90185   0.84815   0.75000   0.00000  Uiso   1.00
C961   C     0.77980   0.98579   0.54159   0.00000  Uiso   1.00
C962   C     0.59814   0.65186   0.25000   0.00000  Uiso   1.00
C963   C     0.84815   0.59815   0.75000   0.00000  Uiso   1.00
C964   C     0.65186   0.90186   0.25000   0.00000  Uiso   1.00
C965   C     0.75000   0.50000   0.10258   0.00000  Uiso   1.00
C966   C     0.75000   0.50000   0.89742   0.00000  Uiso   1.00
C967   C     0.50000   0.75000   0.10258   0.00000  Uiso   1.00
C968   C     0.50000   0.75000   0.89742   0.00000  Uiso   1.00
C969   C     0.50000   0.75000   0.60258   0.00000  Uiso   1.00
C970   C     0.50000   0.75000   0.39742   0.00000  Uiso   1.00
C971   C     0.75000   0.50000   0.60258   0.00000  Uiso   1.00
C972   C     0.77980   0.51421   0.45841   0.00000  Uiso   1.00
C973   C     0.75000   0.50000   0.39742   0.00000  Uiso   1.00
C974   C     0.51421   0.77980   0.54159   0.00000  Uiso   1.00
C975   C     0.98579   0.77980   0.45841   0.00000  Uiso   1.00
C976   C     0.72020   0.51421   0.54159   0.00000  Uiso   1.00
C977   C     0.72020   0.98579   0.45841   0.00000  Uiso   1.00
C978   C     0.73565   0.96981   0.08214   0.00000  Uiso   1.00
C979   C     0.76435   0.96981   0.91786   0.00000  Uiso   1.00
C980   C     0.53018   0.73565   0.08214   0.00000  Uiso   1.00
C981   C     0.76421   0.97020   0.95841   0.00000  Uiso   1.00
C982   C     0.53018   0.76435   0.91786   0.00000  Uiso   1.00
C983   C     0.76435   0.53019   0.08214   0.00000  Uiso   1.00
C984   C     0.73565   0.53019   0.91786   0.00000  Uiso   1.00
C985   C     0.96981   0.76435   0.08214   0.00000  Uiso   1.00
C986   C     0.96981   0.73565   0.91786   0.00000  Uiso   1.00
C987   C     0.98565   0.71982   0.58214   0.00000  Uiso   1.00
C988   C     0.51435   0.71981   0.41786   0.00000  Uiso   1.00
C989   C     0.78018   0.98565   0.58214   0.00000  Uiso   1.00
C990   C     0.78018   0.51435   0.41786   0.00000  Uiso   1.00
C991   C     0.51435   0.78018   0.58214   0.00000  Uiso   1.00
C992   C     0.52980   0.73579   0.04159   0.00000  Uiso   1.00
C993   C     0.98565   0.78019   0.41786   0.00000  Uiso   1.00
C994   C     0.71981   0.51435   0.58214   0.00000  Uiso   1.00
C995   C     0.71981   0.98565   0.41786   0.00000  Uiso   1.00
C996   C     0.75000   0.50000   0.02131   0.00000  Uiso   1.00
C997   C     0.75000   0.50000   0.97869   0.00000  Uiso   1.00
C998   C     0.50000   0.75000   0.02131   0.00000  Uiso   1.00
C999   C     0.50000   0.75000   0.97869   0.00000  Uiso   1.00
C1000  C     0.50000   0.75000   0.52131   0.00000  Uiso   1.00
C1001  C     0.50000   0.75000   0.47870   0.00000  Uiso   1.00
C1002  C     0.75000   0.50000   0.52130   0.00000  Uiso   1.00
C1003  C     0.52980   0.76421   0.95841   0.00000  Uiso   1.00
C1004  C     0.75000   0.50000   0.47869   0.00000  Uiso   1.00
C1005  C     0.75000   0.50000   0.35508   0.00000  Uiso   1.00
C1006  C     0.75000   0.50000   0.64492   0.00000  Uiso   1.00
C1007  C     0.50000   0.75000   0.35508   0.00000  Uiso   1.00
C1008  C     0.50000   0.75000   0.64492   0.00000  Uiso   1.00
C1009  C     0.50000   0.75000   0.85508   0.00000  Uiso   1.00
C1010  C     0.50000   0.75000   0.14492   0.00000  Uiso   1.00
C1011  C     0.75000   0.50000   0.85508   0.00000  Uiso   1.00
C1012  C     0.75000   0.50000   0.14492   0.00000  Uiso   1.00
C1013  C     0.67991   0.57009   0.25000   0.00000  Uiso   1.00
C1014  C     0.76421   0.52980   0.04159   0.00000  Uiso   1.00
C1015  C     0.82008   0.92992   0.75000   0.00000  Uiso   1.00
C1016  C     0.92991   0.67991   0.25000   0.00000  Uiso   1.00
C1017  C     0.57008   0.82008   0.75000   0.00000  Uiso   1.00
C1018  C     0.82009   0.92991   0.25000   0.00000  Uiso   1.00
C1019  C     0.67992   0.57008   0.75000   0.00000  Uiso   1.00
C1020  C     0.57009   0.82009   0.25000   0.00000  Uiso   1.00
C1021  C     0.92992   0.67992   0.75000   0.00000  Uiso   1.00
C1022  C     0.67991   0.92991   0.75000   0.00000  Uiso   1.00
C1023  C     0.82008   0.57008   0.25000   0.00000  Uiso   1.00
C1024  C     0.92991   0.82009   0.75000   0.00000  Uiso   1.00
C1025  C     0.73579   0.52980   0.95841   0.00000  Uiso   1.00
C1026  C     0.57008   0.67992   0.25000   0.00000  Uiso   1.00
C1027  C     0.82009   0.57009   0.75000   0.00000  Uiso   1.00
C1028  C     0.67992   0.92992   0.25000   0.00000  Uiso   1.00
C1029  C     0.57009   0.67991   0.75000   0.00000  Uiso   1.00
C1030  C     0.92992   0.82008   0.25000   0.00000  Uiso   1.00
C1031  C     0.62260   0.90414   0.22393   0.00000  Uiso   1.00
C1032  C     0.87743   0.59587   0.77606   0.00000  Uiso   1.00
C1033  C     0.59586   0.62260   0.22393   0.00000  Uiso   1.00
C1034  C     0.90413   0.87743   0.77606   0.00000  Uiso   1.00
C1035  C     0.87740   0.59586   0.22393   0.00000  Uiso   1.00
C1036  C     0.97020   0.76421   0.04159   0.00000  Uiso   1.00
C1037  C     0.62257   0.90413   0.77606   0.00000  Uiso   1.00
C1038  C     0.90414   0.87740   0.22393   0.00000  Uiso   1.00
C1039  C     0.59587   0.62257   0.77606   0.00000  Uiso   1.00
C1040  C     0.62260   0.59586   0.77607   0.00000  Uiso   1.00
C1041  C     0.87743   0.90413   0.22394   0.00000  Uiso   1.00
C1042  C     0.59586   0.87740   0.77607   0.00000  Uiso   1.00
C1043  C     0.90413   0.62257   0.22394   0.00000  Uiso   1.00
C1044  C     0.87740   0.90414   0.77607   0.00000  Uiso   1.00
C1045  C     0.62257   0.59587   0.22394   0.00000  Uiso   1.00
C1046  C     0.90414   0.62260   0.77607   0.00000  Uiso   1.00
C1047  C     0.97020   0.73579   0.95841   0.00000  Uiso   1.00
C1048  C     0.59587   0.87743   0.22394   0.00000  Uiso   1.00
C1049  C     0.87260   0.65414   0.72393   0.00000  Uiso   1.00
C1050  C     0.62743   0.84587   0.27606   0.00000  Uiso   1.00
C1051  C     0.84586   0.87260   0.72393   0.00000  Uiso   1.00
C1052  C     0.65413   0.62743   0.27606   0.00000  Uiso   1.00
C1053  C     0.62740   0.84586   0.72393   0.00000  Uiso   1.00
C1054  C     0.87257   0.65413   0.27606   0.00000  Uiso   1.00
C1055  C     0.65414   0.62740   0.72393   0.00000  Uiso   1.00
C1056  C     0.84587   0.87257   0.27606   0.00000  Uiso   1.00
C1057  C     0.87260   0.84586   0.27607   0.00000  Uiso   1.00
C1058  C     0.98579   0.72020   0.54159   0.00000  Uiso   1.00
C1059  C     0.62743   0.65413   0.72394   0.00000  Uiso   1.00
C1060  C     0.84586   0.62740   0.27607   0.00000  Uiso   1.00
C1061  C     0.65413   0.87257   0.72394   0.00000  Uiso   1.00
C1062  C     0.62740   0.65414   0.27607   0.00000  Uiso   1.00
C1063  C     0.87257   0.84587   0.72394   0.00000  Uiso   1.00
C1064  C     0.65414   0.87260   0.27607   0.00000  Uiso   1.00
C1065  C     0.84587   0.62743   0.72394   0.00000  Uiso   1.00
C1066  C     0.59815   0.84815   0.25000   0.00000  Uiso   1.00
C1067  C     0.90186   0.65186   0.75000   0.00000  Uiso   1.00
C1068  C     0.65185   0.59815   0.25000   0.00000  Uiso   1.00
H1069  H     0.72453   0.94741   0.02560   0.00000  Uiso   1.00
H1070  H     0.52547   0.69741   0.47440   0.00000  Uiso   1.00
H1071  H     0.80259   0.97453   0.52560   0.00000  Uiso   1.00
H1072  H     0.80259   0.52547   0.47440   0.00000  Uiso   1.00
H1073  H     0.52547   0.80259   0.52560   0.00000  Uiso   1.00
H1074  H     0.97453   0.80259   0.47440   0.00000  Uiso   1.00
H1075  H     0.69741   0.52547   0.52560   0.00000  Uiso   1.00
H1076  H     0.69741   0.97453   0.47440   0.00000  Uiso   1.00
H1077  H     0.62035   0.92648   0.20349   0.00000  Uiso   1.00
H1078  H     0.87970   0.57352   0.79647   0.00000  Uiso   1.00
H1079  H     0.57352   0.62035   0.20349   0.00000  Uiso   1.00
H1080  H     0.77547   0.94741   0.97440   0.00000  Uiso   1.00
H1081  H     0.92648   0.87970   0.79647   0.00000  Uiso   1.00
H1082  H     0.87965   0.57352   0.20349   0.00000  Uiso   1.00
H1083  H     0.62030   0.92648   0.79647   0.00000  Uiso   1.00
H1084  H     0.92648   0.87965   0.20349   0.00000  Uiso   1.00
H1085  H     0.57352   0.62030   0.79647   0.00000  Uiso   1.00
H1086  H     0.62035   0.57352   0.79651   0.00000  Uiso   1.00
H1087  H     0.87970   0.92648   0.20353   0.00000  Uiso   1.00
H1088  H     0.57352   0.87965   0.79651   0.00000  Uiso   1.00
H1089  H     0.92648   0.62030   0.20353   0.00000  Uiso   1.00
H1090  H     0.87965   0.92648   0.79651   0.00000  Uiso   1.00
H1091  H     0.55259   0.72453   0.02560   0.00000  Uiso   1.00
H1092  H     0.62030   0.57352   0.20353   0.00000  Uiso   1.00
H1093  H     0.92648   0.62035   0.79651   0.00000  Uiso   1.00
H1094  H     0.57352   0.87970   0.20353   0.00000  Uiso   1.00
H1095  H     0.87035   0.67648   0.70349   0.00000  Uiso   1.00
H1096  H     0.62970   0.82352   0.29647   0.00000  Uiso   1.00
H1097  H     0.82352   0.87035   0.70349   0.00000  Uiso   1.00
H1098  H     0.67648   0.62970   0.29647   0.00000  Uiso   1.00
H1099  H     0.62965   0.82352   0.70349   0.00000  Uiso   1.00
H1100  H     0.87030   0.67648   0.29647   0.00000  Uiso   1.00
H1101  H     0.67648   0.62965   0.70349   0.00000  Uiso   1.00
H1102  H     0.55259   0.77547   0.97440   0.00000  Uiso   1.00
H1103  H     0.82352   0.87030   0.29647   0.00000  Uiso   1.00
H1104  H     0.87035   0.82352   0.29651   0.00000  Uiso   1.00
H1105  H     0.62970   0.67648   0.70353   0.00000  Uiso   1.00
H1106  H     0.82352   0.62965   0.29651   0.00000  Uiso   1.00
H1107  H     0.67648   0.87030   0.70353   0.00000  Uiso   1.00
H1108  H     0.62965   0.67648   0.29651   0.00000  Uiso   1.00
H1109  H     0.87030   0.82352   0.70353   0.00000  Uiso   1.00
H1110  H     0.67648   0.87035   0.29651   0.00000  Uiso   1.00
H1111  H     0.82352   0.62970   0.70353   0.00000  Uiso   1.00
H1112  H     0.73095   0.90239   0.15953   0.00000  Uiso   1.00
H1113  H     0.77547   0.55259   0.02560   0.00000  Uiso   1.00
H1114  H     0.76905   0.90239   0.84047   0.00000  Uiso   1.00
H1115  H     0.59761   0.73095   0.15953   0.00000  Uiso   1.00
H1116  H     0.59761   0.76905   0.84047   0.00000  Uiso   1.00
H1117  H     0.76905   0.59761   0.15953   0.00000  Uiso   1.00
H1118  H     0.73095   0.59761   0.84047   0.00000  Uiso   1.00
H1119  H     0.90239   0.76905   0.15953   0.00000  Uiso   1.00
H1120  H     0.90240   0.73095   0.84047   0.00000  Uiso   1.00
H1121  H     0.98095   0.65239   0.65953   0.00000  Uiso   1.00
H1122  H     0.51904   0.65239   0.34047   0.00000  Uiso   1.00
H1123  H     0.84760   0.98095   0.65953   0.00000  Uiso   1.00
H1124  H     0.72453   0.55259   0.97440   0.00000  Uiso   1.00
H1125  H     0.84761   0.51905   0.34047   0.00000  Uiso   1.00
H1126  H     0.51905   0.84761   0.65953   0.00000  Uiso   1.00
H1127  H     0.98095   0.84761   0.34047   0.00000  Uiso   1.00
H1128  H     0.65239   0.51905   0.65953   0.00000  Uiso   1.00
H1129  H     0.65239   0.98095   0.34047   0.00000  Uiso   1.00
H1130  H     0.94741   0.77547   0.02560   0.00000  Uiso   1.00
H1131  H     0.94741   0.72453   0.97440   0.00000  Uiso   1.00
H1132  H     0.97453   0.69741   0.52560   0.00000  Uiso   1.00
O1133  O     0.75000   0.50000   0.25000   0.00000  Uiso   1.00
O1134  O     0.75000   0.96964   0.66317   0.00000  Uiso   1.00
O1135  O     0.66903   0.99561   0.35690   0.00000  Uiso   1.00
O1136  O     0.96964   0.75000   0.33683   0.00000  Uiso   1.00
O1137  O     0.53036   0.75000   0.66317   0.00000  Uiso   1.00
O1138  O     0.50000   0.71964   0.83683   0.00000  Uiso   1.00
O1139  O     0.50000   0.78036   0.16317   0.00000  Uiso   1.00
O1140  O     0.78036   0.50000   0.83683   0.00000  Uiso   1.00
O1141  O     0.71964   0.50000   0.16317   0.00000  Uiso   1.00
O1142  O     0.50000   0.78036   0.83683   0.00000  Uiso   1.00
O1143  O     0.50000   0.71964   0.16317   0.00000  Uiso   1.00
O1144  O     0.71964   0.50000   0.83683   0.00000  Uiso   1.00
O1145  O     0.75000   0.50000   0.75000   0.00000  Uiso   1.00
O1146  O     0.78036   0.50000   0.16317   0.00000  Uiso   1.00
O1147  O     0.70725   0.57307   0.27282   0.00000  Uiso   1.00
O1148  O     0.79274   0.92693   0.72718   0.00000  Uiso   1.00
O1149  O     0.92693   0.70726   0.27282   0.00000  Uiso   1.00
O1150  O     0.57307   0.79274   0.72718   0.00000  Uiso   1.00
O1151  O     0.79274   0.92693   0.27282   0.00000  Uiso   1.00
O1152  O     0.70725   0.57307   0.72718   0.00000  Uiso   1.00
O1153  O     0.57307   0.79274   0.27282   0.00000  Uiso   1.00
O1154  O     0.92693   0.70726   0.72718   0.00000  Uiso   1.00
O1155  O     0.70725   0.92693   0.72718   0.00000  Uiso   1.00
O1156  O     0.50000   0.75000   0.25000   0.00000  Uiso   1.00
O1157  O     0.79274   0.57307   0.27282   0.00000  Uiso   1.00
O1158  O     0.92693   0.79275   0.72718   0.00000  Uiso   1.00
O1159  O     0.57307   0.70725   0.27282   0.00000  Uiso   1.00
O1160  O     0.79274   0.57307   0.72718   0.00000  Uiso   1.00
O1161  O     0.70725   0.92693   0.27282   0.00000  Uiso   1.00
O1162  O     0.57307   0.70725   0.72718   0.00000  Uiso   1.00
O1163  O     0.92693   0.79275   0.27282   0.00000  Uiso   1.00
O1164  O     0.95725   0.82307   0.77282   0.00000  Uiso   1.00
O1165  O     0.54274   0.67693   0.22718   0.00000  Uiso   1.00
O1166  O     0.67693   0.95725   0.77282   0.00000  Uiso   1.00
O1167  O     0.50000   0.75000   0.75000   0.00000  Uiso   1.00
O1168  O     0.82307   0.54275   0.22718   0.00000  Uiso   1.00
O1169  O     0.54274   0.67693   0.77282   0.00000  Uiso   1.00
O1170  O     0.95725   0.82307   0.22718   0.00000  Uiso   1.00
O1171  O     0.82307   0.54275   0.77282   0.00000  Uiso   1.00
O1172  O     0.67693   0.95725   0.22718   0.00000  Uiso   1.00
O1173  O     0.95725   0.67693   0.22718   0.00000  Uiso   1.00
O1174  O     0.54274   0.82307   0.77282   0.00000  Uiso   1.00
O1175  O     0.67693   0.54275   0.22718   0.00000  Uiso   1.00
O1176  O     0.82307   0.95725   0.77282   0.00000  Uiso   1.00
O1177  O     0.54274   0.82307   0.22718   0.00000  Uiso   1.00
O1178  O     0.75000   0.96964   0.33683   0.00000  Uiso   1.00
O1179  O     0.95725   0.67693   0.77282   0.00000  Uiso   1.00
O1180  O     0.82307   0.95725   0.22718   0.00000  Uiso   1.00
O1181  O     0.67693   0.54275   0.77282   0.00000  Uiso   1.00
O1182  O     0.68091   0.94052   0.12256   0.00000  Uiso   1.00
O1183  O     0.71405   0.89960   0.07877   0.00000  Uiso   1.00
O1184  O     0.74561   0.91903   0.14310   0.00000  Uiso   1.00
O1185  O     0.81909   0.94052   0.87744   0.00000  Uiso   1.00
O1186  O     0.78595   0.89960   0.92123   0.00000  Uiso   1.00
O1187  O     0.75439   0.91903   0.85690   0.00000  Uiso   1.00
O1188  O     0.55948   0.68091   0.12256   0.00000  Uiso   1.00
O1189  O     0.75000   0.53036   0.66317   0.00000  Uiso   1.00
O1190  O     0.60040   0.71405   0.07877   0.00000  Uiso   1.00
O1191  O     0.58097   0.74561   0.14310   0.00000  Uiso   1.00
O1192  O     0.55948   0.81909   0.87744   0.00000  Uiso   1.00
O1193  O     0.60040   0.78595   0.92123   0.00000  Uiso   1.00
O1194  O     0.58097   0.75439   0.85690   0.00000  Uiso   1.00
O1195  O     0.81909   0.55948   0.12256   0.00000  Uiso   1.00
O1196  O     0.78595   0.60040   0.07877   0.00000  Uiso   1.00
O1197  O     0.75439   0.58097   0.14310   0.00000  Uiso   1.00
O1198  O     0.68091   0.55948   0.87744   0.00000  Uiso   1.00
O1199  O     0.71405   0.60040   0.92123   0.00000  Uiso   1.00
O1200  O     0.53036   0.75000   0.33683   0.00000  Uiso   1.00
O1201  O     0.74561   0.58097   0.85690   0.00000  Uiso   1.00
O1202  O     0.94051   0.81909   0.12256   0.00000  Uiso   1.00
O1203  O     0.89960   0.78595   0.07877   0.00000  Uiso   1.00
O1204  O     0.91903   0.75439   0.14310   0.00000  Uiso   1.00
O1205  O     0.94052   0.68091   0.87744   0.00000  Uiso   1.00
O1206  O     0.89960   0.71405   0.92123   0.00000  Uiso   1.00
O1207  O     0.91903   0.74561   0.85690   0.00000  Uiso   1.00
O1208  O     0.93091   0.69052   0.62256   0.00000  Uiso   1.00
O1209  O     0.96405   0.64960   0.57877   0.00000  Uiso   1.00
O1210  O     0.99561   0.66903   0.64310   0.00000  Uiso   1.00
O1211  O     0.96964   0.75000   0.66317   0.00000  Uiso   1.00
O1212  O     0.56909   0.69051   0.37744   0.00000  Uiso   1.00
O1213  O     0.53595   0.64960   0.42123   0.00000  Uiso   1.00
O1214  O     0.50439   0.66903   0.35690   0.00000  Uiso   1.00
O1215  O     0.80948   0.93091   0.62256   0.00000  Uiso   1.00
O1216  O     0.85040   0.96405   0.57877   0.00000  Uiso   1.00
O1217  O     0.83097   0.99561   0.64310   0.00000  Uiso   1.00
O1218  O     0.80948   0.56909   0.37744   0.00000  Uiso   1.00
O1219  O     0.85040   0.53595   0.42123   0.00000  Uiso   1.00
O1220  O     0.83097   0.50439   0.35690   0.00000  Uiso   1.00
O1221  O     0.56909   0.80948   0.62256   0.00000  Uiso   1.00
O1222  O     0.75000   0.53036   0.33683   0.00000  Uiso   1.00
O1223  O     0.53595   0.85040   0.57877   0.00000  Uiso   1.00
O1224  O     0.50439   0.83097   0.64310   0.00000  Uiso   1.00
O1225  O     0.93091   0.80949   0.37744   0.00000  Uiso   1.00
O1226  O     0.96405   0.85040   0.42123   0.00000  Uiso   1.00
O1227  O     0.99561   0.83097   0.35690   0.00000  Uiso   1.00
O1228  O     0.69052   0.56909   0.62256   0.00000  Uiso   1.00
O1229  O     0.64960   0.53595   0.57877   0.00000  Uiso   1.00
O1230  O     0.66903   0.50439   0.64310   0.00000  Uiso   1.00
O1231  O     0.69052   0.93091   0.37744   0.00000  Uiso   1.00
O1232  O     0.64960   0.96405   0.42123   0.00000  Uiso   1.00
S1233  S     0.71779   0.93109   0.10642   0.00000  Uiso   1.00
S1234  S     0.53221   0.68109   0.39358   0.00000  Uiso   1.00
S1235  S     0.81891   0.96779   0.60642   0.00000  Uiso   1.00
S1236  S     0.81891   0.53221   0.39358   0.00000  Uiso   1.00
S1237  S     0.53221   0.81891   0.60642   0.00000  Uiso   1.00
S1238  S     0.96779   0.81891   0.39358   0.00000  Uiso   1.00
S1239  S     0.68109   0.53221   0.60642   0.00000  Uiso   1.00
S1240  S     0.68109   0.96779   0.39358   0.00000  Uiso   1.00
S1241  S     0.78221   0.93109   0.89358   0.00000  Uiso   1.00
S1242  S     0.56891   0.71779   0.10642   0.00000  Uiso   1.00
S1243  S     0.56891   0.78221   0.89358   0.00000  Uiso   1.00
S1244  S     0.78221   0.56891   0.10642   0.00000  Uiso   1.00
S1245  S     0.71779   0.56891   0.89358   0.00000  Uiso   1.00
S1246  S     0.93109   0.78221   0.10642   0.00000  Uiso   1.00
S1247  S     0.93109   0.71779   0.89358   0.00000  Uiso   1.00
S1248  S     0.96779   0.68109   0.60642   0.00000  Uiso   1.00
Zn1249 Zn    0.70660   0.50000   0.21760   0.00000  Uiso   1.00
Zn1250 Zn    0.54340   0.75000   0.28240   0.00000  Uiso   1.00
Zn1251 Zn    0.75000   0.95660   0.71760   0.00000  Uiso   1.00
Zn1252 Zn    0.75000   0.54340   0.28240   0.00000  Uiso   1.00
Zn1253 Zn    0.54340   0.75000   0.71760   0.00000  Uiso   1.00
Zn1254 Zn    0.95660   0.75000   0.28240   0.00000  Uiso   1.00
Zn1255 Zn    0.75000   0.54340   0.71760   0.00000  Uiso   1.00
Zn1256 Zn    0.75000   0.95660   0.28240   0.00000  Uiso   1.00
Zn1257 Zn    0.79340   0.50000   0.78240   0.00000  Uiso   1.00
Zn1258 Zn    0.50000   0.70660   0.21760   0.00000  Uiso   1.00
Zn1259 Zn    0.50000   0.79340   0.78240   0.00000  Uiso   1.00
Zn1260 Zn    0.79340   0.50000   0.21760   0.00000  Uiso   1.00
Zn1261 Zn    0.70660   0.50000   0.78240   0.00000  Uiso   1.00
Zn1262 Zn    0.50000   0.79340   0.21760   0.00000  Uiso   1.00
Zn1263 Zn    0.50000   0.70660   0.78240   0.00000  Uiso   1.00
Zn1264 Zn    0.95660   0.75000   0.71760   0.00000  Uiso   1.00
loop_
_geom_bond_atom_site_label_1
_geom_bond_atom_site_label_2
_geom_bond_distance
_geom_bond_site_symmetry_2
_ccdc_geom_bond_type
C1     H121    1.083   .     S
C1     C30     1.395   .     A
C1     C680    1.398   .     S
C2     C40     1.395   .     A
C2     H122    1.083   .     S
C2     C53     1.398   .     S
C3     C103    1.402   .     A
C3     C96     1.402   .     A
C3     C67     1.456   .     S
C4     C68     1.456   .     S
C4     C106    1.402   .     A
C4     C95     1.402   .     A
C5     C105    1.402   .     A
C5     C94     1.402   .     A
C5     C69     1.456   .     S
C6     C93     1.402   .     A
C6     C70     1.456   .     S
C6     C108    1.402   .     A
C7     C92     1.402   .     A
C7     C107    1.402   .     A
C7     C71     1.456   .     S
C8     C81     1.456   .     S
C8     C111    1.402   .     A
C8     C91     1.402   .     A
C9     C90     1.402   .     A
C9     C82     1.456   .     S
C9     C109    1.402   .     A
C10    C113    1.402   .     A
C10    C89     1.402   .     A
C10    C74     1.456   .     S
C11    C112    1.402   .     A
C11    C87     1.402   .     A
C11    C75     1.456   .     S
C12    C115    1.402   .     A
C12    C86     1.402   .     A
C12    C76     1.456   .     S
C13    C41     1.395   .     A
C13    H123    1.083   .     S
C13    C686    1.398   .     S
C14    C114    1.402   .     A
C14    C85     1.402   .     A
C14    C78     1.456   .     S
C15    C84     1.402   .     A
C15    C79     1.456   .     S
C15    C117    1.402   .     A
C16    C80     1.456   .     S
C16    C116    1.402   .     A
C16    C83     1.402   .     A
C17    C35     1.414   .     A
C17    C64     1.457   .     S
C17    C662    1.414   1_545 S
C18    C36     1.414   .     A
C18    C63     1.457   .     S
C18    C663    1.414   1_545 S
C19    C353    1.414   1_455 A
C19    C32     1.414   .     S
C19    C62     1.457   .     S
C20    C354    1.414   1_455 A
C20    C34     1.414   .     S
C20    C61     1.457   .     S
C21    C60     1.457   .     S
C21    C355    1.414   1_455 A
C21    C43     1.414   .     S
C22    C59     1.457   .     S
C22    C40     1.414   .     A
C22    C361    1.414   1_455 S
C23    C673    1.414   1_545 A
C23    C58     1.457   .     S
C23    C46     1.414   .     S
C24    C42     1.395   .     A
C24    C56     1.398   .     A
C24    H124    1.083   .     S
C25    C57     1.457   .     S
C25    C42     1.414   .     A
C25    C679    1.414   1_545 S
C26    H125    1.083   .     S
C26    C43     1.395   .     A
C26    C52     1.398   .     S
C27    C369    1.398   .     A
C27    H126    1.083   .     S
C27    C45     1.395   .     A
C28    C54     1.398   .     A
C28    C46     1.395   .     A
C28    H127    1.083   .     S
C29    C47     1.395   .     A
C29    H128    1.083   .     S
C29    C688    1.398   .     S
C30    S285    1.774   .     S
C30    C649    1.414   .     S
C31    S293    1.774   .     S
C31    C33     1.395   .     A
C31    C650    1.414   .     S
C32    S294    1.774   .     S
C32    C44     1.395   .     A
C33    H132    1.083   .     S
C33    C681    1.398   .     S
C34    C55     1.395   .     A
C34    S295    1.774   .     S
C35    C66     1.395   .     A
C35    S296    1.774   .     S
C36    C77     1.395   .     A
C36    S297    1.774   .     S
C37    S298    1.774   .     S
C37    C335    1.414   .     A
C37    C88     1.395   .     A
C38    C99     1.395   .     A
C38    S299    1.774   .     S
C38    C336    1.414   .     A
C39    S300    1.774   .     S
C39    C110    1.395   .     A
C39    C337    1.414   .     A
C40    S286    1.774   .     S
C41    C655    1.414   .     A
C41    S287    1.774   .     S
C42    S288    1.774   .     S
C43    S289    1.774   .     S
C44    H143    1.083   .     S
C44    C50     1.398   .     S
C45    S290    1.774   .     S
C45    C338    1.414   .     S
C46    S291    1.774   .     S
C47    S292    1.774   .     S
C47    C657    1.414   .     S
C48    C66     1.398   .     A
C48    C633    1.398   1_545 S
C48    C49     1.466   1_554 S
C49    C77     1.398   .     A
C49    C48     1.466   1_556 S
C49    C665    1.398   1_545 S
C50    C404    1.398   1_455 A
C50    C51     1.466   1_554 S
C51    C415    1.398   1_455 A
C51    C50     1.466   1_556 S
C51    C55     1.398   .     S
C52    C426    1.398   1_455 A
C52    C53     1.466   .     S
C53    C343    1.398   1_455 A
C54    C56     1.466   .     S
C54    C645    1.398   1_545 S
C55    H154    1.083   .     S
C56    C661    1.398   1_545 S
C57    O274    1.279   .     A
C57    O862    1.279   1_545 S
C58    O818    1.279   1_545 A
C58    O241    1.279   .     S
C59    O252    1.279   .     A
C59    O504    1.279   1_455 S
C60    O579    1.279   1_455 A
C60    O189    1.279   .     S
C61    O190    1.279   .     A
C61    O194    1.279   .     A
C62    O191    1.279   .     S
C62    O195    1.279   .     S
C63    O196    1.279   .     A
C63    O192    1.279   .     A
C64    O198    1.279   .     A
C64    O193    1.279   .     A
C65    O199    1.279   .     A
C65    C120    1.456   .     S
C65    O227    1.279   .     A
C66    H165    1.083   .     S
C67    O200    1.279   .     A
C67    O228    1.279   .     A
C68    O225    1.279   .     A
C68    O201    1.279   .     A
C69    O226    1.279   .     A
C69    O202    1.279   .     A
C70    O203    1.279   .     A
C70    O232    1.279   .     A
C71    O204    1.279   .     A
C71    O233    1.279   .     A
C72    C118    1.456   .     S
C72    O205    1.279   .     A
C72    O229    1.279   .     A
C73    O206    1.279   .     A
C73    C119    1.456   .     S
C73    O231    1.279   .     A
C74    O207    1.279   .     A
C74    O218    1.279   .     A
C75    O209    1.279   .     A
C75    O220    1.279   .     A
C76    O210    1.279   .     A
C76    O216    1.279   .     A
C77    H176    1.083   .     S
C78    O217    1.279   .     A
C78    O211    1.279   .     A
C79    O212    1.279   .     A
C79    O223    1.279   .     A
C80    O224    1.279   .     A
C80    O213    1.279   .     A
C81    O221    1.279   .     A
C81    O214    1.279   .     A
C82    O222    1.279   .     A
C82    O215    1.279   .     A
C83    C100    1.387   .     A
C83    H129    1.083   .     S
C84    H130    1.083   .     S
C84    C98     1.387   .     A
C85    H131    1.083   .     S
C85    C97     1.387   .     A
C86    H133    1.083   .     S
C86    C96     1.387   .     A
C87    C95     1.387   .     A
C87    H134    1.083   .     S
C88    H182    1.083   .     S
C88    C366    1.398   .     A
C89    C94     1.387   .     A
C89    H135    1.083   .     S
C90    C93     1.387   .     A
C90    H136    1.083   .     S
C91    C92     1.387   .     A
C91    H137    1.083   .     S
C92    H138    1.083   .     S
C93    H139    1.083   .     S
C94    H140    1.083   .     S
C95    H141    1.083   .     S
C96    H142    1.083   .     S
C97    H144    1.083   .     S
C97    C120    1.402   .     A
C98    H145    1.083   .     S
C98    C119    1.402   .     A
C99    H183    1.083   .     S
C99    C367    1.398   .     A
C100   C118    1.402   .     A
C100   H146    1.083   .     S
C101   H147    1.083   .     S
C101   C117    1.387   .     A
C101   C119    1.402   .     A
C102   H148    1.083   .     S
C102   C118    1.402   .     A
C102   C116    1.387   .     A
C103   C115    1.387   .     A
C103   H149    1.083   .     S
C104   H150    1.083   .     S
C104   C120    1.402   .     A
C104   C114    1.387   .     A
C105   H151    1.083   .     S
C105   C113    1.387   .     A
C106   H152    1.083   .     S
C106   C112    1.387   .     A
C107   H153    1.083   .     S
C107   C111    1.387   .     A
C108   C109    1.387   .     A
C108   H155    1.083   .     S
C109   H156    1.083   .     S
C110   C368    1.398   .     A
C110   H184    1.083   .     S
C111   H157    1.083   .     S
C112   H158    1.083   .     S
C113   H159    1.083   .     S
C114   H160    1.083   .     S
C115   H161    1.083   .     S
C116   H162    1.083   .     S
C117   H163    1.083   .     S
H164   O236    0.991   .     S
H166   O239    0.991   .     S
H167   O243    0.991   .     S
H168   O246    0.991   .     S
H169   O249    0.991   .     S
H170   O253    0.991   .     S
H171   O256    0.991   .     S
H172   O259    0.991   .     S
H173   O262    0.991   .     S
H174   O266    0.991   .     S
H175   O269    0.991   .     S
H177   O272    0.991   .     S
H178   O276    0.991   .     S
H179   O279    0.991   .     S
H180   O282    0.991   .     S
H181   O187    0.991   .     S
O185   Zn301   1.944   .     S
O185   Zn312   1.944   .     S
O185   Zn304   1.944   .     S
O185   Zn940   1.944   1_545 S
O186   C690    1.279   .     A
O186   Zn303   1.933   .     S
O187   S292    1.683   .     S
O188   Zn306   1.933   .     S
O188   C375    1.279   .     S
O189   Zn305   1.933   .     S
O190   Zn315   1.933   .     S
O191   Zn314   1.933   .     S
O192   Zn309   1.933   .     S
O193   Zn301   1.933   .     S
O194   Zn311   1.933   .     S
O195   Zn310   1.933   .     S
O196   Zn313   1.933   .     S
O197   Zn307   1.944   .     S
O197   Zn313   1.944   .     S
O197   Zn309   1.944   .     S
O197   Zn935   1.944   1_545 S
O198   Zn312   1.933   .     S
O199   Zn304   1.938   .     S
O200   Zn303   1.938   .     S
O201   Zn306   1.938   .     S
O202   Zn305   1.938   .     S
O203   Zn308   1.938   .     S
O204   Zn307   1.938   .     S
O205   Zn302   1.938   .     S
O206   Zn316   1.938   .     S
O207   Zn303   1.938   .     S
O208   Zn310   1.944   .     S
O208   Zn622   1.944   1_455 S
O208   Zn302   1.944   .     S
O208   Zn314   1.944   .     S
O209   Zn304   1.938   .     S
O210   Zn316   1.938   .     S
O211   Zn302   1.938   .     S
O212   Zn307   1.938   .     S
O213   Zn308   1.938   .     S
O214   Zn305   1.938   .     S
O215   Zn306   1.938   .     S
O216   Zn627   1.938   .     S
O217   Zn310   1.938   .     S
O218   Zn945   1.938   .     S
O219   Zn315   1.944   .     S
O219   Zn311   1.944   .     S
O219   Zn305   1.944   .     S
O219   Zn632   1.944   1_455 S
O220   Zn312   1.938   .     S
O221   Zn315   1.938   .     S
O222   Zn630   1.938   .     S
O223   Zn309   1.938   .     S
O224   Zn933   1.938   .     S
O225   Zn626   1.938   .     S
O226   Zn311   1.938   .     S
O227   Zn301   1.938   .     S
O228   Zn941   1.938   .     S
O229   Zn314   1.938   .     S
O230   Zn308   1.933   .     S
O230   C689    1.279   .     S
O231   Zn631   1.938   .     S
O232   Zn944   1.938   .     S
O233   Zn313   1.938   .     S
O234   S285    1.503   .     D
O235   S285    1.503   .     D
O236   S285    1.683   .     S
O237   S293    1.503   .     D
O238   S293    1.503   .     D
O239   S293    1.683   .     S
O240   S294    1.503   .     D
O241   Zn307   1.933   .     S
O242   S294    1.503   .     D
O243   S294    1.683   .     S
O244   S295    1.503   .     D
O245   S295    1.503   .     D
O246   S295    1.683   .     S
O247   S296    1.503   .     D
O248   S296    1.503   .     D
O249   S296    1.683   .     S
O250   S297    1.503   .     D
O251   S297    1.503   .     D
O252   Zn302   1.933   .     S
O253   S297    1.683   .     S
O254   S298    1.503   .     D
O255   S298    1.503   .     D
O256   S298    1.683   .     S
O257   S299    1.503   .     D
O258   S299    1.503   .     D
O259   S299    1.683   .     S
O260   S300    1.503   .     D
O261   S300    1.503   .     D
O262   S300    1.683   .     S
O263   C376    1.279   .     A
O263   Zn316   1.933   .     S
O264   S286    1.503   .     D
O265   S286    1.503   .     D
O266   S286    1.683   .     S
O267   S287    1.503   .     D
O268   S287    1.503   .     D
O269   S287    1.683   .     S
O270   S288    1.503   .     D
O271   S288    1.503   .     D
O272   S288    1.683   .     S
O273   S289    1.503   .     D
O274   Zn304   1.933   .     S
O275   S289    1.503   .     D
O276   S289    1.683   .     S
O277   S290    1.503   .     D
O278   S290    1.503   .     D
O279   S290    1.683   .     S
O280   S291    1.503   .     D
O281   S291    1.503   .     D
O282   S291    1.683   .     S
O283   S292    1.503   .     D
O284   S292    1.503   .     D
Zn301  O856    1.938   1_545 S
Zn303  O829    1.944   .     S
Zn306  O524    1.944   .     S
Zn308  O817    1.944   .     S
Zn309  O860    1.938   1_545 S
Zn310  O541    1.938   1_455 S
Zn311  O532    1.938   1_455 S
Zn312  O864    1.938   1_545 S
Zn313  O850    1.938   1_545 S
Zn314  O538    1.938   1_455 S
Zn315  O547    1.938   1_455 S
Zn316  O535    1.944   .     S
C317   H437    1.083   .     S
C317   C346    1.395   .     A
C317   C996    1.398   .     S
C318   C356    1.395   .     A
C318   H438    1.083   .     S
C318   C369    1.398   .     S
C319   C419    1.402   .     A
C319   C412    1.402   .     A
C319   C383    1.456   .     S
C320   C384    1.456   .     S
C320   C422    1.402   .     A
C320   C411    1.402   .     A
C321   C421    1.402   .     A
C321   C410    1.402   .     A
C321   C385    1.456   .     S
C322   C409    1.402   .     A
C322   C386    1.456   .     S
C322   C424    1.402   .     A
C323   C408    1.402   .     A
C323   C423    1.402   .     A
C323   C387    1.456   .     S
C324   C397    1.456   .     S
C324   C427    1.402   .     A
C324   C407    1.402   .     A
C325   C406    1.402   .     A
C325   C398    1.456   .     S
C325   C425    1.402   .     A
C326   C429    1.402   .     A
C326   C405    1.402   .     A
C326   C390    1.456   .     S
C327   C428    1.402   .     A
C327   C403    1.402   .     A
C327   C391    1.456   .     S
C328   C431    1.402   .     A
C328   C402    1.402   .     A
C328   C392    1.456   .     S
C329   C357    1.395   .     A
C329   H439    1.083   .     S
C329   C1002   1.398   .     S
C330   C430    1.402   .     A
C330   C401    1.402   .     A
C330   C394    1.456   .     S
C331   C400    1.402   .     A
C331   C395    1.456   .     S
C331   C433    1.402   .     A
C332   C396    1.456   .     S
C332   C432    1.402   .     A
C332   C399    1.402   .     A
C333   C351    1.414   .     A
C333   C380    1.457   .     S
C333   C978    1.414   1_545 S
C334   C352    1.414   .     A
C334   C379    1.457   .     S
C334   C979    1.414   1_545 S
C335   C348    1.414   .     S
C335   C378    1.457   .     S
C336   C350    1.414   .     S
C336   C377    1.457   .     S
C337   C376    1.457   .     S
C337   C359    1.414   .     S
C338   C375    1.457   .     S
C338   C356    1.414   .     A
C339   C989    1.414   1_545 A
C339   C374    1.457   .     S
C339   C362    1.414   .     S
C340   C358    1.395   .     A
C340   C372    1.398   .     A
C340   H440    1.083   .     S
C341   C373    1.457   .     S
C341   C358    1.414   .     A
C341   C995    1.414   1_545 S
C342   H441    1.083   .     S
C342   C359    1.395   .     A
C342   C368    1.398   .     S
C343   C53     1.398   1_655 A
C343   H442    1.083   .     S
C343   C361    1.395   .     A
C344   C370    1.398   .     A
C344   C362    1.395   .     A
C344   H443    1.083   .     S
C345   C363    1.395   .     A
C345   H444    1.083   .     S
C345   C1004   1.398   .     S
C346   S601    1.774   .     S
C346   C965    1.414   .     S
C347   S609    1.774   .     S
C347   C349    1.395   .     A
C347   C966    1.414   .     S
C348   S610    1.774   .     S
C348   C360    1.395   .     A
C349   H448    1.083   .     S
C349   C997    1.398   .     S
C350   C371    1.395   .     A
C350   S611    1.774   .     S
C351   C382    1.395   .     A
C351   S612    1.774   .     S
C352   C393    1.395   .     A
C352   S613    1.774   .     S
C353   S614    1.774   .     S
C353   C19     1.414   1_655 A
C353   C404    1.395   .     A
C354   C415    1.395   .     A
C354   S615    1.774   .     S
C354   C20     1.414   1_655 A
C355   S616    1.774   .     S
C355   C426    1.395   .     A
C355   C21     1.414   1_655 A
C356   S602    1.774   .     S
C357   C971    1.414   .     A
C357   S603    1.774   .     S
C358   S604    1.774   .     S
C359   S605    1.774   .     S
C360   H459    1.083   .     S
C360   C366    1.398   .     S
C361   S606    1.774   .     S
C361   C22     1.414   1_655 S
C362   S607    1.774   .     S
C363   S608    1.774   .     S
C363   C973    1.414   .     S
C364   C382    1.398   .     A
C364   C949    1.398   1_545 S
C364   C365    1.466   1_554 S
C365   C393    1.398   .     A
C365   C364    1.466   1_556 S
C365   C981    1.398   1_545 S
C366   C367    1.466   1_554 S
C367   C366    1.466   1_556 S
C367   C371    1.398   .     S
C368   C369    1.466   .     S
C370   C372    1.466   .     S
C370   C961    1.398   1_545 S
C371   H470    1.083   .     S
C372   C977    1.398   1_545 S
C373   O590    1.279   .     A
C373   O1178   1.279   1_545 S
C374   O1134   1.279   1_545 A
C374   O557    1.279   .     S
C375   O568    1.279   .     A
C376   O505    1.279   .     S
C377   O506    1.279   .     A
C377   O510    1.279   .     A
C378   O507    1.279   .     S
C378   O511    1.279   .     S
C379   O512    1.279   .     A
C379   O508    1.279   .     A
C380   O514    1.279   .     A
C380   O509    1.279   .     A
C381   O515    1.279   .     A
C381   C436    1.456   .     S
C381   O543    1.279   .     A
C382   H481    1.083   .     S
C383   O516    1.279   .     A
C383   O544    1.279   .     A
C384   O541    1.279   .     A
C384   O517    1.279   .     A
C385   O542    1.279   .     A
C385   O518    1.279   .     A
C386   O519    1.279   .     A
C386   O548    1.279   .     A
C387   O520    1.279   .     A
C387   O549    1.279   .     A
C388   C434    1.456   .     S
C388   O521    1.279   .     A
C388   O545    1.279   .     A
C389   O522    1.279   .     A
C389   C435    1.456   .     S
C389   O547    1.279   .     A
C390   O523    1.279   .     A
C390   O534    1.279   .     A
C391   O525    1.279   .     A
C391   O536    1.279   .     A
C392   O526    1.279   .     A
C392   O532    1.279   .     A
C393   H492    1.083   .     S
C394   O533    1.279   .     A
C394   O527    1.279   .     A
C395   O528    1.279   .     A
C395   O539    1.279   .     A
C396   O540    1.279   .     A
C396   O529    1.279   .     A
C397   O537    1.279   .     A
C397   O530    1.279   .     A
C398   O538    1.279   .     A
C398   O531    1.279   .     A
C399   C416    1.387   .     A
C399   H445    1.083   .     S
C400   H446    1.083   .     S
C400   C414    1.387   .     A
C401   H447    1.083   .     S
C401   C413    1.387   .     A
C402   H449    1.083   .     S
C402   C412    1.387   .     A
C403   C411    1.387   .     A
C403   H450    1.083   .     S
C404   H498    1.083   .     S
C404   C50     1.398   1_655 A
C405   C410    1.387   .     A
C405   H451    1.083   .     S
C406   C409    1.387   .     A
C406   H452    1.083   .     S
C407   C408    1.387   .     A
C407   H453    1.083   .     S
C408   H454    1.083   .     S
C409   H455    1.083   .     S
C410   H456    1.083   .     S
C411   H457    1.083   .     S
C412   H458    1.083   .     S
C413   H460    1.083   .     S
C413   C436    1.402   .     A
C414   H461    1.083   .     S
C414   C435    1.402   .     A
C415   H499    1.083   .     S
C415   C51     1.398   1_655 A
C416   C434    1.402   .     A
C416   H462    1.083   .     S
C417   H463    1.083   .     S
C417   C433    1.387   .     A
C417   C435    1.402   .     A
C418   H464    1.083   .     S
C418   C434    1.402   .     A
C418   C432    1.387   .     A
C419   C431    1.387   .     A
C419   H465    1.083   .     S
C420   H466    1.083   .     S
C420   C436    1.402   .     A
C420   C430    1.387   .     A
C421   H467    1.083   .     S
C421   C429    1.387   .     A
C422   H468    1.083   .     S
C422   C428    1.387   .     A
C423   H469    1.083   .     S
C423   C427    1.387   .     A
C424   C425    1.387   .     A
C424   H471    1.083   .     S
C425   H472    1.083   .     S
C426   C52     1.398   1_655 A
C426   H500    1.083   .     S
C427   H473    1.083   .     S
C428   H474    1.083   .     S
C429   H475    1.083   .     S
C430   H476    1.083   .     S
C431   H477    1.083   .     S
C432   H478    1.083   .     S
C433   H479    1.083   .     S
H480   O552    0.991   .     S
H482   O555    0.991   .     S
H483   O559    0.991   .     S
H484   O562    0.991   .     S
H485   O565    0.991   .     S
H486   O569    0.991   .     S
H487   O572    0.991   .     S
H488   O575    0.991   .     S
H489   O578    0.991   .     S
H490   O582    0.991   .     S
H491   O585    0.991   .     S
H493   O588    0.991   .     S
H494   O592    0.991   .     S
H495   O595    0.991   .     S
H496   O598    0.991   .     S
H497   O503    0.991   .     S
O501   Zn617   1.944   .     S
O501   Zn628   1.944   .     S
O501   Zn620   1.944   .     S
O501   Zn1256  1.944   1_545 S
O502   C1006   1.279   .     A
O502   Zn619   1.933   .     S
O503   S608    1.683   .     S
O504   Zn622   1.933   .     S
O504   C59     1.279   1_655 S
O505   Zn621   1.933   .     S
O506   Zn631   1.933   .     S
O507   Zn630   1.933   .     S
O508   Zn625   1.933   .     S
O509   Zn617   1.933   .     S
O510   Zn627   1.933   .     S
O511   Zn626   1.933   .     S
O512   Zn629   1.933   .     S
O513   Zn623   1.944   .     S
O513   Zn629   1.944   .     S
O513   Zn625   1.944   .     S
O513   Zn1251  1.944   1_545 S
O514   Zn628   1.933   .     S
O515   Zn620   1.938   .     S
O516   Zn619   1.938   .     S
O517   Zn622   1.938   .     S
O518   Zn621   1.938   .     S
O519   Zn624   1.938   .     S
O520   Zn623   1.938   .     S
O521   Zn618   1.938   .     S
O522   Zn632   1.938   .     S
O523   Zn619   1.938   .     S
O524   Zn626   1.944   .     S
O524   Zn618   1.944   .     S
O524   Zn630   1.944   .     S
O525   Zn620   1.938   .     S
O526   Zn632   1.938   .     S
O527   Zn618   1.938   .     S
O528   Zn623   1.938   .     S
O529   Zn624   1.938   .     S
O530   Zn621   1.938   .     S
O531   Zn622   1.938   .     S
O532   Zn311   1.938   1_655 S
O533   Zn626   1.938   .     S
O534   Zn1261  1.938   .     S
O535   Zn631   1.944   .     S
O535   Zn627   1.944   .     S
O535   Zn621   1.944   .     S
O536   Zn628   1.938   .     S
O537   Zn631   1.938   .     S
O538   Zn314   1.938   1_655 S
O539   Zn625   1.938   .     S
O540   Zn1249  1.938   .     S
O541   Zn310   1.938   1_655 S
O542   Zn627   1.938   .     S
O543   Zn617   1.938   .     S
O544   Zn1257  1.938   .     S
O545   Zn630   1.938   .     S
O546   Zn624   1.933   .     S
O546   C1005   1.279   .     S
O547   Zn315   1.938   1_655 S
O548   Zn1260  1.938   .     S
O549   Zn629   1.938   .     S
O550   S601    1.503   .     D
O551   S601    1.503   .     D
O552   S601    1.683   .     S
O553   S609    1.503   .     D
O554   S609    1.503   .     D
O555   S609    1.683   .     S
O556   S610    1.503   .     D
O557   Zn623   1.933   .     S
O558   S610    1.503   .     D
O559   S610    1.683   .     S
O560   S611    1.503   .     D
O561   S611    1.503   .     D
O562   S611    1.683   .     S
O563   S612    1.503   .     D
O564   S612    1.503   .     D
O565   S612    1.683   .     S
O566   S613    1.503   .     D
O567   S613    1.503   .     D
O568   Zn618   1.933   .     S
O569   S613    1.683   .     S
O570   S614    1.503   .     D
O571   S614    1.503   .     D
O572   S614    1.683   .     S
O573   S615    1.503   .     D
O574   S615    1.503   .     D
O575   S615    1.683   .     S
O576   S616    1.503   .     D
O577   S616    1.503   .     D
O578   S616    1.683   .     S
O579   C60     1.279   1_655 A
O579   Zn632   1.933   .     S
O580   S602    1.503   .     D
O581   S602    1.503   .     D
O582   S602    1.683   .     S
O583   S603    1.503   .     D
O584   S603    1.503   .     D
O585   S603    1.683   .     S
O586   S604    1.503   .     D
O587   S604    1.503   .     D
O588   S604    1.683   .     S
O589   S605    1.503   .     D
O590   Zn620   1.933   .     S
O591   S605    1.503   .     D
O592   S605    1.683   .     S
O593   S606    1.503   .     D
O594   S606    1.503   .     D
O595   S606    1.683   .     S
O596   S607    1.503   .     D
O597   S607    1.503   .     D
O598   S607    1.683   .     S
O599   S608    1.503   .     D
O600   S608    1.503   .     D
Zn617  O1172   1.938   1_545 S
Zn619  O1145   1.944   .     S
Zn622  O208    1.944   1_655 S
Zn624  O1133   1.944   .     S
Zn625  O1176   1.938   1_545 S
Zn628  O1180   1.938   1_545 S
Zn629  O1166   1.938   1_545 S
Zn632  O219    1.944   1_655 S
C633   H753    1.083   .     S
C633   C662    1.395   .     A
C633   C48     1.398   1_565 S
C634   C672    1.395   .     A
C634   H754    1.083   .     S
C634   C685    1.398   .     S
C635   C735    1.402   .     A
C635   C728    1.402   .     A
C635   C699    1.456   .     S
C636   C700    1.456   .     S
C636   C738    1.402   .     A
C636   C727    1.402   .     A
C637   C737    1.402   .     A
C637   C726    1.402   .     A
C637   C701    1.456   .     S
C638   C725    1.402   .     A
C638   C702    1.456   .     S
C638   C740    1.402   .     A
C639   C724    1.402   .     A
C639   C739    1.402   .     A
C639   C703    1.456   .     S
C640   C713    1.456   .     S
C640   C743    1.402   .     A
C640   C723    1.402   .     A
C641   C722    1.402   .     A
C641   C714    1.456   .     S
C641   C741    1.402   .     A
C642   C745    1.402   .     A
C642   C721    1.402   .     A
C642   C706    1.456   .     S
C643   C744    1.402   .     A
C643   C719    1.402   .     A
C643   C707    1.456   .     S
C644   C747    1.402   .     A
C644   C718    1.402   .     A
C644   C708    1.456   .     S
C645   C673    1.395   .     A
C645   H755    1.083   .     S
C645   C54     1.398   1_565 S
C646   C746    1.402   .     A
C646   C717    1.402   .     A
C646   C710    1.456   .     S
C647   C716    1.402   .     A
C647   C711    1.456   .     S
C647   C749    1.402   .     A
C648   C712    1.456   .     S
C648   C748    1.402   .     A
C648   C715    1.402   .     A
C649   C667    1.414   .     A
C649   C696    1.457   .     S
C650   C668    1.414   .     A
C650   C695    1.457   .     S
C651   C985    1.414   1_455 A
C651   C664    1.414   .     S
C651   C694    1.457   .     S
C652   C986    1.414   1_455 A
C652   C666    1.414   .     S
C652   C693    1.457   .     S
C653   C692    1.457   .     S
C653   C987    1.414   1_455 A
C653   C675    1.414   .     S
C654   C691    1.457   .     S
C654   C672    1.414   .     A
C654   C993    1.414   1_455 S
C655   C690    1.457   .     S
C655   C678    1.414   .     S
C656   C674    1.395   .     A
C656   C688    1.398   .     A
C656   H756    1.083   .     S
C657   C689    1.457   .     S
C657   C674    1.414   .     A
C658   H757    1.083   .     S
C658   C675    1.395   .     A
C658   C684    1.398   .     S
C659   C1001   1.398   .     A
C659   H758    1.083   .     S
C659   C677    1.395   .     A
C660   C686    1.398   .     A
C660   C678    1.395   .     A
C660   H759    1.083   .     S
C661   C679    1.395   .     A
C661   H760    1.083   .     S
C661   C56     1.398   1_565 S
C662   S917    1.774   .     S
C662   C17     1.414   1_565 S
C663   S925    1.774   .     S
C663   C665    1.395   .     A
C663   C18     1.414   1_565 S
C664   S926    1.774   .     S
C664   C676    1.395   .     A
C665   H764    1.083   .     S
C665   C49     1.398   1_565 S
C666   C687    1.395   .     A
C666   S927    1.774   .     S
C667   C698    1.395   .     A
C667   S928    1.774   .     S
C668   C709    1.395   .     A
C668   S929    1.774   .     S
C669   S930    1.774   .     S
C669   C967    1.414   .     A
C669   C720    1.395   .     A
C670   C731    1.395   .     A
C670   S931    1.774   .     S
C670   C968    1.414   .     A
C671   S932    1.774   .     S
C671   C742    1.395   .     A
C671   C969    1.414   .     A
C672   S918    1.774   .     S
C673   C23     1.414   1_565 A
C673   S919    1.774   .     S
C674   S920    1.774   .     S
C675   S921    1.774   .     S
C676   H775    1.083   .     S
C676   C682    1.398   .     S
C677   S922    1.774   .     S
C677   C970    1.414   .     S
C678   S923    1.774   .     S
C679   S924    1.774   .     S
C679   C25     1.414   1_565 S
C680   C698    1.398   .     A
C680   C681    1.466   1_554 S
C681   C709    1.398   .     A
C681   C680    1.466   1_556 S
C682   C1036   1.398   1_455 A
C682   C683    1.466   1_554 S
C683   C1047   1.398   1_455 A
C683   C682    1.466   1_556 S
C683   C687    1.398   .     S
C684   C1058   1.398   1_455 A
C684   C685    1.466   .     S
C685   C975    1.398   1_455 A
C686   C688    1.466   .     S
C687   H786    1.083   .     S
C689   O906    1.279   .     A
C690   O873    1.279   .     S
C691   O884    1.279   .     A
C691   O1136   1.279   1_455 S
C692   O1211   1.279   1_455 A
C692   O821    1.279   .     S
C693   O822    1.279   .     A
C693   O826    1.279   .     A
C694   O823    1.279   .     S
C694   O827    1.279   .     S
C695   O828    1.279   .     A
C695   O824    1.279   .     A
C696   O830    1.279   .     A
C696   O825    1.279   .     A
C697   O831    1.279   .     A
C697   C752    1.456   .     S
C697   O859    1.279   .     A
C698   H797    1.083   .     S
C699   O832    1.279   .     A
C699   O860    1.279   .     A
C700   O857    1.279   .     A
C700   O833    1.279   .     A
C701   O858    1.279   .     A
C701   O834    1.279   .     A
C702   O835    1.279   .     A
C702   O864    1.279   .     A
C703   O836    1.279   .     A
C703   O865    1.279   .     A
C704   C750    1.456   .     S
C704   O837    1.279   .     A
C704   O861    1.279   .     A
C705   O838    1.279   .     A
C705   C751    1.456   .     S
C705   O863    1.279   .     A
C706   O839    1.279   .     A
C706   O850    1.279   .     A
C707   O841    1.279   .     A
C707   O852    1.279   .     A
C708   O842    1.279   .     A
C708   O848    1.279   .     A
C709   H808    1.083   .     S
C710   O849    1.279   .     A
C710   O843    1.279   .     A
C711   O844    1.279   .     A
C711   O855    1.279   .     A
C712   O856    1.279   .     A
C712   O845    1.279   .     A
C713   O853    1.279   .     A
C713   O846    1.279   .     A
C714   O854    1.279   .     A
C714   O847    1.279   .     A
C715   C732    1.387   .     A
C715   H761    1.083   .     S
C716   H762    1.083   .     S
C716   C730    1.387   .     A
C717   H763    1.083   .     S
C717   C729    1.387   .     A
C718   H765    1.083   .     S
C718   C728    1.387   .     A
C719   C727    1.387   .     A
C719   H766    1.083   .     S
C720   H814    1.083   .     S
C720   C998    1.398   .     A
C721   C726    1.387   .     A
C721   H767    1.083   .     S
C722   C725    1.387   .     A
C722   H768    1.083   .     S
C723   C724    1.387   .     A
C723   H769    1.083   .     S
C724   H770    1.083   .     S
C725   H771    1.083   .     S
C726   H772    1.083   .     S
C727   H773    1.083   .     S
C728   H774    1.083   .     S
C729   H776    1.083   .     S
C729   C752    1.402   .     A
C730   H777    1.083   .     S
C730   C751    1.402   .     A
C731   H815    1.083   .     S
C731   C999    1.398   .     A
C732   C750    1.402   .     A
C732   H778    1.083   .     S
C733   H779    1.083   .     S
C733   C749    1.387   .     A
C733   C751    1.402   .     A
C734   H780    1.083   .     S
C734   C750    1.402   .     A
C734   C748    1.387   .     A
C735   C747    1.387   .     A
C735   H781    1.083   .     S
C736   H782    1.083   .     S
C736   C752    1.402   .     A
C736   C746    1.387   .     A
C737   H783    1.083   .     S
C737   C745    1.387   .     A
C738   H784    1.083   .     S
C738   C744    1.387   .     A
C739   H785    1.083   .     S
C739   C743    1.387   .     A
C740   C741    1.387   .     A
C740   H787    1.083   .     S
C741   H788    1.083   .     S
C742   C1000   1.398   .     A
C742   H816    1.083   .     S
C743   H789    1.083   .     S
C744   H790    1.083   .     S
C745   H791    1.083   .     S
C746   H792    1.083   .     S
C747   H793    1.083   .     S
C748   H794    1.083   .     S
C749   H795    1.083   .     S
H796   O868    0.991   .     S
H798   O871    0.991   .     S
H799   O875    0.991   .     S
H800   O878    0.991   .     S
H801   O881    0.991   .     S
H802   O885    0.991   .     S
H803   O888    0.991   .     S
H804   O891    0.991   .     S
H805   O894    0.991   .     S
H806   O898    0.991   .     S
H807   O901    0.991   .     S
H809   O904    0.991   .     S
H810   O908    0.991   .     S
H811   O911    0.991   .     S
H812   O914    0.991   .     S
H813   O819    0.991   .     S
O817   Zn933   1.944   .     S
O817   Zn944   1.944   .     S
O817   Zn936   1.944   .     S
O818   C58     1.279   1_565 A
O818   Zn935   1.933   .     S
O819   S924    1.683   .     S
O820   Zn938   1.933   .     S
O820   C1007   1.279   .     S
O821   Zn937   1.933   .     S
O822   Zn947   1.933   .     S
O823   Zn946   1.933   .     S
O824   Zn941   1.933   .     S
O825   Zn933   1.933   .     S
O826   Zn943   1.933   .     S
O827   Zn942   1.933   .     S
O828   Zn945   1.933   .     S
O829   Zn939   1.944   .     S
O829   Zn945   1.944   .     S
O829   Zn941   1.944   .     S
O830   Zn944   1.933   .     S
O831   Zn936   1.938   .     S
O832   Zn935   1.938   .     S
O833   Zn938   1.938   .     S
O834   Zn937   1.938   .     S
O835   Zn940   1.938   .     S
O836   Zn939   1.938   .     S
O837   Zn934   1.938   .     S
O838   Zn948   1.938   .     S
O839   Zn935   1.938   .     S
O840   Zn942   1.944   .     S
O840   Zn1254  1.944   1_455 S
O840   Zn934   1.944   .     S
O840   Zn946   1.944   .     S
O841   Zn936   1.938   .     S
O842   Zn948   1.938   .     S
O843   Zn934   1.938   .     S
O844   Zn939   1.938   .     S
O845   Zn940   1.938   .     S
O846   Zn937   1.938   .     S
O847   Zn938   1.938   .     S
O848   Zn1259  1.938   .     S
O849   Zn942   1.938   .     S
O850   Zn313   1.938   1_565 S
O851   Zn947   1.944   .     S
O851   Zn943   1.944   .     S
O851   Zn937   1.944   .     S
O851   Zn1264  1.944   1_455 S
O852   Zn944   1.938   .     S
O853   Zn947   1.938   .     S
O854   Zn1262  1.938   .     S
O855   Zn941   1.938   .     S
O856   Zn301   1.938   1_565 S
O857   Zn1258  1.938   .     S
O858   Zn943   1.938   .     S
O859   Zn933   1.938   .     S
O860   Zn309   1.938   1_565 S
O861   Zn946   1.938   .     S
O862   Zn940   1.933   .     S
O862   C57     1.279   1_565 S
O863   Zn1263  1.938   .     S
O864   Zn312   1.938   1_565 S
O865   Zn945   1.938   .     S
O866   S917    1.503   .     D
O867   S917    1.503   .     D
O868   S917    1.683   .     S
O869   S925    1.503   .     D
O870   S925    1.503   .     D
O871   S925    1.683   .     S
O872   S926    1.503   .     D
O873   Zn939   1.933   .     S
O874   S926    1.503   .     D
O875   S926    1.683   .     S
O876   S927    1.503   .     D
O877   S927    1.503   .     D
O878   S927    1.683   .     S
O879   S928    1.503   .     D
O880   S928    1.503   .     D
O881   S928    1.683   .     S
O882   S929    1.503   .     D
O883   S929    1.503   .     D
O884   Zn934   1.933   .     S
O885   S929    1.683   .     S
O886   S930    1.503   .     D
O887   S930    1.503   .     D
O888   S930    1.683   .     S
O889   S931    1.503   .     D
O890   S931    1.503   .     D
O891   S931    1.683   .     S
O892   S932    1.503   .     D
O893   S932    1.503   .     D
O894   S932    1.683   .     S
O895   C1008   1.279   .     A
O895   Zn948   1.933   .     S
O896   S918    1.503   .     D
O897   S918    1.503   .     D
O898   S918    1.683   .     S
O899   S919    1.503   .     D
O900   S919    1.503   .     D
O901   S919    1.683   .     S
O902   S920    1.503   .     D
O903   S920    1.503   .     D
O904   S920    1.683   .     S
O905   S921    1.503   .     D
O906   Zn936   1.933   .     S
O907   S921    1.503   .     D
O908   S921    1.683   .     S
O909   S922    1.503   .     D
O910   S922    1.503   .     D
O911   S922    1.683   .     S
O912   S923    1.503   .     D
O913   S923    1.503   .     D
O914   S923    1.683   .     S
O915   S924    1.503   .     D
O916   S924    1.503   .     D
Zn935  O197    1.944   1_565 S
Zn938  O1156   1.944   .     S
Zn940  O185    1.944   1_565 S
Zn942  O1173   1.938   1_455 S
Zn943  O1164   1.938   1_455 S
Zn946  O1170   1.938   1_455 S
Zn947  O1179   1.938   1_455 S
Zn948  O1167   1.944   .     S
C949   H1069   1.083   .     S
C949   C978    1.395   .     A
C949   C364    1.398   1_565 S
C950   C988    1.395   .     A
C950   H1070   1.083   .     S
C950   C1001   1.398   .     S
C951   C1051   1.402   .     A
C951   C1044   1.402   .     A
C951   C1015   1.456   .     S
C952   C1016   1.456   .     S
C952   C1054   1.402   .     A
C952   C1043   1.402   .     A
C953   C1053   1.402   .     A
C953   C1042   1.402   .     A
C953   C1017   1.456   .     S
C954   C1041   1.402   .     A
C954   C1018   1.456   .     S
C954   C1056   1.402   .     A
C955   C1040   1.402   .     A
C955   C1055   1.402   .     A
C955   C1019   1.456   .     S
C956   C1029   1.456   .     S
C956   C1059   1.402   .     A
C956   C1039   1.402   .     A
C957   C1038   1.402   .     A
C957   C1030   1.456   .     S
C957   C1057   1.402   .     A
C958   C1061   1.402   .     A
C958   C1037   1.402   .     A
C958   C1022   1.456   .     S
C959   C1060   1.402   .     A
C959   C1035   1.402   .     A
C959   C1023   1.456   .     S
C960   C1063   1.402   .     A
C960   C1034   1.402   .     A
C960   C1024   1.456   .     S
C961   C989    1.395   .     A
C961   H1071   1.083   .     S
C961   C370    1.398   1_565 S
C962   C1062   1.402   .     A
C962   C1033   1.402   .     A
C962   C1026   1.456   .     S
C963   C1032   1.402   .     A
C963   C1027   1.456   .     S
C963   C1065   1.402   .     A
C964   C1028   1.456   .     S
C964   C1064   1.402   .     A
C964   C1031   1.402   .     A
C965   C983    1.414   .     A
C965   C1012   1.457   .     S
C966   C984    1.414   .     A
C966   C1011   1.457   .     S
C967   C980    1.414   .     S
C967   C1010   1.457   .     S
C968   C982    1.414   .     S
C968   C1009   1.457   .     S
C969   C1008   1.457   .     S
C969   C991    1.414   .     S
C970   C1007   1.457   .     S
C970   C988    1.414   .     A
C971   C1006   1.457   .     S
C971   C994    1.414   .     S
C972   C990    1.395   .     A
C972   C1004   1.398   .     A
C972   H1072   1.083   .     S
C973   C1005   1.457   .     S
C973   C990    1.414   .     A
C974   H1073   1.083   .     S
C974   C991    1.395   .     A
C974   C1000   1.398   .     S
C975   C685    1.398   1_655 A
C975   H1074   1.083   .     S
C975   C993    1.395   .     A
C976   C1002   1.398   .     A
C976   C994    1.395   .     A
C976   H1075   1.083   .     S
C977   C995    1.395   .     A
C977   H1076   1.083   .     S
C977   C372    1.398   1_565 S
C978   S1233   1.774   .     S
C978   C333    1.414   1_565 S
C979   S1241   1.774   .     S
C979   C981    1.395   .     A
C979   C334    1.414   1_565 S
C980   S1242   1.774   .     S
C980   C992    1.395   .     A
C981   H1080   1.083   .     S
C981   C365    1.398   1_565 S
C982   C1003   1.395   .     A
C982   S1243   1.774   .     S
C983   C1014   1.395   .     A
C983   S1244   1.774   .     S
C984   C1025   1.395   .     A
C984   S1245   1.774   .     S
C985   S1246   1.774   .     S
C985   C651    1.414   1_655 A
C985   C1036   1.395   .     A
C986   C1047   1.395   .     A
C986   S1247   1.774   .     S
C986   C652    1.414   1_655 A
C987   S1248   1.774   .     S
C987   C1058   1.395   .     A
C987   C653    1.414   1_655 A
C988   S1234   1.774   .     S
C989   C339    1.414   1_565 A
C989   S1235   1.774   .     S
C990   S1236   1.774   .     S
C991   S1237   1.774   .     S
C992   H1091   1.083   .     S
C992   C998    1.398   .     S
C993   S1238   1.774   .     S
C993   C654    1.414   1_655 S
C994   S1239   1.774   .     S
C995   S1240   1.774   .     S
C995   C341    1.414   1_565 S
C996   C1014   1.398   .     A
C996   C997    1.466   1_554 S
C997   C1025   1.398   .     A
C997   C996    1.466   1_556 S
C998   C999    1.466   1_554 S
C999   C998    1.466   1_556 S
C999   C1003   1.398   .     S
C1000  C1001   1.466   .     S
C1002  C1004   1.466   .     S
C1003  H1102   1.083   .     S
C1005  O1222   1.279   .     A
C1006  O1189   1.279   .     S
C1007  O1200   1.279   .     A
C1008  O1137   1.279   .     S
C1009  O1138   1.279   .     A
C1009  O1142   1.279   .     A
C1010  O1139   1.279   .     S
C1010  O1143   1.279   .     S
C1011  O1144   1.279   .     A
C1011  O1140   1.279   .     A
C1012  O1146   1.279   .     A
C1012  O1141   1.279   .     A
C1013  O1147   1.279   .     A
C1013  C1068   1.456   .     S
C1013  O1175   1.279   .     A
C1014  H1113   1.083   .     S
C1015  O1148   1.279   .     A
C1015  O1176   1.279   .     A
C1016  O1173   1.279   .     A
C1016  O1149   1.279   .     A
C1017  O1174   1.279   .     A
C1017  O1150   1.279   .     A
C1018  O1151   1.279   .     A
C1018  O1180   1.279   .     A
C1019  O1152   1.279   .     A
C1019  O1181   1.279   .     A
C1020  C1066   1.456   .     S
C1020  O1153   1.279   .     A
C1020  O1177   1.279   .     A
C1021  O1154   1.279   .     A
C1021  C1067   1.456   .     S
C1021  O1179   1.279   .     A
C1022  O1155   1.279   .     A
C1022  O1166   1.279   .     A
C1023  O1157   1.279   .     A
C1023  O1168   1.279   .     A
C1024  O1158   1.279   .     A
C1024  O1164   1.279   .     A
C1025  H1124   1.083   .     S
C1026  O1165   1.279   .     A
C1026  O1159   1.279   .     A
C1027  O1160   1.279   .     A
C1027  O1171   1.279   .     A
C1028  O1172   1.279   .     A
C1028  O1161   1.279   .     A
C1029  O1169   1.279   .     A
C1029  O1162   1.279   .     A
C1030  O1170   1.279   .     A
C1030  O1163   1.279   .     A
C1031  C1048   1.387   .     A
C1031  H1077   1.083   .     S
C1032  H1078   1.083   .     S
C1032  C1046   1.387   .     A
C1033  H1079   1.083   .     S
C1033  C1045   1.387   .     A
C1034  H1081   1.083   .     S
C1034  C1044   1.387   .     A
C1035  C1043   1.387   .     A
C1035  H1082   1.083   .     S
C1036  H1130   1.083   .     S
C1036  C682    1.398   1_655 A
C1037  C1042   1.387   .     A
C1037  H1083   1.083   .     S
C1038  C1041   1.387   .     A
C1038  H1084   1.083   .     S
C1039  C1040   1.387   .     A
C1039  H1085   1.083   .     S
C1040  H1086   1.083   .     S
C1041  H1087   1.083   .     S
C1042  H1088   1.083   .     S
C1043  H1089   1.083   .     S
C1044  H1090   1.083   .     S
C1045  H1092   1.083   .     S
C1045  C1068   1.402   .     A
C1046  H1093   1.083   .     S
C1046  C1067   1.402   .     A
C1047  H1131   1.083   .     S
C1047  C683    1.398   1_655 A
C1048  C1066   1.402   .     A
C1048  H1094   1.083   .     S
C1049  H1095   1.083   .     S
C1049  C1065   1.387   .     A
C1049  C1067   1.402   .     A
C1050  H1096   1.083   .     S
C1050  C1066   1.402   .     A
C1050  C1064   1.387   .     A
C1051  C1063   1.387   .     A
C1051  H1097   1.083   .     S
C1052  H1098   1.083   .     S
C1052  C1068   1.402   .     A
C1052  C1062   1.387   .     A
C1053  H1099   1.083   .     S
C1053  C1061   1.387   .     A
C1054  H1100   1.083   .     S
C1054  C1060   1.387   .     A
C1055  H1101   1.083   .     S
C1055  C1059   1.387   .     A
C1056  C1057   1.387   .     A
C1056  H1103   1.083   .     S
C1057  H1104   1.083   .     S
C1058  C684    1.398   1_655 A
C1058  H1132   1.083   .     S
C1059  H1105   1.083   .     S
C1060  H1106   1.083   .     S
C1061  H1107   1.083   .     S
C1062  H1108   1.083   .     S
C1063  H1109   1.083   .     S
C1064  H1110   1.083   .     S
C1065  H1111   1.083   .     S
H1112  O1184   0.991   .     S
H1114  O1187   0.991   .     S
H1115  O1191   0.991   .     S
H1116  O1194   0.991   .     S
H1117  O1197   0.991   .     S
H1118  O1201   0.991   .     S
H1119  O1204   0.991   .     S
H1120  O1207   0.991   .     S
H1121  O1210   0.991   .     S
H1122  O1214   0.991   .     S
H1123  O1217   0.991   .     S
H1125  O1220   0.991   .     S
H1126  O1224   0.991   .     S
H1127  O1227   0.991   .     S
H1128  O1230   0.991   .     S
H1129  O1135   0.991   .     S
O1133  Zn1249  1.944   .     S
O1133  Zn1260  1.944   .     S
O1133  Zn1252  1.944   .     S
O1134  C374    1.279   1_565 A
O1134  Zn1251  1.933   .     S
O1135  S1240   1.683   .     S
O1136  Zn1254  1.933   .     S
O1136  C691    1.279   1_655 S
O1137  Zn1253  1.933   .     S
O1138  Zn1263  1.933   .     S
O1139  Zn1262  1.933   .     S
O1140  Zn1257  1.933   .     S
O1141  Zn1249  1.933   .     S
O1142  Zn1259  1.933   .     S
O1143  Zn1258  1.933   .     S
O1144  Zn1261  1.933   .     S
O1145  Zn1255  1.944   .     S
O1145  Zn1261  1.944   .     S
O1145  Zn1257  1.944   .     S
O1146  Zn1260  1.933   .     S
O1147  Zn1252  1.938   .     S
O1148  Zn1251  1.938   .     S
O1149  Zn1254  1.938   .     S
O1150  Zn1253  1.938   .     S
O1151  Zn1256  1.938   .     S
O1152  Zn1255  1.938   .     S
O1153  Zn1250  1.938   .     S
O1154  Zn1264  1.938   .     S
O1155  Zn1251  1.938   .     S
O1156  Zn1258  1.944   .     S
O1156  Zn1250  1.944   .     S
O1156  Zn1262  1.944   .     S
O1157  Zn1252  1.938   .     S
O1158  Zn1264  1.938   .     S
O1159  Zn1250  1.938   .     S
O1160  Zn1255  1.938   .     S
O1161  Zn1256  1.938   .     S
O1162  Zn1253  1.938   .     S
O1163  Zn1254  1.938   .     S
O1164  Zn943   1.938   1_655 S
O1165  Zn1258  1.938   .     S
O1166  Zn629   1.938   1_565 S
O1167  Zn1263  1.944   .     S
O1167  Zn1259  1.944   .     S
O1167  Zn1253  1.944   .     S
O1168  Zn1260  1.938   .     S
O1169  Zn1263  1.938   .     S
O1170  Zn946   1.938   1_655 S
O1171  Zn1257  1.938   .     S
O1172  Zn617   1.938   1_565 S
O1173  Zn942   1.938   1_655 S
O1174  Zn1259  1.938   .     S
O1175  Zn1249  1.938   .     S
O1176  Zn625   1.938   1_565 S
O1177  Zn1262  1.938   .     S
O1178  Zn1256  1.933   .     S
O1178  C373    1.279   1_565 S
O1179  Zn947   1.938   1_655 S
O1180  Zn628   1.938   1_565 S
O1181  Zn1261  1.938   .     S
O1182  S1233   1.503   .     D
O1183  S1233   1.503   .     D
O1184  S1233   1.683   .     S
O1185  S1241   1.503   .     D
O1186  S1241   1.503   .     D
O1187  S1241   1.683   .     S
O1188  S1242   1.503   .     D
O1189  Zn1255  1.933   .     S
O1190  S1242   1.503   .     D
O1191  S1242   1.683   .     S
O1192  S1243   1.503   .     D
O1193  S1243   1.503   .     D
O1194  S1243   1.683   .     S
O1195  S1244   1.503   .     D
O1196  S1244   1.503   .     D
O1197  S1244   1.683   .     S
O1198  S1245   1.503   .     D
O1199  S1245   1.503   .     D
O1200  Zn1250  1.933   .     S
O1201  S1245   1.683   .     S
O1202  S1246   1.503   .     D
O1203  S1246   1.503   .     D
O1204  S1246   1.683   .     S
O1205  S1247   1.503   .     D
O1206  S1247   1.503   .     D
O1207  S1247   1.683   .     S
O1208  S1248   1.503   .     D
O1209  S1248   1.503   .     D
O1210  S1248   1.683   .     S
O1211  C692    1.279   1_655 A
O1211  Zn1264  1.933   .     S
O1212  S1234   1.503   .     D
O1213  S1234   1.503   .     D
O1214  S1234   1.683   .     S
O1215  S1235   1.503   .     D
O1216  S1235   1.503   .     D
O1217  S1235   1.683   .     S
O1218  S1236   1.503   .     D
O1219  S1236   1.503   .     D
O1220  S1236   1.683   .     S
O1221  S1237   1.503   .     D
O1222  Zn1252  1.933   .     S
O1223  S1237   1.503   .     D
O1224  S1237   1.683   .     S
O1225  S1238   1.503   .     D
O1226  S1238   1.503   .     D
O1227  S1238   1.683   .     S
O1228  S1239   1.503   .     D
O1229  S1239   1.503   .     D
O1230  S1239   1.683   .     S
O1231  S1240   1.503   .     D
O1232  S1240   1.503   .     D
Zn1251 O513    1.944   1_565 S
Zn1254 O840    1.944   1_655 S
Zn1256 O501    1.944   1_565 S
Zn1264 O851    1.944   1_655 S
