data_str_m1_o10_o18_pcu_sym.44
_audit_creation_date              2020-01-03
_audit_creation_method            'Materials Studio'
_symmetry_space_group_name_H-M    'P1'
_symmetry_Int_Tables_number       1
_symmetry_cell_setting            triclinic
loop_
_symmetry_equiv_pos_as_xyz
  x,y,z
_cell_length_a                    32.5861
_cell_length_b                    32.5168
_cell_length_c                    35.8924
_cell_angle_alpha                 98.1631
_cell_angle_beta                  72.7612
_cell_angle_gamma                 98.6941
loop_
_atom_site_label
_atom_site_type_symbol
_atom_site_fract_x
_atom_site_fract_y
_atom_site_fract_z
_atom_site_U_iso_or_equiv
_atom_site_adp_type
_atom_site_occupancy
C1     C     0.05240   0.15968   0.25914   0.00000  Uiso   1.00
C2     C     0.20635   0.13947   0.45968   0.00000  Uiso   1.00
C3     C     0.22717   0.12026   0.47976   0.00000  Uiso   1.00
C4     C     0.28122   0.17357   0.24097   0.00000  Uiso   1.00
C5     C     0.21666   0.12619   0.02042   0.00000  Uiso   1.00
C6     C     0.18464   0.15249   0.04187   0.00000  Uiso   1.00
C7     C     0.23841   0.10624   0.03984   0.00000  Uiso   1.00
C8     C     0.22894   0.11212   0.08047   0.00000  Uiso   1.00
C9     C     0.17505   0.15707   0.08312   0.00000  Uiso   1.00
C10    C     0.32781   0.17604   0.23671   0.00000  Uiso   1.00
C11    C     0.00714   0.15800   0.26207   0.00000  Uiso   1.00
C12    C     0.10823   0.22554   0.42009   0.00000  Uiso   1.00
C13    C     0.18095   0.32220   0.23806   0.00000  Uiso   1.00
C14    C     0.15153   0.01208   0.26200   0.00000  Uiso   1.00
C15    C     0.15595   0.05615   0.25883   0.00000  Uiso   1.00
C16    C     0.17688   0.27769   0.24133   0.00000  Uiso   1.00
C17    C     0.18836   0.14525   0.14416   0.00000  Uiso   1.00
C18    C     0.14547   0.18781   0.35607   0.00000  Uiso   1.00
C19    C     0.13691   0.19693   0.39883   0.00000  Uiso   1.00
C20    C     0.19724   0.13742   0.10192   0.00000  Uiso   1.00
C21    C     0.10053   0.23350   0.46055   0.00000  Uiso   1.00
C22    C     0.15798   0.17667   0.41845   0.00000  Uiso   1.00
C23    C     0.15173   0.18497   0.45921   0.00000  Uiso   1.00
C24    C     0.12182   0.21337   0.48025   0.00000  Uiso   1.00
C25    C     0.17386   0.16558   0.47964   0.00000  Uiso   1.00
C26    C     0.16367   0.17314   0.02135   0.00000  Uiso   1.00
C27    C     0.13339   0.20157   0.04102   0.00000  Uiso   1.00
C28    C     0.11325   0.22143   0.02075   0.00000  Uiso   1.00
H29    H     0.09049   0.24317   0.03704   0.00000  Uiso   1.00
H30    H     0.09152   0.24156   0.40551   0.00000  Uiso   1.00
H31    H     0.17858   0.15399   0.40111   0.00000  Uiso   1.00
H32    H     0.12485   0.20993   0.07222   0.00000  Uiso   1.00
H33    H     0.21746   0.13370   0.42827   0.00000  Uiso   1.00
H34    H     0.01063   0.20743   0.19112   0.00000  Uiso   1.00
H35    H     0.26303   0.08636   0.02354   0.00000  Uiso   1.00
H36    H     0.31752   0.14221   0.28581   0.00000  Uiso   1.00
H37    H     0.20816   0.00287   0.21603   0.00000  Uiso   1.00
H38    H     0.12394   0.33216   0.28409   0.00000  Uiso   1.00
H39    H     0.15072   0.17574   0.10173   0.00000  Uiso   1.00
H40    H     0.24633   0.09707   0.09518   0.00000  Uiso   1.00
H41    H     0.25192   0.10061   0.46319   0.00000  Uiso   1.00
H42    H     0.07787   0.25543   0.47651   0.00000  Uiso   1.00
O43    O     0.16667   0.16667   0.25000   0.00000  Uiso   1.00
O44    O     0.15693   0.12393   0.16625   0.00000  Uiso   1.00
O45    O     0.12687   0.20646   0.33749   0.00000  Uiso   1.00
O46    O     0.21088   0.17493   0.15877   0.00000  Uiso   1.00
O47    O     0.17198   0.16135   0.33749   0.00000  Uiso   1.00
O48    O     0.02531   0.19630   0.20741   0.00000  Uiso   1.00
O49    O     0.17849   0.08101   0.27820   0.00000  Uiso   1.00
O50    O     0.14581   0.26136   0.26767   0.00000  Uiso   1.00
O51    O     0.07452   0.13251   0.23607   0.00000  Uiso   1.00
O52    O     0.26785   0.19179   0.21805   0.00000  Uiso   1.00
O53    O     0.06990   0.18960   0.27820   0.00000  Uiso   1.00
O54    O     0.25440   0.15277   0.26767   0.00000  Uiso   1.00
O55    O     0.13800   0.06903   0.23607   0.00000  Uiso   1.00
O56    O     0.20437   0.25527   0.21805   0.00000  Uiso   1.00
Zn57   Zn    0.19244   0.14090   0.28277   0.00000  Uiso   1.00
Zn58   Zn    0.13459   0.12378   0.22257   0.00000  Uiso   1.00
Zn59   Zn    0.21166   0.19664   0.21188   0.00000  Uiso   1.00
Zn60   Zn    0.12798   0.20535   0.28277   0.00000  Uiso   1.00
C61    C     0.38574   0.15968   0.25914   0.00000  Uiso   1.00
C62    C     0.53968   0.13947   0.45968   0.00000  Uiso   1.00
C63    C     0.56051   0.12026   0.47976   0.00000  Uiso   1.00
C64    C     0.61455   0.17357   0.24097   0.00000  Uiso   1.00
C65    C     0.55000   0.12619   0.02042   0.00000  Uiso   1.00
C66    C     0.51798   0.15249   0.04187   0.00000  Uiso   1.00
C67    C     0.57174   0.10624   0.03984   0.00000  Uiso   1.00
C68    C     0.56227   0.11212   0.08047   0.00000  Uiso   1.00
C69    C     0.50838   0.15707   0.08312   0.00000  Uiso   1.00
C70    C     0.66114   0.17604   0.23671   0.00000  Uiso   1.00
C71    C     0.34047   0.15800   0.26207   0.00000  Uiso   1.00
C72    C     0.44156   0.22554   0.42009   0.00000  Uiso   1.00
C73    C     0.51429   0.32220   0.23806   0.00000  Uiso   1.00
C74    C     0.48486   0.01208   0.26200   0.00000  Uiso   1.00
C75    C     0.48928   0.05615   0.25883   0.00000  Uiso   1.00
C76    C     0.51021   0.27769   0.24133   0.00000  Uiso   1.00
C77    C     0.52169   0.14525   0.14416   0.00000  Uiso   1.00
C78    C     0.47880   0.18781   0.35607   0.00000  Uiso   1.00
C79    C     0.47024   0.19693   0.39883   0.00000  Uiso   1.00
C80    C     0.53058   0.13742   0.10192   0.00000  Uiso   1.00
C81    C     0.43387   0.23350   0.46055   0.00000  Uiso   1.00
C82    C     0.49131   0.17667   0.41845   0.00000  Uiso   1.00
C83    C     0.48506   0.18497   0.45921   0.00000  Uiso   1.00
C84    C     0.45515   0.21337   0.48025   0.00000  Uiso   1.00
C85    C     0.50719   0.16558   0.47964   0.00000  Uiso   1.00
C86    C     0.49700   0.17314   0.02135   0.00000  Uiso   1.00
C87    C     0.46673   0.20157   0.04102   0.00000  Uiso   1.00
C88    C     0.44658   0.22143   0.02075   0.00000  Uiso   1.00
H89    H     0.42382   0.24317   0.03704   0.00000  Uiso   1.00
H90    H     0.42486   0.24156   0.40551   0.00000  Uiso   1.00
H91    H     0.51191   0.15399   0.40111   0.00000  Uiso   1.00
H92    H     0.45818   0.20993   0.07222   0.00000  Uiso   1.00
H93    H     0.55079   0.13370   0.42827   0.00000  Uiso   1.00
H94    H     0.34397   0.20743   0.19112   0.00000  Uiso   1.00
H95    H     0.59636   0.08636   0.02354   0.00000  Uiso   1.00
H96    H     0.65085   0.14221   0.28581   0.00000  Uiso   1.00
H97    H     0.54149   0.00287   0.21603   0.00000  Uiso   1.00
H98    H     0.45727   0.33216   0.28409   0.00000  Uiso   1.00
H99    H     0.48405   0.17574   0.10173   0.00000  Uiso   1.00
H100   H     0.57966   0.09707   0.09518   0.00000  Uiso   1.00
H101   H     0.58526   0.10061   0.46319   0.00000  Uiso   1.00
H102   H     0.41120   0.25543   0.47651   0.00000  Uiso   1.00
O103   O     0.50000   0.16667   0.25000   0.00000  Uiso   1.00
O104   O     0.49027   0.12393   0.16625   0.00000  Uiso   1.00
O105   O     0.46020   0.20646   0.33749   0.00000  Uiso   1.00
O106   O     0.54421   0.17493   0.15877   0.00000  Uiso   1.00
O107   O     0.50532   0.16135   0.33749   0.00000  Uiso   1.00
O108   O     0.35865   0.19630   0.20741   0.00000  Uiso   1.00
O109   O     0.51182   0.08101   0.27820   0.00000  Uiso   1.00
O110   O     0.47914   0.26136   0.26767   0.00000  Uiso   1.00
O111   O     0.40785   0.13251   0.23607   0.00000  Uiso   1.00
O112   O     0.60119   0.19179   0.21805   0.00000  Uiso   1.00
O113   O     0.40323   0.18960   0.27820   0.00000  Uiso   1.00
O114   O     0.58773   0.15277   0.26767   0.00000  Uiso   1.00
O115   O     0.47133   0.06903   0.23607   0.00000  Uiso   1.00
O116   O     0.53771   0.25527   0.21805   0.00000  Uiso   1.00
Zn117  Zn    0.52577   0.14090   0.28277   0.00000  Uiso   1.00
Zn118  Zn    0.46792   0.12378   0.22257   0.00000  Uiso   1.00
Zn119  Zn    0.54500   0.19664   0.21188   0.00000  Uiso   1.00
Zn120  Zn    0.46131   0.20535   0.28277   0.00000  Uiso   1.00
C121   C     0.71907   0.15968   0.25914   0.00000  Uiso   1.00
C122   C     0.87302   0.13947   0.45968   0.00000  Uiso   1.00
C123   C     0.89384   0.12026   0.47976   0.00000  Uiso   1.00
C124   C     0.94789   0.17357   0.24097   0.00000  Uiso   1.00
C125   C     0.88333   0.12619   0.02042   0.00000  Uiso   1.00
C126   C     0.85131   0.15249   0.04187   0.00000  Uiso   1.00
C127   C     0.90508   0.10624   0.03984   0.00000  Uiso   1.00
C128   C     0.89560   0.11212   0.08047   0.00000  Uiso   1.00
C129   C     0.84171   0.15707   0.08312   0.00000  Uiso   1.00
C130   C     0.99447   0.17604   0.23671   0.00000  Uiso   1.00
C131   C     0.67381   0.15800   0.26207   0.00000  Uiso   1.00
C132   C     0.77489   0.22554   0.42009   0.00000  Uiso   1.00
C133   C     0.84762   0.32220   0.23806   0.00000  Uiso   1.00
C134   C     0.81819   0.01208   0.26200   0.00000  Uiso   1.00
C135   C     0.82262   0.05615   0.25883   0.00000  Uiso   1.00
C136   C     0.84354   0.27769   0.24133   0.00000  Uiso   1.00
C137   C     0.85503   0.14525   0.14416   0.00000  Uiso   1.00
C138   C     0.81214   0.18781   0.35607   0.00000  Uiso   1.00
C139   C     0.80357   0.19693   0.39883   0.00000  Uiso   1.00
C140   C     0.86391   0.13742   0.10192   0.00000  Uiso   1.00
C141   C     0.76720   0.23350   0.46055   0.00000  Uiso   1.00
C142   C     0.82464   0.17667   0.41845   0.00000  Uiso   1.00
C143   C     0.81839   0.18497   0.45921   0.00000  Uiso   1.00
C144   C     0.78849   0.21337   0.48025   0.00000  Uiso   1.00
C145   C     0.84053   0.16558   0.47964   0.00000  Uiso   1.00
C146   C     0.83033   0.17314   0.02135   0.00000  Uiso   1.00
C147   C     0.80006   0.20157   0.04102   0.00000  Uiso   1.00
C148   C     0.77992   0.22143   0.02075   0.00000  Uiso   1.00
H149   H     0.75716   0.24317   0.03704   0.00000  Uiso   1.00
H150   H     0.75819   0.24156   0.40551   0.00000  Uiso   1.00
H151   H     0.84525   0.15399   0.40111   0.00000  Uiso   1.00
H152   H     0.79152   0.20993   0.07222   0.00000  Uiso   1.00
H153   H     0.88412   0.13370   0.42827   0.00000  Uiso   1.00
H154   H     0.67730   0.20743   0.19112   0.00000  Uiso   1.00
H155   H     0.92970   0.08636   0.02354   0.00000  Uiso   1.00
H156   H     0.98419   0.14221   0.28581   0.00000  Uiso   1.00
H157   H     0.87482   0.00287   0.21603   0.00000  Uiso   1.00
H158   H     0.79060   0.33216   0.28409   0.00000  Uiso   1.00
H159   H     0.81739   0.17574   0.10173   0.00000  Uiso   1.00
H160   H     0.91299   0.09707   0.09518   0.00000  Uiso   1.00
H161   H     0.91859   0.10061   0.46319   0.00000  Uiso   1.00
H162   H     0.74453   0.25543   0.47651   0.00000  Uiso   1.00
O163   O     0.83333   0.16667   0.25000   0.00000  Uiso   1.00
O164   O     0.82360   0.12393   0.16625   0.00000  Uiso   1.00
O165   O     0.79354   0.20646   0.33749   0.00000  Uiso   1.00
O166   O     0.87755   0.17493   0.15877   0.00000  Uiso   1.00
O167   O     0.83865   0.16135   0.33749   0.00000  Uiso   1.00
O168   O     0.69198   0.19630   0.20741   0.00000  Uiso   1.00
O169   O     0.84515   0.08101   0.27820   0.00000  Uiso   1.00
O170   O     0.81247   0.26136   0.26767   0.00000  Uiso   1.00
O171   O     0.74119   0.13251   0.23607   0.00000  Uiso   1.00
O172   O     0.93452   0.19179   0.21805   0.00000  Uiso   1.00
O173   O     0.73656   0.18960   0.27820   0.00000  Uiso   1.00
O174   O     0.92106   0.15277   0.26767   0.00000  Uiso   1.00
O175   O     0.80467   0.06903   0.23607   0.00000  Uiso   1.00
O176   O     0.87104   0.25527   0.21805   0.00000  Uiso   1.00
Zn177  Zn    0.85910   0.14090   0.28277   0.00000  Uiso   1.00
Zn178  Zn    0.80125   0.12378   0.22257   0.00000  Uiso   1.00
Zn179  Zn    0.87833   0.19664   0.21188   0.00000  Uiso   1.00
Zn180  Zn    0.79465   0.20535   0.28277   0.00000  Uiso   1.00
C181   C     0.05240   0.49302   0.25914   0.00000  Uiso   1.00
C182   C     0.20635   0.47280   0.45968   0.00000  Uiso   1.00
C183   C     0.22717   0.45359   0.47976   0.00000  Uiso   1.00
C184   C     0.28122   0.50690   0.24097   0.00000  Uiso   1.00
C185   C     0.21666   0.45952   0.02042   0.00000  Uiso   1.00
C186   C     0.18464   0.48583   0.04187   0.00000  Uiso   1.00
C187   C     0.23841   0.43957   0.03984   0.00000  Uiso   1.00
C188   C     0.22894   0.44545   0.08047   0.00000  Uiso   1.00
C189   C     0.17505   0.49041   0.08312   0.00000  Uiso   1.00
C190   C     0.32781   0.50937   0.23671   0.00000  Uiso   1.00
C191   C     0.00714   0.49133   0.26207   0.00000  Uiso   1.00
C192   C     0.10823   0.55888   0.42009   0.00000  Uiso   1.00
C193   C     0.18095   0.65553   0.23806   0.00000  Uiso   1.00
C194   C     0.15153   0.34541   0.26200   0.00000  Uiso   1.00
C195   C     0.15595   0.38948   0.25883   0.00000  Uiso   1.00
C196   C     0.17688   0.61102   0.24133   0.00000  Uiso   1.00
C197   C     0.18836   0.47858   0.14416   0.00000  Uiso   1.00
C198   C     0.14547   0.52115   0.35607   0.00000  Uiso   1.00
C199   C     0.13691   0.53027   0.39883   0.00000  Uiso   1.00
C200   C     0.19724   0.47075   0.10192   0.00000  Uiso   1.00
C201   C     0.10053   0.56683   0.46055   0.00000  Uiso   1.00
C202   C     0.15798   0.51000   0.41845   0.00000  Uiso   1.00
C203   C     0.15173   0.51830   0.45921   0.00000  Uiso   1.00
C204   C     0.12182   0.54670   0.48025   0.00000  Uiso   1.00
C205   C     0.17386   0.49891   0.47964   0.00000  Uiso   1.00
C206   C     0.16367   0.50647   0.02135   0.00000  Uiso   1.00
C207   C     0.13339   0.53490   0.04102   0.00000  Uiso   1.00
C208   C     0.11325   0.55476   0.02075   0.00000  Uiso   1.00
H209   H     0.09049   0.57651   0.03704   0.00000  Uiso   1.00
H210   H     0.09152   0.57489   0.40551   0.00000  Uiso   1.00
H211   H     0.17858   0.48733   0.40111   0.00000  Uiso   1.00
H212   H     0.12485   0.54326   0.07222   0.00000  Uiso   1.00
H213   H     0.21746   0.46704   0.42827   0.00000  Uiso   1.00
H214   H     0.01063   0.54076   0.19112   0.00000  Uiso   1.00
H215   H     0.26303   0.41970   0.02354   0.00000  Uiso   1.00
H216   H     0.31752   0.47554   0.28581   0.00000  Uiso   1.00
H217   H     0.20816   0.33620   0.21603   0.00000  Uiso   1.00
H218   H     0.12394   0.66549   0.28409   0.00000  Uiso   1.00
H219   H     0.15072   0.50907   0.10173   0.00000  Uiso   1.00
H220   H     0.24633   0.43041   0.09518   0.00000  Uiso   1.00
H221   H     0.25192   0.43394   0.46319   0.00000  Uiso   1.00
H222   H     0.07787   0.58877   0.47651   0.00000  Uiso   1.00
O223   O     0.16667   0.50000   0.25000   0.00000  Uiso   1.00
O224   O     0.15693   0.45726   0.16625   0.00000  Uiso   1.00
O225   O     0.12687   0.53979   0.33749   0.00000  Uiso   1.00
O226   O     0.21088   0.50826   0.15877   0.00000  Uiso   1.00
O227   O     0.17198   0.49468   0.33749   0.00000  Uiso   1.00
O228   O     0.02531   0.52964   0.20741   0.00000  Uiso   1.00
O229   O     0.17849   0.41434   0.27820   0.00000  Uiso   1.00
O230   O     0.14581   0.59469   0.26767   0.00000  Uiso   1.00
O231   O     0.07452   0.46584   0.23607   0.00000  Uiso   1.00
O232   O     0.26785   0.52512   0.21805   0.00000  Uiso   1.00
O233   O     0.06990   0.52293   0.27820   0.00000  Uiso   1.00
O234   O     0.25440   0.48610   0.26767   0.00000  Uiso   1.00
O235   O     0.13800   0.40236   0.23607   0.00000  Uiso   1.00
O236   O     0.20437   0.58860   0.21805   0.00000  Uiso   1.00
Zn237  Zn    0.19244   0.47423   0.28277   0.00000  Uiso   1.00
Zn238  Zn    0.13459   0.45711   0.22257   0.00000  Uiso   1.00
Zn239  Zn    0.21166   0.52997   0.21188   0.00000  Uiso   1.00
Zn240  Zn    0.12798   0.53868   0.28277   0.00000  Uiso   1.00
C241   C     0.38574   0.49302   0.25914   0.00000  Uiso   1.00
C242   C     0.53968   0.47280   0.45968   0.00000  Uiso   1.00
C243   C     0.56051   0.45359   0.47976   0.00000  Uiso   1.00
C244   C     0.61455   0.50690   0.24097   0.00000  Uiso   1.00
C245   C     0.55000   0.45952   0.02042   0.00000  Uiso   1.00
C246   C     0.51798   0.48583   0.04187   0.00000  Uiso   1.00
C247   C     0.57174   0.43957   0.03984   0.00000  Uiso   1.00
C248   C     0.56227   0.44545   0.08047   0.00000  Uiso   1.00
C249   C     0.50838   0.49041   0.08312   0.00000  Uiso   1.00
C250   C     0.66114   0.50937   0.23671   0.00000  Uiso   1.00
C251   C     0.34047   0.49133   0.26207   0.00000  Uiso   1.00
C252   C     0.44156   0.55888   0.42009   0.00000  Uiso   1.00
C253   C     0.51429   0.65553   0.23806   0.00000  Uiso   1.00
C254   C     0.48486   0.34541   0.26200   0.00000  Uiso   1.00
C255   C     0.48928   0.38948   0.25883   0.00000  Uiso   1.00
C256   C     0.51021   0.61102   0.24133   0.00000  Uiso   1.00
C257   C     0.52169   0.47858   0.14416   0.00000  Uiso   1.00
C258   C     0.47880   0.52115   0.35607   0.00000  Uiso   1.00
C259   C     0.47024   0.53027   0.39883   0.00000  Uiso   1.00
C260   C     0.53058   0.47075   0.10192   0.00000  Uiso   1.00
C261   C     0.43387   0.56683   0.46055   0.00000  Uiso   1.00
C262   C     0.49131   0.51000   0.41845   0.00000  Uiso   1.00
C263   C     0.48506   0.51830   0.45921   0.00000  Uiso   1.00
C264   C     0.45515   0.54670   0.48025   0.00000  Uiso   1.00
C265   C     0.50719   0.49891   0.47964   0.00000  Uiso   1.00
C266   C     0.49700   0.50647   0.02135   0.00000  Uiso   1.00
C267   C     0.46673   0.53490   0.04102   0.00000  Uiso   1.00
C268   C     0.44658   0.55476   0.02075   0.00000  Uiso   1.00
H269   H     0.42382   0.57651   0.03704   0.00000  Uiso   1.00
H270   H     0.42486   0.57489   0.40551   0.00000  Uiso   1.00
H271   H     0.51191   0.48733   0.40111   0.00000  Uiso   1.00
H272   H     0.45818   0.54326   0.07222   0.00000  Uiso   1.00
H273   H     0.55079   0.46704   0.42827   0.00000  Uiso   1.00
H274   H     0.34397   0.54076   0.19112   0.00000  Uiso   1.00
H275   H     0.59636   0.41970   0.02354   0.00000  Uiso   1.00
H276   H     0.65085   0.47554   0.28581   0.00000  Uiso   1.00
H277   H     0.54149   0.33620   0.21603   0.00000  Uiso   1.00
H278   H     0.45727   0.66549   0.28409   0.00000  Uiso   1.00
H279   H     0.48405   0.50907   0.10173   0.00000  Uiso   1.00
H280   H     0.57966   0.43041   0.09518   0.00000  Uiso   1.00
H281   H     0.58526   0.43394   0.46319   0.00000  Uiso   1.00
H282   H     0.41120   0.58877   0.47651   0.00000  Uiso   1.00
O283   O     0.50000   0.50000   0.25000   0.00000  Uiso   1.00
O284   O     0.49027   0.45726   0.16625   0.00000  Uiso   1.00
O285   O     0.46020   0.53979   0.33749   0.00000  Uiso   1.00
O286   O     0.54421   0.50826   0.15877   0.00000  Uiso   1.00
O287   O     0.50532   0.49468   0.33749   0.00000  Uiso   1.00
O288   O     0.35865   0.52964   0.20741   0.00000  Uiso   1.00
O289   O     0.51182   0.41434   0.27820   0.00000  Uiso   1.00
O290   O     0.47914   0.59469   0.26767   0.00000  Uiso   1.00
O291   O     0.40785   0.46584   0.23607   0.00000  Uiso   1.00
O292   O     0.60119   0.52512   0.21805   0.00000  Uiso   1.00
O293   O     0.40323   0.52293   0.27820   0.00000  Uiso   1.00
O294   O     0.58773   0.48610   0.26767   0.00000  Uiso   1.00
O295   O     0.47133   0.40236   0.23607   0.00000  Uiso   1.00
O296   O     0.53771   0.58860   0.21805   0.00000  Uiso   1.00
Zn297  Zn    0.52577   0.47423   0.28277   0.00000  Uiso   1.00
Zn298  Zn    0.46792   0.45711   0.22257   0.00000  Uiso   1.00
Zn299  Zn    0.54500   0.52997   0.21188   0.00000  Uiso   1.00
Zn300  Zn    0.46131   0.53868   0.28277   0.00000  Uiso   1.00
C301   C     0.71907   0.49302   0.25914   0.00000  Uiso   1.00
C302   C     0.87302   0.47280   0.45968   0.00000  Uiso   1.00
C303   C     0.89384   0.45359   0.47976   0.00000  Uiso   1.00
C304   C     0.94789   0.50690   0.24097   0.00000  Uiso   1.00
C305   C     0.88333   0.45952   0.02042   0.00000  Uiso   1.00
C306   C     0.85131   0.48583   0.04187   0.00000  Uiso   1.00
C307   C     0.90508   0.43957   0.03984   0.00000  Uiso   1.00
C308   C     0.89560   0.44545   0.08047   0.00000  Uiso   1.00
C309   C     0.84171   0.49041   0.08312   0.00000  Uiso   1.00
C310   C     0.99447   0.50937   0.23671   0.00000  Uiso   1.00
C311   C     0.67381   0.49133   0.26207   0.00000  Uiso   1.00
C312   C     0.77489   0.55888   0.42009   0.00000  Uiso   1.00
C313   C     0.84762   0.65553   0.23806   0.00000  Uiso   1.00
C314   C     0.81819   0.34541   0.26200   0.00000  Uiso   1.00
C315   C     0.82262   0.38948   0.25883   0.00000  Uiso   1.00
C316   C     0.84354   0.61102   0.24133   0.00000  Uiso   1.00
C317   C     0.85503   0.47858   0.14416   0.00000  Uiso   1.00
C318   C     0.81214   0.52115   0.35607   0.00000  Uiso   1.00
C319   C     0.80357   0.53027   0.39883   0.00000  Uiso   1.00
C320   C     0.86391   0.47075   0.10192   0.00000  Uiso   1.00
C321   C     0.76720   0.56683   0.46055   0.00000  Uiso   1.00
C322   C     0.82464   0.51000   0.41845   0.00000  Uiso   1.00
C323   C     0.81839   0.51830   0.45921   0.00000  Uiso   1.00
C324   C     0.78849   0.54670   0.48025   0.00000  Uiso   1.00
C325   C     0.84053   0.49891   0.47964   0.00000  Uiso   1.00
C326   C     0.83033   0.50647   0.02135   0.00000  Uiso   1.00
C327   C     0.80006   0.53490   0.04102   0.00000  Uiso   1.00
C328   C     0.77992   0.55476   0.02075   0.00000  Uiso   1.00
H329   H     0.75716   0.57651   0.03704   0.00000  Uiso   1.00
H330   H     0.75819   0.57489   0.40551   0.00000  Uiso   1.00
H331   H     0.84525   0.48733   0.40111   0.00000  Uiso   1.00
H332   H     0.79152   0.54326   0.07222   0.00000  Uiso   1.00
H333   H     0.88412   0.46704   0.42827   0.00000  Uiso   1.00
H334   H     0.67730   0.54076   0.19112   0.00000  Uiso   1.00
H335   H     0.92970   0.41970   0.02354   0.00000  Uiso   1.00
H336   H     0.98419   0.47554   0.28581   0.00000  Uiso   1.00
H337   H     0.87482   0.33620   0.21603   0.00000  Uiso   1.00
H338   H     0.79060   0.66549   0.28409   0.00000  Uiso   1.00
H339   H     0.81739   0.50907   0.10173   0.00000  Uiso   1.00
H340   H     0.91299   0.43041   0.09518   0.00000  Uiso   1.00
H341   H     0.91859   0.43394   0.46319   0.00000  Uiso   1.00
H342   H     0.74453   0.58877   0.47651   0.00000  Uiso   1.00
O343   O     0.83333   0.50000   0.25000   0.00000  Uiso   1.00
O344   O     0.82360   0.45726   0.16625   0.00000  Uiso   1.00
O345   O     0.79354   0.53979   0.33749   0.00000  Uiso   1.00
O346   O     0.87755   0.50826   0.15877   0.00000  Uiso   1.00
O347   O     0.83865   0.49468   0.33749   0.00000  Uiso   1.00
O348   O     0.69198   0.52964   0.20741   0.00000  Uiso   1.00
O349   O     0.84515   0.41434   0.27820   0.00000  Uiso   1.00
O350   O     0.81247   0.59469   0.26767   0.00000  Uiso   1.00
O351   O     0.74119   0.46584   0.23607   0.00000  Uiso   1.00
O352   O     0.93452   0.52512   0.21805   0.00000  Uiso   1.00
O353   O     0.73656   0.52293   0.27820   0.00000  Uiso   1.00
O354   O     0.92106   0.48610   0.26767   0.00000  Uiso   1.00
O355   O     0.80467   0.40236   0.23607   0.00000  Uiso   1.00
O356   O     0.87104   0.58860   0.21805   0.00000  Uiso   1.00
Zn357  Zn    0.85910   0.47423   0.28277   0.00000  Uiso   1.00
Zn358  Zn    0.80125   0.45711   0.22257   0.00000  Uiso   1.00
Zn359  Zn    0.87833   0.52997   0.21188   0.00000  Uiso   1.00
Zn360  Zn    0.79465   0.53868   0.28277   0.00000  Uiso   1.00
C361   C     0.05240   0.82635   0.25914   0.00000  Uiso   1.00
C362   C     0.20635   0.80614   0.45968   0.00000  Uiso   1.00
C363   C     0.22717   0.78693   0.47976   0.00000  Uiso   1.00
C364   C     0.28122   0.84024   0.24097   0.00000  Uiso   1.00
C365   C     0.21666   0.79285   0.02042   0.00000  Uiso   1.00
C366   C     0.18464   0.81916   0.04187   0.00000  Uiso   1.00
C367   C     0.23841   0.77290   0.03984   0.00000  Uiso   1.00
C368   C     0.22894   0.77878   0.08047   0.00000  Uiso   1.00
C369   C     0.17505   0.82374   0.08312   0.00000  Uiso   1.00
C370   C     0.32781   0.84271   0.23671   0.00000  Uiso   1.00
C371   C     0.00714   0.82467   0.26207   0.00000  Uiso   1.00
C372   C     0.10823   0.89221   0.42009   0.00000  Uiso   1.00
C373   C     0.18095   0.98887   0.23806   0.00000  Uiso   1.00
C374   C     0.15153   0.67874   0.26200   0.00000  Uiso   1.00
C375   C     0.15595   0.72282   0.25883   0.00000  Uiso   1.00
C376   C     0.17688   0.94436   0.24133   0.00000  Uiso   1.00
C377   C     0.18836   0.81192   0.14416   0.00000  Uiso   1.00
C378   C     0.14547   0.85448   0.35607   0.00000  Uiso   1.00
C379   C     0.13691   0.86360   0.39883   0.00000  Uiso   1.00
C380   C     0.19724   0.80408   0.10192   0.00000  Uiso   1.00
C381   C     0.10053   0.90016   0.46055   0.00000  Uiso   1.00
C382   C     0.15798   0.84334   0.41845   0.00000  Uiso   1.00
C383   C     0.15173   0.85164   0.45921   0.00000  Uiso   1.00
C384   C     0.12182   0.88004   0.48025   0.00000  Uiso   1.00
C385   C     0.17386   0.83225   0.47964   0.00000  Uiso   1.00
C386   C     0.16367   0.83981   0.02135   0.00000  Uiso   1.00
C387   C     0.13339   0.86823   0.04102   0.00000  Uiso   1.00
C388   C     0.11325   0.88810   0.02075   0.00000  Uiso   1.00
H389   H     0.09049   0.90984   0.03704   0.00000  Uiso   1.00
H390   H     0.09152   0.90822   0.40551   0.00000  Uiso   1.00
H391   H     0.17858   0.82066   0.40111   0.00000  Uiso   1.00
H392   H     0.12485   0.87659   0.07222   0.00000  Uiso   1.00
H393   H     0.21746   0.80037   0.42827   0.00000  Uiso   1.00
H394   H     0.01063   0.87409   0.19112   0.00000  Uiso   1.00
H395   H     0.26303   0.75303   0.02354   0.00000  Uiso   1.00
H396   H     0.31752   0.80887   0.28581   0.00000  Uiso   1.00
H397   H     0.20816   0.66954   0.21603   0.00000  Uiso   1.00
H398   H     0.12394   0.99883   0.28409   0.00000  Uiso   1.00
H399   H     0.15072   0.84241   0.10173   0.00000  Uiso   1.00
H400   H     0.24633   0.76374   0.09518   0.00000  Uiso   1.00
H401   H     0.25192   0.76728   0.46319   0.00000  Uiso   1.00
H402   H     0.07787   0.92210   0.47651   0.00000  Uiso   1.00
O403   O     0.16667   0.83333   0.25000   0.00000  Uiso   1.00
O404   O     0.15693   0.79060   0.16625   0.00000  Uiso   1.00
O405   O     0.12687   0.87313   0.33749   0.00000  Uiso   1.00
O406   O     0.21088   0.84159   0.15877   0.00000  Uiso   1.00
O407   O     0.17198   0.82802   0.33749   0.00000  Uiso   1.00
O408   O     0.02531   0.86297   0.20741   0.00000  Uiso   1.00
O409   O     0.17849   0.74768   0.27820   0.00000  Uiso   1.00
O410   O     0.14581   0.92803   0.26767   0.00000  Uiso   1.00
O411   O     0.07452   0.79917   0.23607   0.00000  Uiso   1.00
O412   O     0.26785   0.85845   0.21805   0.00000  Uiso   1.00
O413   O     0.06990   0.85627   0.27820   0.00000  Uiso   1.00
O414   O     0.25440   0.81944   0.26767   0.00000  Uiso   1.00
O415   O     0.13800   0.73570   0.23607   0.00000  Uiso   1.00
O416   O     0.20437   0.92193   0.21805   0.00000  Uiso   1.00
Zn417  Zn    0.19244   0.80756   0.28277   0.00000  Uiso   1.00
Zn418  Zn    0.13459   0.79044   0.22257   0.00000  Uiso   1.00
Zn419  Zn    0.21166   0.86331   0.21188   0.00000  Uiso   1.00
Zn420  Zn    0.12798   0.87202   0.28277   0.00000  Uiso   1.00
C421   C     0.38574   0.82635   0.25914   0.00000  Uiso   1.00
C422   C     0.53968   0.80614   0.45968   0.00000  Uiso   1.00
C423   C     0.56051   0.78693   0.47976   0.00000  Uiso   1.00
C424   C     0.61455   0.84024   0.24097   0.00000  Uiso   1.00
C425   C     0.55000   0.79285   0.02042   0.00000  Uiso   1.00
C426   C     0.51798   0.81916   0.04187   0.00000  Uiso   1.00
C427   C     0.57174   0.77290   0.03984   0.00000  Uiso   1.00
C428   C     0.56227   0.77878   0.08047   0.00000  Uiso   1.00
C429   C     0.50838   0.82374   0.08312   0.00000  Uiso   1.00
C430   C     0.66114   0.84271   0.23671   0.00000  Uiso   1.00
C431   C     0.34047   0.82467   0.26207   0.00000  Uiso   1.00
C432   C     0.44156   0.89221   0.42009   0.00000  Uiso   1.00
C433   C     0.51429   0.98887   0.23806   0.00000  Uiso   1.00
C434   C     0.48486   0.67874   0.26200   0.00000  Uiso   1.00
C435   C     0.48928   0.72282   0.25883   0.00000  Uiso   1.00
C436   C     0.51021   0.94436   0.24133   0.00000  Uiso   1.00
C437   C     0.52169   0.81192   0.14416   0.00000  Uiso   1.00
C438   C     0.47880   0.85448   0.35607   0.00000  Uiso   1.00
C439   C     0.47024   0.86360   0.39883   0.00000  Uiso   1.00
C440   C     0.53058   0.80408   0.10192   0.00000  Uiso   1.00
C441   C     0.43387   0.90016   0.46055   0.00000  Uiso   1.00
C442   C     0.49131   0.84334   0.41845   0.00000  Uiso   1.00
C443   C     0.48506   0.85164   0.45921   0.00000  Uiso   1.00
C444   C     0.45515   0.88004   0.48025   0.00000  Uiso   1.00
C445   C     0.50719   0.83225   0.47964   0.00000  Uiso   1.00
C446   C     0.49700   0.83981   0.02135   0.00000  Uiso   1.00
C447   C     0.46673   0.86823   0.04102   0.00000  Uiso   1.00
C448   C     0.44658   0.88810   0.02075   0.00000  Uiso   1.00
H449   H     0.42382   0.90984   0.03704   0.00000  Uiso   1.00
H450   H     0.42486   0.90822   0.40551   0.00000  Uiso   1.00
H451   H     0.51191   0.82066   0.40111   0.00000  Uiso   1.00
H452   H     0.45818   0.87659   0.07222   0.00000  Uiso   1.00
H453   H     0.55079   0.80037   0.42827   0.00000  Uiso   1.00
H454   H     0.34397   0.87409   0.19112   0.00000  Uiso   1.00
H455   H     0.59636   0.75303   0.02354   0.00000  Uiso   1.00
H456   H     0.65085   0.80887   0.28581   0.00000  Uiso   1.00
H457   H     0.54149   0.66954   0.21603   0.00000  Uiso   1.00
H458   H     0.45727   0.99883   0.28409   0.00000  Uiso   1.00
H459   H     0.48405   0.84241   0.10173   0.00000  Uiso   1.00
H460   H     0.57966   0.76374   0.09518   0.00000  Uiso   1.00
H461   H     0.58526   0.76728   0.46319   0.00000  Uiso   1.00
H462   H     0.41120   0.92210   0.47651   0.00000  Uiso   1.00
O463   O     0.50000   0.83333   0.25000   0.00000  Uiso   1.00
O464   O     0.49027   0.79060   0.16625   0.00000  Uiso   1.00
O465   O     0.46020   0.87313   0.33749   0.00000  Uiso   1.00
O466   O     0.54421   0.84159   0.15877   0.00000  Uiso   1.00
O467   O     0.50532   0.82802   0.33749   0.00000  Uiso   1.00
O468   O     0.35865   0.86297   0.20741   0.00000  Uiso   1.00
O469   O     0.51182   0.74768   0.27820   0.00000  Uiso   1.00
O470   O     0.47914   0.92803   0.26767   0.00000  Uiso   1.00
O471   O     0.40785   0.79917   0.23607   0.00000  Uiso   1.00
O472   O     0.60119   0.85845   0.21805   0.00000  Uiso   1.00
O473   O     0.40323   0.85627   0.27820   0.00000  Uiso   1.00
O474   O     0.58773   0.81944   0.26767   0.00000  Uiso   1.00
O475   O     0.47133   0.73570   0.23607   0.00000  Uiso   1.00
O476   O     0.53771   0.92193   0.21805   0.00000  Uiso   1.00
Zn477  Zn    0.52577   0.80756   0.28277   0.00000  Uiso   1.00
Zn478  Zn    0.46792   0.79044   0.22257   0.00000  Uiso   1.00
Zn479  Zn    0.54500   0.86331   0.21188   0.00000  Uiso   1.00
Zn480  Zn    0.46131   0.87202   0.28277   0.00000  Uiso   1.00
C481   C     0.71907   0.82635   0.25914   0.00000  Uiso   1.00
C482   C     0.87302   0.80614   0.45968   0.00000  Uiso   1.00
C483   C     0.89384   0.78693   0.47976   0.00000  Uiso   1.00
C484   C     0.94789   0.84024   0.24097   0.00000  Uiso   1.00
C485   C     0.88333   0.79285   0.02042   0.00000  Uiso   1.00
C486   C     0.85131   0.81916   0.04187   0.00000  Uiso   1.00
C487   C     0.90508   0.77290   0.03984   0.00000  Uiso   1.00
C488   C     0.89560   0.77878   0.08047   0.00000  Uiso   1.00
C489   C     0.84171   0.82374   0.08312   0.00000  Uiso   1.00
C490   C     0.99447   0.84271   0.23671   0.00000  Uiso   1.00
C491   C     0.67381   0.82467   0.26207   0.00000  Uiso   1.00
C492   C     0.77489   0.89221   0.42009   0.00000  Uiso   1.00
C493   C     0.84762   0.98887   0.23806   0.00000  Uiso   1.00
C494   C     0.81819   0.67874   0.26200   0.00000  Uiso   1.00
C495   C     0.82262   0.72282   0.25883   0.00000  Uiso   1.00
C496   C     0.84354   0.94436   0.24133   0.00000  Uiso   1.00
C497   C     0.85503   0.81192   0.14416   0.00000  Uiso   1.00
C498   C     0.81214   0.85448   0.35607   0.00000  Uiso   1.00
C499   C     0.80357   0.86360   0.39883   0.00000  Uiso   1.00
C500   C     0.86391   0.80408   0.10192   0.00000  Uiso   1.00
C501   C     0.76720   0.90016   0.46055   0.00000  Uiso   1.00
C502   C     0.82464   0.84334   0.41845   0.00000  Uiso   1.00
C503   C     0.81839   0.85164   0.45921   0.00000  Uiso   1.00
C504   C     0.78849   0.88004   0.48025   0.00000  Uiso   1.00
C505   C     0.84053   0.83225   0.47964   0.00000  Uiso   1.00
C506   C     0.83033   0.83981   0.02135   0.00000  Uiso   1.00
C507   C     0.80006   0.86823   0.04102   0.00000  Uiso   1.00
C508   C     0.77992   0.88810   0.02075   0.00000  Uiso   1.00
H509   H     0.75716   0.90984   0.03704   0.00000  Uiso   1.00
H510   H     0.75819   0.90822   0.40551   0.00000  Uiso   1.00
H511   H     0.84525   0.82066   0.40111   0.00000  Uiso   1.00
H512   H     0.79152   0.87659   0.07222   0.00000  Uiso   1.00
H513   H     0.88412   0.80037   0.42827   0.00000  Uiso   1.00
H514   H     0.67730   0.87409   0.19112   0.00000  Uiso   1.00
H515   H     0.92970   0.75303   0.02354   0.00000  Uiso   1.00
H516   H     0.98419   0.80887   0.28581   0.00000  Uiso   1.00
H517   H     0.87482   0.66954   0.21603   0.00000  Uiso   1.00
H518   H     0.79060   0.99883   0.28409   0.00000  Uiso   1.00
H519   H     0.81739   0.84241   0.10173   0.00000  Uiso   1.00
H520   H     0.91299   0.76374   0.09518   0.00000  Uiso   1.00
H521   H     0.91859   0.76728   0.46319   0.00000  Uiso   1.00
H522   H     0.74453   0.92210   0.47651   0.00000  Uiso   1.00
O523   O     0.83333   0.83333   0.25000   0.00000  Uiso   1.00
O524   O     0.82360   0.79060   0.16625   0.00000  Uiso   1.00
O525   O     0.79354   0.87313   0.33749   0.00000  Uiso   1.00
O526   O     0.87755   0.84159   0.15877   0.00000  Uiso   1.00
O527   O     0.83865   0.82802   0.33749   0.00000  Uiso   1.00
O528   O     0.69198   0.86297   0.20741   0.00000  Uiso   1.00
O529   O     0.84515   0.74768   0.27820   0.00000  Uiso   1.00
O530   O     0.81247   0.92803   0.26767   0.00000  Uiso   1.00
O531   O     0.74119   0.79917   0.23607   0.00000  Uiso   1.00
O532   O     0.93452   0.85845   0.21805   0.00000  Uiso   1.00
O533   O     0.73656   0.85627   0.27820   0.00000  Uiso   1.00
O534   O     0.92106   0.81944   0.26767   0.00000  Uiso   1.00
O535   O     0.80467   0.73570   0.23607   0.00000  Uiso   1.00
O536   O     0.87104   0.92193   0.21805   0.00000  Uiso   1.00
Zn537  Zn    0.85910   0.80756   0.28277   0.00000  Uiso   1.00
Zn538  Zn    0.80125   0.79044   0.22257   0.00000  Uiso   1.00
Zn539  Zn    0.87833   0.86331   0.21188   0.00000  Uiso   1.00
Zn540  Zn    0.79465   0.87202   0.28277   0.00000  Uiso   1.00
C541   C     0.05240   0.15968   0.75914   0.00000  Uiso   1.00
C542   C     0.20635   0.13947   0.95968   0.00000  Uiso   1.00
C543   C     0.22717   0.12026   0.97976   0.00000  Uiso   1.00
C544   C     0.28122   0.17357   0.74097   0.00000  Uiso   1.00
C545   C     0.21666   0.12619   0.52042   0.00000  Uiso   1.00
C546   C     0.18464   0.15249   0.54187   0.00000  Uiso   1.00
C547   C     0.23841   0.10624   0.53984   0.00000  Uiso   1.00
C548   C     0.22894   0.11212   0.58047   0.00000  Uiso   1.00
C549   C     0.17505   0.15707   0.58312   0.00000  Uiso   1.00
C550   C     0.32781   0.17604   0.73671   0.00000  Uiso   1.00
C551   C     0.00714   0.15800   0.76207   0.00000  Uiso   1.00
C552   C     0.10823   0.22554   0.92009   0.00000  Uiso   1.00
C553   C     0.18095   0.32220   0.73806   0.00000  Uiso   1.00
C554   C     0.15153   0.01208   0.76200   0.00000  Uiso   1.00
C555   C     0.15595   0.05615   0.75883   0.00000  Uiso   1.00
C556   C     0.17688   0.27769   0.74133   0.00000  Uiso   1.00
C557   C     0.18836   0.14525   0.64416   0.00000  Uiso   1.00
C558   C     0.14547   0.18781   0.85607   0.00000  Uiso   1.00
C559   C     0.13691   0.19693   0.89883   0.00000  Uiso   1.00
C560   C     0.19724   0.13742   0.60192   0.00000  Uiso   1.00
C561   C     0.10053   0.23350   0.96055   0.00000  Uiso   1.00
C562   C     0.15798   0.17667   0.91845   0.00000  Uiso   1.00
C563   C     0.15173   0.18497   0.95921   0.00000  Uiso   1.00
C564   C     0.12182   0.21337   0.98025   0.00000  Uiso   1.00
C565   C     0.17386   0.16558   0.97964   0.00000  Uiso   1.00
C566   C     0.16367   0.17314   0.52135   0.00000  Uiso   1.00
C567   C     0.13339   0.20157   0.54102   0.00000  Uiso   1.00
C568   C     0.11325   0.22143   0.52075   0.00000  Uiso   1.00
H569   H     0.09049   0.24317   0.53704   0.00000  Uiso   1.00
H570   H     0.09152   0.24156   0.90551   0.00000  Uiso   1.00
H571   H     0.17858   0.15399   0.90111   0.00000  Uiso   1.00
H572   H     0.12485   0.20993   0.57222   0.00000  Uiso   1.00
H573   H     0.21746   0.13370   0.92827   0.00000  Uiso   1.00
H574   H     0.01063   0.20743   0.69112   0.00000  Uiso   1.00
H575   H     0.26303   0.08636   0.52354   0.00000  Uiso   1.00
H576   H     0.31752   0.14221   0.78581   0.00000  Uiso   1.00
H577   H     0.20816   0.00287   0.71603   0.00000  Uiso   1.00
H578   H     0.12394   0.33216   0.78409   0.00000  Uiso   1.00
H579   H     0.15072   0.17574   0.60173   0.00000  Uiso   1.00
H580   H     0.24633   0.09707   0.59518   0.00000  Uiso   1.00
H581   H     0.25192   0.10061   0.96319   0.00000  Uiso   1.00
H582   H     0.07787   0.25543   0.97651   0.00000  Uiso   1.00
O583   O     0.16667   0.16667   0.75000   0.00000  Uiso   1.00
O584   O     0.15693   0.12393   0.66625   0.00000  Uiso   1.00
O585   O     0.12687   0.20646   0.83749   0.00000  Uiso   1.00
O586   O     0.21088   0.17493   0.65877   0.00000  Uiso   1.00
O587   O     0.17198   0.16135   0.83749   0.00000  Uiso   1.00
O588   O     0.02531   0.19630   0.70741   0.00000  Uiso   1.00
O589   O     0.17849   0.08101   0.77820   0.00000  Uiso   1.00
O590   O     0.14581   0.26136   0.76767   0.00000  Uiso   1.00
O591   O     0.07452   0.13251   0.73607   0.00000  Uiso   1.00
O592   O     0.26785   0.19179   0.71805   0.00000  Uiso   1.00
O593   O     0.06990   0.18960   0.77820   0.00000  Uiso   1.00
O594   O     0.25440   0.15277   0.76767   0.00000  Uiso   1.00
O595   O     0.13800   0.06903   0.73607   0.00000  Uiso   1.00
O596   O     0.20437   0.25527   0.71805   0.00000  Uiso   1.00
Zn597  Zn    0.19244   0.14090   0.78277   0.00000  Uiso   1.00
Zn598  Zn    0.13459   0.12378   0.72257   0.00000  Uiso   1.00
Zn599  Zn    0.21166   0.19664   0.71188   0.00000  Uiso   1.00
Zn600  Zn    0.12798   0.20535   0.78277   0.00000  Uiso   1.00
C601   C     0.38574   0.15968   0.75914   0.00000  Uiso   1.00
C602   C     0.53968   0.13947   0.95968   0.00000  Uiso   1.00
C603   C     0.56051   0.12026   0.97976   0.00000  Uiso   1.00
C604   C     0.61455   0.17357   0.74097   0.00000  Uiso   1.00
C605   C     0.55000   0.12619   0.52042   0.00000  Uiso   1.00
C606   C     0.51798   0.15249   0.54187   0.00000  Uiso   1.00
C607   C     0.57174   0.10624   0.53984   0.00000  Uiso   1.00
C608   C     0.56227   0.11212   0.58047   0.00000  Uiso   1.00
C609   C     0.50838   0.15707   0.58312   0.00000  Uiso   1.00
C610   C     0.66114   0.17604   0.73671   0.00000  Uiso   1.00
C611   C     0.34047   0.15800   0.76207   0.00000  Uiso   1.00
C612   C     0.44156   0.22554   0.92009   0.00000  Uiso   1.00
C613   C     0.51429   0.32220   0.73806   0.00000  Uiso   1.00
C614   C     0.48486   0.01208   0.76200   0.00000  Uiso   1.00
C615   C     0.48928   0.05615   0.75883   0.00000  Uiso   1.00
C616   C     0.51021   0.27769   0.74133   0.00000  Uiso   1.00
C617   C     0.52169   0.14525   0.64416   0.00000  Uiso   1.00
C618   C     0.47880   0.18781   0.85607   0.00000  Uiso   1.00
C619   C     0.47024   0.19693   0.89883   0.00000  Uiso   1.00
C620   C     0.53058   0.13742   0.60192   0.00000  Uiso   1.00
C621   C     0.43387   0.23350   0.96055   0.00000  Uiso   1.00
C622   C     0.49131   0.17667   0.91845   0.00000  Uiso   1.00
C623   C     0.48506   0.18497   0.95921   0.00000  Uiso   1.00
C624   C     0.45515   0.21337   0.98025   0.00000  Uiso   1.00
C625   C     0.50719   0.16558   0.97964   0.00000  Uiso   1.00
C626   C     0.49700   0.17314   0.52135   0.00000  Uiso   1.00
C627   C     0.46673   0.20157   0.54102   0.00000  Uiso   1.00
C628   C     0.44658   0.22143   0.52075   0.00000  Uiso   1.00
H629   H     0.42382   0.24317   0.53704   0.00000  Uiso   1.00
H630   H     0.42486   0.24156   0.90551   0.00000  Uiso   1.00
H631   H     0.51191   0.15399   0.90111   0.00000  Uiso   1.00
H632   H     0.45818   0.20993   0.57222   0.00000  Uiso   1.00
H633   H     0.55079   0.13370   0.92827   0.00000  Uiso   1.00
H634   H     0.34397   0.20743   0.69112   0.00000  Uiso   1.00
H635   H     0.59636   0.08636   0.52354   0.00000  Uiso   1.00
H636   H     0.65085   0.14221   0.78581   0.00000  Uiso   1.00
H637   H     0.54149   0.00287   0.71603   0.00000  Uiso   1.00
H638   H     0.45727   0.33216   0.78409   0.00000  Uiso   1.00
H639   H     0.48405   0.17574   0.60173   0.00000  Uiso   1.00
H640   H     0.57966   0.09707   0.59518   0.00000  Uiso   1.00
H641   H     0.58526   0.10061   0.96319   0.00000  Uiso   1.00
H642   H     0.41120   0.25543   0.97651   0.00000  Uiso   1.00
O643   O     0.50000   0.16667   0.75000   0.00000  Uiso   1.00
O644   O     0.49027   0.12393   0.66625   0.00000  Uiso   1.00
O645   O     0.46020   0.20646   0.83749   0.00000  Uiso   1.00
O646   O     0.54421   0.17493   0.65877   0.00000  Uiso   1.00
O647   O     0.50532   0.16135   0.83749   0.00000  Uiso   1.00
O648   O     0.35865   0.19630   0.70741   0.00000  Uiso   1.00
O649   O     0.51182   0.08101   0.77820   0.00000  Uiso   1.00
O650   O     0.47914   0.26136   0.76767   0.00000  Uiso   1.00
O651   O     0.40785   0.13251   0.73607   0.00000  Uiso   1.00
O652   O     0.60119   0.19179   0.71805   0.00000  Uiso   1.00
O653   O     0.40323   0.18960   0.77820   0.00000  Uiso   1.00
O654   O     0.58773   0.15277   0.76767   0.00000  Uiso   1.00
O655   O     0.47133   0.06903   0.73607   0.00000  Uiso   1.00
O656   O     0.53771   0.25527   0.71805   0.00000  Uiso   1.00
Zn657  Zn    0.52577   0.14090   0.78277   0.00000  Uiso   1.00
Zn658  Zn    0.46792   0.12378   0.72257   0.00000  Uiso   1.00
Zn659  Zn    0.54500   0.19664   0.71188   0.00000  Uiso   1.00
Zn660  Zn    0.46131   0.20535   0.78277   0.00000  Uiso   1.00
C661   C     0.71907   0.15968   0.75914   0.00000  Uiso   1.00
C662   C     0.87302   0.13947   0.95968   0.00000  Uiso   1.00
C663   C     0.89384   0.12026   0.97976   0.00000  Uiso   1.00
C664   C     0.94789   0.17357   0.74097   0.00000  Uiso   1.00
C665   C     0.88333   0.12619   0.52042   0.00000  Uiso   1.00
C666   C     0.85131   0.15249   0.54187   0.00000  Uiso   1.00
C667   C     0.90508   0.10624   0.53984   0.00000  Uiso   1.00
C668   C     0.89560   0.11212   0.58047   0.00000  Uiso   1.00
C669   C     0.84171   0.15707   0.58312   0.00000  Uiso   1.00
C670   C     0.99447   0.17604   0.73671   0.00000  Uiso   1.00
C671   C     0.67381   0.15800   0.76207   0.00000  Uiso   1.00
C672   C     0.77489   0.22554   0.92009   0.00000  Uiso   1.00
C673   C     0.84762   0.32220   0.73806   0.00000  Uiso   1.00
C674   C     0.81819   0.01208   0.76200   0.00000  Uiso   1.00
C675   C     0.82262   0.05615   0.75883   0.00000  Uiso   1.00
C676   C     0.84354   0.27769   0.74133   0.00000  Uiso   1.00
C677   C     0.85503   0.14525   0.64416   0.00000  Uiso   1.00
C678   C     0.81214   0.18781   0.85607   0.00000  Uiso   1.00
C679   C     0.80357   0.19693   0.89883   0.00000  Uiso   1.00
C680   C     0.86391   0.13742   0.60192   0.00000  Uiso   1.00
C681   C     0.76720   0.23350   0.96055   0.00000  Uiso   1.00
C682   C     0.82464   0.17667   0.91845   0.00000  Uiso   1.00
C683   C     0.81839   0.18497   0.95921   0.00000  Uiso   1.00
C684   C     0.78849   0.21337   0.98025   0.00000  Uiso   1.00
C685   C     0.84053   0.16558   0.97964   0.00000  Uiso   1.00
C686   C     0.83033   0.17314   0.52135   0.00000  Uiso   1.00
C687   C     0.80006   0.20157   0.54102   0.00000  Uiso   1.00
C688   C     0.77992   0.22143   0.52075   0.00000  Uiso   1.00
H689   H     0.75716   0.24317   0.53704   0.00000  Uiso   1.00
H690   H     0.75819   0.24156   0.90551   0.00000  Uiso   1.00
H691   H     0.84525   0.15399   0.90111   0.00000  Uiso   1.00
H692   H     0.79152   0.20993   0.57222   0.00000  Uiso   1.00
H693   H     0.88412   0.13370   0.92827   0.00000  Uiso   1.00
H694   H     0.67730   0.20743   0.69112   0.00000  Uiso   1.00
H695   H     0.92970   0.08636   0.52354   0.00000  Uiso   1.00
H696   H     0.98419   0.14221   0.78581   0.00000  Uiso   1.00
H697   H     0.87482   0.00287   0.71603   0.00000  Uiso   1.00
H698   H     0.79060   0.33216   0.78409   0.00000  Uiso   1.00
H699   H     0.81739   0.17574   0.60173   0.00000  Uiso   1.00
H700   H     0.91299   0.09707   0.59518   0.00000  Uiso   1.00
H701   H     0.91859   0.10061   0.96319   0.00000  Uiso   1.00
H702   H     0.74453   0.25543   0.97651   0.00000  Uiso   1.00
O703   O     0.83333   0.16667   0.75000   0.00000  Uiso   1.00
O704   O     0.82360   0.12393   0.66625   0.00000  Uiso   1.00
O705   O     0.79354   0.20646   0.83749   0.00000  Uiso   1.00
O706   O     0.87755   0.17493   0.65877   0.00000  Uiso   1.00
O707   O     0.83865   0.16135   0.83749   0.00000  Uiso   1.00
O708   O     0.69198   0.19630   0.70741   0.00000  Uiso   1.00
O709   O     0.84515   0.08101   0.77820   0.00000  Uiso   1.00
O710   O     0.81247   0.26136   0.76767   0.00000  Uiso   1.00
O711   O     0.74119   0.13251   0.73607   0.00000  Uiso   1.00
O712   O     0.93452   0.19179   0.71805   0.00000  Uiso   1.00
O713   O     0.73656   0.18960   0.77820   0.00000  Uiso   1.00
O714   O     0.92106   0.15277   0.76767   0.00000  Uiso   1.00
O715   O     0.80467   0.06903   0.73607   0.00000  Uiso   1.00
O716   O     0.87104   0.25527   0.71805   0.00000  Uiso   1.00
Zn717  Zn    0.85910   0.14090   0.78277   0.00000  Uiso   1.00
Zn718  Zn    0.80125   0.12378   0.72257   0.00000  Uiso   1.00
Zn719  Zn    0.87833   0.19664   0.71188   0.00000  Uiso   1.00
Zn720  Zn    0.79465   0.20535   0.78277   0.00000  Uiso   1.00
C721   C     0.05240   0.49302   0.75914   0.00000  Uiso   1.00
C722   C     0.20635   0.47280   0.95968   0.00000  Uiso   1.00
C723   C     0.22717   0.45359   0.97976   0.00000  Uiso   1.00
C724   C     0.28122   0.50690   0.74097   0.00000  Uiso   1.00
C725   C     0.21666   0.45952   0.52042   0.00000  Uiso   1.00
C726   C     0.18464   0.48583   0.54187   0.00000  Uiso   1.00
C727   C     0.23841   0.43957   0.53984   0.00000  Uiso   1.00
C728   C     0.22894   0.44545   0.58047   0.00000  Uiso   1.00
C729   C     0.17505   0.49041   0.58312   0.00000  Uiso   1.00
C730   C     0.32781   0.50937   0.73671   0.00000  Uiso   1.00
C731   C     0.00714   0.49133   0.76207   0.00000  Uiso   1.00
C732   C     0.10823   0.55888   0.92009   0.00000  Uiso   1.00
C733   C     0.18095   0.65553   0.73806   0.00000  Uiso   1.00
C734   C     0.15153   0.34541   0.76200   0.00000  Uiso   1.00
C735   C     0.15595   0.38948   0.75883   0.00000  Uiso   1.00
C736   C     0.17688   0.61102   0.74133   0.00000  Uiso   1.00
C737   C     0.18836   0.47858   0.64416   0.00000  Uiso   1.00
C738   C     0.14547   0.52115   0.85607   0.00000  Uiso   1.00
C739   C     0.13691   0.53027   0.89883   0.00000  Uiso   1.00
C740   C     0.19724   0.47075   0.60192   0.00000  Uiso   1.00
C741   C     0.10053   0.56683   0.96055   0.00000  Uiso   1.00
C742   C     0.15798   0.51000   0.91845   0.00000  Uiso   1.00
C743   C     0.15173   0.51830   0.95921   0.00000  Uiso   1.00
C744   C     0.12182   0.54670   0.98025   0.00000  Uiso   1.00
C745   C     0.17386   0.49891   0.97964   0.00000  Uiso   1.00
C746   C     0.16367   0.50647   0.52135   0.00000  Uiso   1.00
C747   C     0.13339   0.53490   0.54102   0.00000  Uiso   1.00
C748   C     0.11325   0.55476   0.52075   0.00000  Uiso   1.00
H749   H     0.09049   0.57651   0.53704   0.00000  Uiso   1.00
H750   H     0.09152   0.57489   0.90551   0.00000  Uiso   1.00
H751   H     0.17858   0.48733   0.90111   0.00000  Uiso   1.00
H752   H     0.12485   0.54326   0.57222   0.00000  Uiso   1.00
H753   H     0.21746   0.46704   0.92827   0.00000  Uiso   1.00
H754   H     0.01063   0.54076   0.69112   0.00000  Uiso   1.00
H755   H     0.26303   0.41970   0.52354   0.00000  Uiso   1.00
H756   H     0.31752   0.47554   0.78581   0.00000  Uiso   1.00
H757   H     0.20816   0.33620   0.71603   0.00000  Uiso   1.00
H758   H     0.12394   0.66549   0.78409   0.00000  Uiso   1.00
H759   H     0.15072   0.50907   0.60173   0.00000  Uiso   1.00
H760   H     0.24633   0.43041   0.59518   0.00000  Uiso   1.00
H761   H     0.25192   0.43394   0.96319   0.00000  Uiso   1.00
H762   H     0.07787   0.58877   0.97651   0.00000  Uiso   1.00
O763   O     0.16667   0.50000   0.75000   0.00000  Uiso   1.00
O764   O     0.15693   0.45726   0.66625   0.00000  Uiso   1.00
O765   O     0.12687   0.53979   0.83749   0.00000  Uiso   1.00
O766   O     0.21088   0.50826   0.65877   0.00000  Uiso   1.00
O767   O     0.17198   0.49468   0.83749   0.00000  Uiso   1.00
O768   O     0.02531   0.52964   0.70741   0.00000  Uiso   1.00
O769   O     0.17849   0.41434   0.77820   0.00000  Uiso   1.00
O770   O     0.14581   0.59469   0.76767   0.00000  Uiso   1.00
O771   O     0.07452   0.46584   0.73607   0.00000  Uiso   1.00
O772   O     0.26785   0.52512   0.71805   0.00000  Uiso   1.00
O773   O     0.06990   0.52293   0.77820   0.00000  Uiso   1.00
O774   O     0.25440   0.48610   0.76767   0.00000  Uiso   1.00
O775   O     0.13800   0.40236   0.73607   0.00000  Uiso   1.00
O776   O     0.20437   0.58860   0.71805   0.00000  Uiso   1.00
Zn777  Zn    0.19244   0.47423   0.78277   0.00000  Uiso   1.00
Zn778  Zn    0.13459   0.45711   0.72257   0.00000  Uiso   1.00
Zn779  Zn    0.21166   0.52997   0.71188   0.00000  Uiso   1.00
Zn780  Zn    0.12798   0.53868   0.78277   0.00000  Uiso   1.00
C781   C     0.38574   0.49302   0.75914   0.00000  Uiso   1.00
C782   C     0.53968   0.47280   0.95968   0.00000  Uiso   1.00
C783   C     0.56051   0.45359   0.97976   0.00000  Uiso   1.00
C784   C     0.61455   0.50690   0.74097   0.00000  Uiso   1.00
C785   C     0.55000   0.45952   0.52042   0.00000  Uiso   1.00
C786   C     0.51798   0.48583   0.54187   0.00000  Uiso   1.00
C787   C     0.57174   0.43957   0.53984   0.00000  Uiso   1.00
C788   C     0.56227   0.44545   0.58047   0.00000  Uiso   1.00
C789   C     0.50838   0.49041   0.58312   0.00000  Uiso   1.00
C790   C     0.66114   0.50937   0.73671   0.00000  Uiso   1.00
C791   C     0.34047   0.49133   0.76207   0.00000  Uiso   1.00
C792   C     0.44156   0.55888   0.92009   0.00000  Uiso   1.00
C793   C     0.51429   0.65553   0.73806   0.00000  Uiso   1.00
C794   C     0.48486   0.34541   0.76200   0.00000  Uiso   1.00
C795   C     0.48928   0.38948   0.75883   0.00000  Uiso   1.00
C796   C     0.51021   0.61102   0.74133   0.00000  Uiso   1.00
C797   C     0.52169   0.47858   0.64416   0.00000  Uiso   1.00
C798   C     0.47880   0.52115   0.85607   0.00000  Uiso   1.00
C799   C     0.47024   0.53027   0.89883   0.00000  Uiso   1.00
C800   C     0.53058   0.47075   0.60192   0.00000  Uiso   1.00
C801   C     0.43387   0.56683   0.96055   0.00000  Uiso   1.00
C802   C     0.49131   0.51000   0.91845   0.00000  Uiso   1.00
C803   C     0.48506   0.51830   0.95921   0.00000  Uiso   1.00
C804   C     0.45515   0.54670   0.98025   0.00000  Uiso   1.00
C805   C     0.50719   0.49891   0.97964   0.00000  Uiso   1.00
C806   C     0.49700   0.50647   0.52135   0.00000  Uiso   1.00
C807   C     0.46673   0.53490   0.54102   0.00000  Uiso   1.00
C808   C     0.44658   0.55476   0.52075   0.00000  Uiso   1.00
H809   H     0.42382   0.57651   0.53704   0.00000  Uiso   1.00
H810   H     0.42486   0.57489   0.90551   0.00000  Uiso   1.00
H811   H     0.51191   0.48733   0.90111   0.00000  Uiso   1.00
H812   H     0.45818   0.54326   0.57222   0.00000  Uiso   1.00
H813   H     0.55079   0.46704   0.92827   0.00000  Uiso   1.00
H814   H     0.34397   0.54076   0.69112   0.00000  Uiso   1.00
H815   H     0.59636   0.41970   0.52354   0.00000  Uiso   1.00
H816   H     0.65085   0.47554   0.78581   0.00000  Uiso   1.00
H817   H     0.54149   0.33620   0.71603   0.00000  Uiso   1.00
H818   H     0.45727   0.66549   0.78409   0.00000  Uiso   1.00
H819   H     0.48405   0.50907   0.60173   0.00000  Uiso   1.00
H820   H     0.57966   0.43041   0.59518   0.00000  Uiso   1.00
H821   H     0.58526   0.43394   0.96319   0.00000  Uiso   1.00
H822   H     0.41120   0.58877   0.97651   0.00000  Uiso   1.00
O823   O     0.50000   0.50000   0.75000   0.00000  Uiso   1.00
O824   O     0.49027   0.45726   0.66625   0.00000  Uiso   1.00
O825   O     0.46020   0.53979   0.83749   0.00000  Uiso   1.00
O826   O     0.54421   0.50826   0.65877   0.00000  Uiso   1.00
O827   O     0.50532   0.49468   0.83749   0.00000  Uiso   1.00
O828   O     0.35865   0.52964   0.70741   0.00000  Uiso   1.00
O829   O     0.51182   0.41434   0.77820   0.00000  Uiso   1.00
O830   O     0.47914   0.59469   0.76767   0.00000  Uiso   1.00
O831   O     0.40785   0.46584   0.73607   0.00000  Uiso   1.00
O832   O     0.60119   0.52512   0.71805   0.00000  Uiso   1.00
O833   O     0.40323   0.52293   0.77820   0.00000  Uiso   1.00
O834   O     0.58773   0.48610   0.76767   0.00000  Uiso   1.00
O835   O     0.47133   0.40236   0.73607   0.00000  Uiso   1.00
O836   O     0.53771   0.58860   0.71805   0.00000  Uiso   1.00
Zn837  Zn    0.52577   0.47423   0.78277   0.00000  Uiso   1.00
Zn838  Zn    0.46792   0.45711   0.72257   0.00000  Uiso   1.00
Zn839  Zn    0.54500   0.52997   0.71188   0.00000  Uiso   1.00
Zn840  Zn    0.46131   0.53868   0.78277   0.00000  Uiso   1.00
C841   C     0.71907   0.49302   0.75914   0.00000  Uiso   1.00
C842   C     0.87302   0.47280   0.95968   0.00000  Uiso   1.00
C843   C     0.89384   0.45359   0.97976   0.00000  Uiso   1.00
C844   C     0.94789   0.50690   0.74097   0.00000  Uiso   1.00
C845   C     0.88333   0.45952   0.52042   0.00000  Uiso   1.00
C846   C     0.85131   0.48583   0.54187   0.00000  Uiso   1.00
C847   C     0.90508   0.43957   0.53984   0.00000  Uiso   1.00
C848   C     0.89560   0.44545   0.58047   0.00000  Uiso   1.00
C849   C     0.84171   0.49041   0.58312   0.00000  Uiso   1.00
C850   C     0.99447   0.50937   0.73671   0.00000  Uiso   1.00
C851   C     0.67381   0.49133   0.76207   0.00000  Uiso   1.00
C852   C     0.77489   0.55888   0.92009   0.00000  Uiso   1.00
C853   C     0.84762   0.65553   0.73806   0.00000  Uiso   1.00
C854   C     0.81819   0.34541   0.76200   0.00000  Uiso   1.00
C855   C     0.82262   0.38948   0.75883   0.00000  Uiso   1.00
C856   C     0.84354   0.61102   0.74133   0.00000  Uiso   1.00
C857   C     0.85503   0.47858   0.64416   0.00000  Uiso   1.00
C858   C     0.81214   0.52115   0.85607   0.00000  Uiso   1.00
C859   C     0.80357   0.53027   0.89883   0.00000  Uiso   1.00
C860   C     0.86391   0.47075   0.60192   0.00000  Uiso   1.00
C861   C     0.76720   0.56683   0.96055   0.00000  Uiso   1.00
C862   C     0.82464   0.51000   0.91845   0.00000  Uiso   1.00
C863   C     0.81839   0.51830   0.95921   0.00000  Uiso   1.00
C864   C     0.78849   0.54670   0.98025   0.00000  Uiso   1.00
C865   C     0.84053   0.49891   0.97964   0.00000  Uiso   1.00
C866   C     0.83033   0.50647   0.52135   0.00000  Uiso   1.00
C867   C     0.80006   0.53490   0.54102   0.00000  Uiso   1.00
C868   C     0.77992   0.55476   0.52075   0.00000  Uiso   1.00
H869   H     0.75716   0.57651   0.53704   0.00000  Uiso   1.00
H870   H     0.75819   0.57489   0.90551   0.00000  Uiso   1.00
H871   H     0.84525   0.48733   0.90111   0.00000  Uiso   1.00
H872   H     0.79152   0.54326   0.57222   0.00000  Uiso   1.00
H873   H     0.88412   0.46704   0.92827   0.00000  Uiso   1.00
H874   H     0.67730   0.54076   0.69112   0.00000  Uiso   1.00
H875   H     0.92970   0.41970   0.52354   0.00000  Uiso   1.00
H876   H     0.98419   0.47554   0.78581   0.00000  Uiso   1.00
H877   H     0.87482   0.33620   0.71603   0.00000  Uiso   1.00
H878   H     0.79060   0.66549   0.78409   0.00000  Uiso   1.00
H879   H     0.81739   0.50907   0.60173   0.00000  Uiso   1.00
H880   H     0.91299   0.43041   0.59518   0.00000  Uiso   1.00
H881   H     0.91859   0.43394   0.96319   0.00000  Uiso   1.00
H882   H     0.74453   0.58877   0.97651   0.00000  Uiso   1.00
O883   O     0.83333   0.50000   0.75000   0.00000  Uiso   1.00
O884   O     0.82360   0.45726   0.66625   0.00000  Uiso   1.00
O885   O     0.79354   0.53979   0.83749   0.00000  Uiso   1.00
O886   O     0.87755   0.50826   0.65877   0.00000  Uiso   1.00
O887   O     0.83865   0.49468   0.83749   0.00000  Uiso   1.00
O888   O     0.69198   0.52964   0.70741   0.00000  Uiso   1.00
O889   O     0.84515   0.41434   0.77820   0.00000  Uiso   1.00
O890   O     0.81247   0.59469   0.76767   0.00000  Uiso   1.00
O891   O     0.74119   0.46584   0.73607   0.00000  Uiso   1.00
O892   O     0.93452   0.52512   0.71805   0.00000  Uiso   1.00
O893   O     0.73656   0.52293   0.77820   0.00000  Uiso   1.00
O894   O     0.92106   0.48610   0.76767   0.00000  Uiso   1.00
O895   O     0.80467   0.40236   0.73607   0.00000  Uiso   1.00
O896   O     0.87104   0.58860   0.71805   0.00000  Uiso   1.00
Zn897  Zn    0.85910   0.47423   0.78277   0.00000  Uiso   1.00
Zn898  Zn    0.80125   0.45711   0.72257   0.00000  Uiso   1.00
Zn899  Zn    0.87833   0.52997   0.71188   0.00000  Uiso   1.00
Zn900  Zn    0.79465   0.53868   0.78277   0.00000  Uiso   1.00
C901   C     0.05240   0.82635   0.75914   0.00000  Uiso   1.00
C902   C     0.20635   0.80614   0.95968   0.00000  Uiso   1.00
C903   C     0.22717   0.78693   0.97976   0.00000  Uiso   1.00
C904   C     0.28122   0.84024   0.74097   0.00000  Uiso   1.00
C905   C     0.21666   0.79285   0.52042   0.00000  Uiso   1.00
C906   C     0.18464   0.81916   0.54187   0.00000  Uiso   1.00
C907   C     0.23841   0.77290   0.53984   0.00000  Uiso   1.00
C908   C     0.22894   0.77878   0.58047   0.00000  Uiso   1.00
C909   C     0.17505   0.82374   0.58312   0.00000  Uiso   1.00
C910   C     0.32781   0.84271   0.73671   0.00000  Uiso   1.00
C911   C     0.00714   0.82467   0.76207   0.00000  Uiso   1.00
C912   C     0.10823   0.89221   0.92009   0.00000  Uiso   1.00
C913   C     0.18095   0.98887   0.73806   0.00000  Uiso   1.00
C914   C     0.15153   0.67874   0.76200   0.00000  Uiso   1.00
C915   C     0.15595   0.72282   0.75883   0.00000  Uiso   1.00
C916   C     0.17688   0.94436   0.74133   0.00000  Uiso   1.00
C917   C     0.18836   0.81192   0.64416   0.00000  Uiso   1.00
C918   C     0.14547   0.85448   0.85607   0.00000  Uiso   1.00
C919   C     0.13691   0.86360   0.89883   0.00000  Uiso   1.00
C920   C     0.19724   0.80408   0.60192   0.00000  Uiso   1.00
C921   C     0.10053   0.90016   0.96055   0.00000  Uiso   1.00
C922   C     0.15798   0.84334   0.91845   0.00000  Uiso   1.00
C923   C     0.15173   0.85164   0.95921   0.00000  Uiso   1.00
C924   C     0.12182   0.88004   0.98025   0.00000  Uiso   1.00
C925   C     0.17386   0.83225   0.97964   0.00000  Uiso   1.00
C926   C     0.16367   0.83981   0.52135   0.00000  Uiso   1.00
C927   C     0.13339   0.86823   0.54102   0.00000  Uiso   1.00
C928   C     0.11325   0.88810   0.52075   0.00000  Uiso   1.00
H929   H     0.09049   0.90984   0.53704   0.00000  Uiso   1.00
H930   H     0.09152   0.90822   0.90551   0.00000  Uiso   1.00
H931   H     0.17858   0.82066   0.90111   0.00000  Uiso   1.00
H932   H     0.12485   0.87659   0.57222   0.00000  Uiso   1.00
H933   H     0.21746   0.80037   0.92827   0.00000  Uiso   1.00
H934   H     0.01063   0.87409   0.69112   0.00000  Uiso   1.00
H935   H     0.26303   0.75303   0.52354   0.00000  Uiso   1.00
H936   H     0.31752   0.80887   0.78581   0.00000  Uiso   1.00
H937   H     0.20816   0.66954   0.71603   0.00000  Uiso   1.00
H938   H     0.12394   0.99883   0.78409   0.00000  Uiso   1.00
H939   H     0.15072   0.84241   0.60173   0.00000  Uiso   1.00
H940   H     0.24633   0.76374   0.59518   0.00000  Uiso   1.00
H941   H     0.25192   0.76728   0.96319   0.00000  Uiso   1.00
H942   H     0.07787   0.92210   0.97651   0.00000  Uiso   1.00
O943   O     0.16667   0.83333   0.75000   0.00000  Uiso   1.00
O944   O     0.15693   0.79060   0.66625   0.00000  Uiso   1.00
O945   O     0.12687   0.87313   0.83749   0.00000  Uiso   1.00
O946   O     0.21088   0.84159   0.65877   0.00000  Uiso   1.00
O947   O     0.17198   0.82802   0.83749   0.00000  Uiso   1.00
O948   O     0.02531   0.86297   0.70741   0.00000  Uiso   1.00
O949   O     0.17849   0.74768   0.77820   0.00000  Uiso   1.00
O950   O     0.14581   0.92803   0.76767   0.00000  Uiso   1.00
O951   O     0.07452   0.79917   0.73607   0.00000  Uiso   1.00
O952   O     0.26785   0.85845   0.71805   0.00000  Uiso   1.00
O953   O     0.06990   0.85627   0.77820   0.00000  Uiso   1.00
O954   O     0.25440   0.81944   0.76767   0.00000  Uiso   1.00
O955   O     0.13800   0.73570   0.73607   0.00000  Uiso   1.00
O956   O     0.20437   0.92193   0.71805   0.00000  Uiso   1.00
Zn957  Zn    0.19244   0.80756   0.78277   0.00000  Uiso   1.00
Zn958  Zn    0.13459   0.79044   0.72257   0.00000  Uiso   1.00
Zn959  Zn    0.21166   0.86331   0.71188   0.00000  Uiso   1.00
Zn960  Zn    0.12798   0.87202   0.78277   0.00000  Uiso   1.00
C961   C     0.38574   0.82635   0.75914   0.00000  Uiso   1.00
C962   C     0.53968   0.80614   0.95968   0.00000  Uiso   1.00
C963   C     0.56051   0.78693   0.97976   0.00000  Uiso   1.00
C964   C     0.61455   0.84024   0.74097   0.00000  Uiso   1.00
C965   C     0.55000   0.79285   0.52042   0.00000  Uiso   1.00
C966   C     0.51798   0.81916   0.54187   0.00000  Uiso   1.00
C967   C     0.57174   0.77290   0.53984   0.00000  Uiso   1.00
C968   C     0.56227   0.77878   0.58047   0.00000  Uiso   1.00
C969   C     0.50838   0.82374   0.58312   0.00000  Uiso   1.00
C970   C     0.66114   0.84271   0.73671   0.00000  Uiso   1.00
C971   C     0.34047   0.82467   0.76207   0.00000  Uiso   1.00
C972   C     0.44156   0.89221   0.92009   0.00000  Uiso   1.00
C973   C     0.51429   0.98887   0.73806   0.00000  Uiso   1.00
C974   C     0.48486   0.67874   0.76200   0.00000  Uiso   1.00
C975   C     0.48928   0.72282   0.75883   0.00000  Uiso   1.00
C976   C     0.51021   0.94436   0.74133   0.00000  Uiso   1.00
C977   C     0.52169   0.81192   0.64416   0.00000  Uiso   1.00
C978   C     0.47880   0.85448   0.85607   0.00000  Uiso   1.00
C979   C     0.47024   0.86360   0.89883   0.00000  Uiso   1.00
C980   C     0.53058   0.80408   0.60192   0.00000  Uiso   1.00
C981   C     0.43387   0.90016   0.96055   0.00000  Uiso   1.00
C982   C     0.49131   0.84334   0.91845   0.00000  Uiso   1.00
C983   C     0.48506   0.85164   0.95921   0.00000  Uiso   1.00
C984   C     0.45515   0.88004   0.98025   0.00000  Uiso   1.00
C985   C     0.50719   0.83225   0.97964   0.00000  Uiso   1.00
C986   C     0.49700   0.83981   0.52135   0.00000  Uiso   1.00
C987   C     0.46673   0.86823   0.54102   0.00000  Uiso   1.00
C988   C     0.44658   0.88810   0.52075   0.00000  Uiso   1.00
H989   H     0.42382   0.90984   0.53704   0.00000  Uiso   1.00
H990   H     0.42486   0.90822   0.90551   0.00000  Uiso   1.00
H991   H     0.51191   0.82066   0.90111   0.00000  Uiso   1.00
H992   H     0.45818   0.87659   0.57222   0.00000  Uiso   1.00
H993   H     0.55079   0.80037   0.92827   0.00000  Uiso   1.00
H994   H     0.34397   0.87409   0.69112   0.00000  Uiso   1.00
H995   H     0.59636   0.75303   0.52354   0.00000  Uiso   1.00
H996   H     0.65085   0.80887   0.78581   0.00000  Uiso   1.00
H997   H     0.54149   0.66954   0.71603   0.00000  Uiso   1.00
H998   H     0.45727   0.99883   0.78409   0.00000  Uiso   1.00
H999   H     0.48405   0.84241   0.60173   0.00000  Uiso   1.00
H1000  H     0.57966   0.76374   0.59518   0.00000  Uiso   1.00
H1001  H     0.58526   0.76728   0.96319   0.00000  Uiso   1.00
H1002  H     0.41120   0.92210   0.97651   0.00000  Uiso   1.00
O1003  O     0.50000   0.83333   0.75000   0.00000  Uiso   1.00
O1004  O     0.49027   0.79060   0.66625   0.00000  Uiso   1.00
O1005  O     0.46020   0.87313   0.83749   0.00000  Uiso   1.00
O1006  O     0.54421   0.84159   0.65877   0.00000  Uiso   1.00
O1007  O     0.50532   0.82802   0.83749   0.00000  Uiso   1.00
O1008  O     0.35865   0.86297   0.70741   0.00000  Uiso   1.00
O1009  O     0.51182   0.74768   0.77820   0.00000  Uiso   1.00
O1010  O     0.47914   0.92803   0.76767   0.00000  Uiso   1.00
O1011  O     0.40785   0.79917   0.73607   0.00000  Uiso   1.00
O1012  O     0.60119   0.85845   0.71805   0.00000  Uiso   1.00
O1013  O     0.40323   0.85627   0.77820   0.00000  Uiso   1.00
O1014  O     0.58773   0.81944   0.76767   0.00000  Uiso   1.00
O1015  O     0.47133   0.73570   0.73607   0.00000  Uiso   1.00
O1016  O     0.53771   0.92193   0.71805   0.00000  Uiso   1.00
Zn1017 Zn    0.52577   0.80756   0.78277   0.00000  Uiso   1.00
Zn1018 Zn    0.46792   0.79044   0.72257   0.00000  Uiso   1.00
Zn1019 Zn    0.54500   0.86331   0.71188   0.00000  Uiso   1.00
Zn1020 Zn    0.46131   0.87202   0.78277   0.00000  Uiso   1.00
C1021  C     0.71907   0.82635   0.75914   0.00000  Uiso   1.00
C1022  C     0.87302   0.80614   0.95968   0.00000  Uiso   1.00
C1023  C     0.89384   0.78693   0.97976   0.00000  Uiso   1.00
C1024  C     0.94789   0.84024   0.74097   0.00000  Uiso   1.00
C1025  C     0.88333   0.79285   0.52042   0.00000  Uiso   1.00
C1026  C     0.85131   0.81916   0.54187   0.00000  Uiso   1.00
C1027  C     0.90508   0.77290   0.53984   0.00000  Uiso   1.00
C1028  C     0.89560   0.77878   0.58047   0.00000  Uiso   1.00
C1029  C     0.84171   0.82374   0.58312   0.00000  Uiso   1.00
C1030  C     0.99447   0.84271   0.73671   0.00000  Uiso   1.00
C1031  C     0.67381   0.82467   0.76207   0.00000  Uiso   1.00
C1032  C     0.77489   0.89221   0.92009   0.00000  Uiso   1.00
C1033  C     0.84762   0.98887   0.73806   0.00000  Uiso   1.00
C1034  C     0.81819   0.67874   0.76200   0.00000  Uiso   1.00
C1035  C     0.82262   0.72282   0.75883   0.00000  Uiso   1.00
C1036  C     0.84354   0.94436   0.74133   0.00000  Uiso   1.00
C1037  C     0.85503   0.81192   0.64416   0.00000  Uiso   1.00
C1038  C     0.81214   0.85448   0.85607   0.00000  Uiso   1.00
C1039  C     0.80357   0.86360   0.89883   0.00000  Uiso   1.00
C1040  C     0.86391   0.80408   0.60192   0.00000  Uiso   1.00
C1041  C     0.76720   0.90016   0.96055   0.00000  Uiso   1.00
C1042  C     0.82464   0.84334   0.91845   0.00000  Uiso   1.00
C1043  C     0.81839   0.85164   0.95921   0.00000  Uiso   1.00
C1044  C     0.78849   0.88004   0.98025   0.00000  Uiso   1.00
C1045  C     0.84053   0.83225   0.97964   0.00000  Uiso   1.00
C1046  C     0.83033   0.83981   0.52135   0.00000  Uiso   1.00
C1047  C     0.80006   0.86823   0.54102   0.00000  Uiso   1.00
C1048  C     0.77992   0.88810   0.52075   0.00000  Uiso   1.00
H1049  H     0.75716   0.90984   0.53704   0.00000  Uiso   1.00
H1050  H     0.75819   0.90822   0.90551   0.00000  Uiso   1.00
H1051  H     0.84525   0.82066   0.90111   0.00000  Uiso   1.00
H1052  H     0.79152   0.87659   0.57222   0.00000  Uiso   1.00
H1053  H     0.88412   0.80037   0.92827   0.00000  Uiso   1.00
H1054  H     0.67730   0.87409   0.69112   0.00000  Uiso   1.00
H1055  H     0.92970   0.75303   0.52354   0.00000  Uiso   1.00
H1056  H     0.98419   0.80887   0.78581   0.00000  Uiso   1.00
H1057  H     0.87482   0.66954   0.71603   0.00000  Uiso   1.00
H1058  H     0.79060   0.99883   0.78409   0.00000  Uiso   1.00
H1059  H     0.81739   0.84241   0.60173   0.00000  Uiso   1.00
H1060  H     0.91299   0.76374   0.59518   0.00000  Uiso   1.00
H1061  H     0.91859   0.76728   0.96319   0.00000  Uiso   1.00
H1062  H     0.74453   0.92210   0.97651   0.00000  Uiso   1.00
O1063  O     0.83333   0.83333   0.75000   0.00000  Uiso   1.00
O1064  O     0.82360   0.79060   0.66625   0.00000  Uiso   1.00
O1065  O     0.79354   0.87313   0.83749   0.00000  Uiso   1.00
O1066  O     0.87755   0.84159   0.65877   0.00000  Uiso   1.00
O1067  O     0.83865   0.82802   0.83749   0.00000  Uiso   1.00
O1068  O     0.69198   0.86297   0.70741   0.00000  Uiso   1.00
O1069  O     0.84515   0.74768   0.77820   0.00000  Uiso   1.00
O1070  O     0.81247   0.92803   0.76767   0.00000  Uiso   1.00
O1071  O     0.74119   0.79917   0.73607   0.00000  Uiso   1.00
O1072  O     0.93452   0.85845   0.71805   0.00000  Uiso   1.00
O1073  O     0.73656   0.85627   0.77820   0.00000  Uiso   1.00
O1074  O     0.92106   0.81944   0.76767   0.00000  Uiso   1.00
O1075  O     0.80467   0.73570   0.73607   0.00000  Uiso   1.00
O1076  O     0.87104   0.92193   0.71805   0.00000  Uiso   1.00
Zn1077 Zn    0.85910   0.80756   0.78277   0.00000  Uiso   1.00
Zn1078 Zn    0.80125   0.79044   0.72257   0.00000  Uiso   1.00
Zn1079 Zn    0.87833   0.86331   0.71188   0.00000  Uiso   1.00
Zn1080 Zn    0.79465   0.87202   0.78277   0.00000  Uiso   1.00
loop_
_geom_bond_atom_site_label_1
_geom_bond_atom_site_label_2
_geom_bond_distance
_geom_bond_site_symmetry_2
_ccdc_geom_bond_type
C1     C11     1.440   .     S
C1     O51     1.272   .     A
C1     O53     1.270   .     A
C2     C3      1.384   .     A
C2     C25     1.416   .     A
C2     H33     1.075   .     S
C3     H41     1.084   .     S
C3     C545    1.389   .     S
C4     O52     1.283   .     A
C4     O54     1.284   .     A
C4     C10     1.471   .     S
C5     C6      1.421   .     A
C5     C7      1.403   .     A
C5     C543    1.389   1_554 S
C6     C9      1.410   .     A
C6     C26     1.428   .     A
C7     C8      1.389   .     A
C7     H35     1.084   .     S
C8     C20     1.394   .     A
C8     H40     1.083   .     S
C9     C20     1.392   .     A
C9     H39     1.077   .     S
C10    C71     1.338   .     S
C10    O108    1.386   .     S
C11    C130    1.338   1_455 S
C11    H156    1.086   1_455 S
C12    C19     1.400   .     A
C12    H30     1.083   .     S
C12    C21     1.392   .     A
C13    C16     1.452   .     S
C13    C194    1.332   .     S
C13    H217    1.088   .     S
C14    C15     1.436   .     S
C14    C373    1.332   1_545 S
C14    H398    1.086   1_545 S
C15    O49     1.281   .     A
C15    O55     1.280   .     A
C16    O56     1.270   .     A
C16    O50     1.270   .     A
C17    C20     1.449   .     S
C17    O44     1.272   .     A
C17    O46     1.271   .     A
C18    O47     1.285   .     A
C18    O45     1.283   .     A
C18    C19     1.471   .     S
C19    C22     1.399   .     A
C21    C24     1.403   .     A
C21    H42     1.084   .     S
C22    H31     1.074   .     S
C22    C23     1.408   .     A
C23    C24     1.418   .     A
C23    C25     1.427   .     A
C24    C568    1.390   .     S
C25    C566    1.427   .     S
C26    C27     1.416   .     A
C26    C565    1.427   1_554 S
C27    H32     1.076   .     S
C27    C28     1.386   .     A
C28    H29     1.084   .     S
C28    C564    1.390   1_554 S
H34    O48     0.990   .     S
H36    C71     1.086   .     S
H37    C373    1.088   1_545 S
H38    C194    1.086   .     S
O43    Zn59    1.931   .     S
O43    Zn60    1.933   .     S
O43    Zn57    1.967   .     S
O43    Zn58    1.946   .     S
O44    Zn58    1.936   .     S
O45    Zn60    1.949   .     S
O46    Zn59    1.943   .     S
O47    Zn57    1.931   .     S
O48    C130    1.386   1_455 S
O49    Zn57    1.927   .     S
O50    Zn60    1.929   .     S
O51    Zn58    1.927   .     S
O52    Zn59    1.940   .     S
O53    Zn60    1.934   .     S
O54    Zn57    1.922   .     S
O55    Zn58    1.937   .     S
O56    Zn59    1.930   .     S
C61    C71     1.440   .     S
C61    O111    1.272   .     A
C61    O113    1.270   .     A
C62    C63     1.384   .     A
C62    C85     1.416   .     A
C62    H93     1.075   .     S
C63    H101    1.084   .     S
C63    C605    1.389   .     S
C64    O112    1.283   .     A
C64    O114    1.284   .     A
C64    C70     1.471   .     S
C65    C66     1.421   .     A
C65    C67     1.403   .     A
C65    C603    1.389   1_554 S
C66    C69     1.410   .     A
C66    C86     1.428   .     A
C67    C68     1.389   .     A
C67    H95     1.084   .     S
C68    C80     1.394   .     A
C68    H100    1.083   .     S
C69    C80     1.392   .     A
C69    H99     1.077   .     S
C70    C131    1.338   .     S
C70    O168    1.386   .     S
C72    C79     1.400   .     A
C72    H90     1.083   .     S
C72    C81     1.392   .     A
C73    C76     1.452   .     S
C73    C254    1.332   .     S
C73    H277    1.088   .     S
C74    C75     1.436   .     S
C74    C433    1.332   1_545 S
C74    H458    1.086   1_545 S
C75    O109    1.281   .     A
C75    O115    1.280   .     A
C76    O116    1.270   .     A
C76    O110    1.270   .     A
C77    C80     1.449   .     S
C77    O104    1.272   .     A
C77    O106    1.271   .     A
C78    O107    1.285   .     A
C78    O105    1.283   .     A
C78    C79     1.471   .     S
C79    C82     1.399   .     A
C81    C84     1.403   .     A
C81    H102    1.084   .     S
C82    H91     1.074   .     S
C82    C83     1.408   .     A
C83    C84     1.418   .     A
C83    C85     1.427   .     A
C84    C628    1.390   .     S
C85    C626    1.427   .     S
C86    C87     1.416   .     A
C86    C625    1.427   1_554 S
C87    H92     1.076   .     S
C87    C88     1.386   .     A
C88    H89     1.084   .     S
C88    C624    1.390   1_554 S
H94    O108    0.990   .     S
H96    C131    1.086   .     S
H97    C433    1.088   1_545 S
H98    C254    1.086   .     S
O103   Zn119   1.931   .     S
O103   Zn120   1.933   .     S
O103   Zn117   1.967   .     S
O103   Zn118   1.946   .     S
O104   Zn118   1.936   .     S
O105   Zn120   1.949   .     S
O106   Zn119   1.943   .     S
O107   Zn117   1.931   .     S
O109   Zn117   1.927   .     S
O110   Zn120   1.929   .     S
O111   Zn118   1.927   .     S
O112   Zn119   1.940   .     S
O113   Zn120   1.934   .     S
O114   Zn117   1.922   .     S
O115   Zn118   1.937   .     S
O116   Zn119   1.930   .     S
C121   C131    1.440   .     S
C121   O171    1.272   .     A
C121   O173    1.270   .     A
C122   C123    1.384   .     A
C122   C145    1.416   .     A
C122   H153    1.075   .     S
C123   H161    1.084   .     S
C123   C665    1.389   .     S
C124   O172    1.283   .     A
C124   O174    1.284   .     A
C124   C130    1.471   .     S
C125   C126    1.421   .     A
C125   C127    1.403   .     A
C125   C663    1.389   1_554 S
C126   C129    1.410   .     A
C126   C146    1.428   .     A
C127   C128    1.389   .     A
C127   H155    1.084   .     S
C128   C140    1.394   .     A
C128   H160    1.083   .     S
C129   C140    1.392   .     A
C129   H159    1.077   .     S
C130   C11     1.338   1_655 S
C130   O48     1.386   1_655 S
C132   C139    1.400   .     A
C132   H150    1.083   .     S
C132   C141    1.392   .     A
C133   C136    1.452   .     S
C133   C314    1.332   .     S
C133   H337    1.088   .     S
C134   C135    1.436   .     S
C134   C493    1.332   1_545 S
C134   H518    1.086   1_545 S
C135   O169    1.281   .     A
C135   O175    1.280   .     A
C136   O176    1.270   .     A
C136   O170    1.270   .     A
C137   C140    1.449   .     S
C137   O164    1.272   .     A
C137   O166    1.271   .     A
C138   O167    1.285   .     A
C138   O165    1.283   .     A
C138   C139    1.471   .     S
C139   C142    1.399   .     A
C141   C144    1.403   .     A
C141   H162    1.084   .     S
C142   H151    1.074   .     S
C142   C143    1.408   .     A
C143   C144    1.418   .     A
C143   C145    1.427   .     A
C144   C688    1.390   .     S
C145   C686    1.427   .     S
C146   C147    1.416   .     A
C146   C685    1.427   1_554 S
C147   H152    1.076   .     S
C147   C148    1.386   .     A
C148   H149    1.084   .     S
C148   C684    1.390   1_554 S
H154   O168    0.990   .     S
H156   C11     1.086   1_655 S
H157   C493    1.088   1_545 S
H158   C314    1.086   .     S
O163   Zn179   1.931   .     S
O163   Zn180   1.933   .     S
O163   Zn177   1.967   .     S
O163   Zn178   1.946   .     S
O164   Zn178   1.936   .     S
O165   Zn180   1.949   .     S
O166   Zn179   1.943   .     S
O167   Zn177   1.931   .     S
O169   Zn177   1.927   .     S
O170   Zn180   1.929   .     S
O171   Zn178   1.927   .     S
O172   Zn179   1.940   .     S
O173   Zn180   1.934   .     S
O174   Zn177   1.922   .     S
O175   Zn178   1.937   .     S
O176   Zn179   1.930   .     S
C181   C191    1.440   .     S
C181   O231    1.272   .     A
C181   O233    1.270   .     A
C182   C183    1.384   .     A
C182   C205    1.416   .     A
C182   H213    1.075   .     S
C183   H221    1.084   .     S
C183   C725    1.389   .     S
C184   O232    1.283   .     A
C184   O234    1.284   .     A
C184   C190    1.471   .     S
C185   C186    1.421   .     A
C185   C187    1.403   .     A
C185   C723    1.389   1_554 S
C186   C189    1.410   .     A
C186   C206    1.428   .     A
C187   C188    1.389   .     A
C187   H215    1.084   .     S
C188   C200    1.394   .     A
C188   H220    1.083   .     S
C189   C200    1.392   .     A
C189   H219    1.077   .     S
C190   C251    1.338   .     S
C190   O288    1.386   .     S
C191   C310    1.338   1_455 S
C191   H336    1.086   1_455 S
C192   C199    1.400   .     A
C192   H210    1.083   .     S
C192   C201    1.392   .     A
C193   C196    1.452   .     S
C193   C374    1.332   .     S
C193   H397    1.088   .     S
C194   C195    1.436   .     S
C195   O229    1.281   .     A
C195   O235    1.280   .     A
C196   O236    1.270   .     A
C196   O230    1.270   .     A
C197   C200    1.449   .     S
C197   O224    1.272   .     A
C197   O226    1.271   .     A
C198   O227    1.285   .     A
C198   O225    1.283   .     A
C198   C199    1.471   .     S
C199   C202    1.399   .     A
C201   C204    1.403   .     A
C201   H222    1.084   .     S
C202   H211    1.074   .     S
C202   C203    1.408   .     A
C203   C204    1.418   .     A
C203   C205    1.427   .     A
C204   C748    1.390   .     S
C205   C746    1.427   .     S
C206   C207    1.416   .     A
C206   C745    1.427   1_554 S
C207   H212    1.076   .     S
C207   C208    1.386   .     A
C208   H209    1.084   .     S
C208   C744    1.390   1_554 S
H214   O228    0.990   .     S
H216   C251    1.086   .     S
H218   C374    1.086   .     S
O223   Zn239   1.931   .     S
O223   Zn240   1.933   .     S
O223   Zn237   1.967   .     S
O223   Zn238   1.946   .     S
O224   Zn238   1.936   .     S
O225   Zn240   1.949   .     S
O226   Zn239   1.943   .     S
O227   Zn237   1.931   .     S
O228   C310    1.386   1_455 S
O229   Zn237   1.927   .     S
O230   Zn240   1.929   .     S
O231   Zn238   1.927   .     S
O232   Zn239   1.940   .     S
O233   Zn240   1.934   .     S
O234   Zn237   1.922   .     S
O235   Zn238   1.937   .     S
O236   Zn239   1.930   .     S
C241   C251    1.440   .     S
C241   O291    1.272   .     A
C241   O293    1.270   .     A
C242   C243    1.384   .     A
C242   C265    1.416   .     A
C242   H273    1.075   .     S
C243   H281    1.084   .     S
C243   C785    1.389   .     S
C244   O292    1.283   .     A
C244   O294    1.284   .     A
C244   C250    1.471   .     S
C245   C246    1.421   .     A
C245   C247    1.403   .     A
C245   C783    1.389   1_554 S
C246   C249    1.410   .     A
C246   C266    1.428   .     A
C247   C248    1.389   .     A
C247   H275    1.084   .     S
C248   C260    1.394   .     A
C248   H280    1.083   .     S
C249   C260    1.392   .     A
C249   H279    1.077   .     S
C250   C311    1.338   .     S
C250   O348    1.386   .     S
C252   C259    1.400   .     A
C252   H270    1.083   .     S
C252   C261    1.392   .     A
C253   C256    1.452   .     S
C253   C434    1.332   .     S
C253   H457    1.088   .     S
C254   C255    1.436   .     S
C255   O289    1.281   .     A
C255   O295    1.280   .     A
C256   O296    1.270   .     A
C256   O290    1.270   .     A
C257   C260    1.449   .     S
C257   O284    1.272   .     A
C257   O286    1.271   .     A
C258   O287    1.285   .     A
C258   O285    1.283   .     A
C258   C259    1.471   .     S
C259   C262    1.399   .     A
C261   C264    1.403   .     A
C261   H282    1.084   .     S
C262   H271    1.074   .     S
C262   C263    1.408   .     A
C263   C264    1.418   .     A
C263   C265    1.427   .     A
C264   C808    1.390   .     S
C265   C806    1.427   .     S
C266   C267    1.416   .     A
C266   C805    1.427   1_554 S
C267   H272    1.076   .     S
C267   C268    1.386   .     A
C268   H269    1.084   .     S
C268   C804    1.390   1_554 S
H274   O288    0.990   .     S
H276   C311    1.086   .     S
H278   C434    1.086   .     S
O283   Zn299   1.931   .     S
O283   Zn300   1.933   .     S
O283   Zn297   1.967   .     S
O283   Zn298   1.946   .     S
O284   Zn298   1.936   .     S
O285   Zn300   1.949   .     S
O286   Zn299   1.943   .     S
O287   Zn297   1.931   .     S
O289   Zn297   1.927   .     S
O290   Zn300   1.929   .     S
O291   Zn298   1.927   .     S
O292   Zn299   1.940   .     S
O293   Zn300   1.934   .     S
O294   Zn297   1.922   .     S
O295   Zn298   1.937   .     S
O296   Zn299   1.930   .     S
C301   C311    1.440   .     S
C301   O351    1.272   .     A
C301   O353    1.270   .     A
C302   C303    1.384   .     A
C302   C325    1.416   .     A
C302   H333    1.075   .     S
C303   H341    1.084   .     S
C303   C845    1.389   .     S
C304   O352    1.283   .     A
C304   O354    1.284   .     A
C304   C310    1.471   .     S
C305   C306    1.421   .     A
C305   C307    1.403   .     A
C305   C843    1.389   1_554 S
C306   C309    1.410   .     A
C306   C326    1.428   .     A
C307   C308    1.389   .     A
C307   H335    1.084   .     S
C308   C320    1.394   .     A
C308   H340    1.083   .     S
C309   C320    1.392   .     A
C309   H339    1.077   .     S
C310   C191    1.338   1_655 S
C310   O228    1.386   1_655 S
C312   C319    1.400   .     A
C312   H330    1.083   .     S
C312   C321    1.392   .     A
C313   C316    1.452   .     S
C313   C494    1.332   .     S
C313   H517    1.088   .     S
C314   C315    1.436   .     S
C315   O349    1.281   .     A
C315   O355    1.280   .     A
C316   O356    1.270   .     A
C316   O350    1.270   .     A
C317   C320    1.449   .     S
C317   O344    1.272   .     A
C317   O346    1.271   .     A
C318   O347    1.285   .     A
C318   O345    1.283   .     A
C318   C319    1.471   .     S
C319   C322    1.399   .     A
C321   C324    1.403   .     A
C321   H342    1.084   .     S
C322   H331    1.074   .     S
C322   C323    1.408   .     A
C323   C324    1.418   .     A
C323   C325    1.427   .     A
C324   C868    1.390   .     S
C325   C866    1.427   .     S
C326   C327    1.416   .     A
C326   C865    1.427   1_554 S
C327   H332    1.076   .     S
C327   C328    1.386   .     A
C328   H329    1.084   .     S
C328   C864    1.390   1_554 S
H334   O348    0.990   .     S
H336   C191    1.086   1_655 S
H338   C494    1.086   .     S
O343   Zn359   1.931   .     S
O343   Zn360   1.933   .     S
O343   Zn357   1.967   .     S
O343   Zn358   1.946   .     S
O344   Zn358   1.936   .     S
O345   Zn360   1.949   .     S
O346   Zn359   1.943   .     S
O347   Zn357   1.931   .     S
O349   Zn357   1.927   .     S
O350   Zn360   1.929   .     S
O351   Zn358   1.927   .     S
O352   Zn359   1.940   .     S
O353   Zn360   1.934   .     S
O354   Zn357   1.922   .     S
O355   Zn358   1.937   .     S
O356   Zn359   1.930   .     S
C361   C371    1.440   .     S
C361   O411    1.272   .     A
C361   O413    1.270   .     A
C362   C363    1.384   .     A
C362   C385    1.416   .     A
C362   H393    1.075   .     S
C363   H401    1.084   .     S
C363   C905    1.389   .     S
C364   O412    1.283   .     A
C364   O414    1.284   .     A
C364   C370    1.471   .     S
C365   C366    1.421   .     A
C365   C367    1.403   .     A
C365   C903    1.389   1_554 S
C366   C369    1.410   .     A
C366   C386    1.428   .     A
C367   C368    1.389   .     A
C367   H395    1.084   .     S
C368   C380    1.394   .     A
C368   H400    1.083   .     S
C369   C380    1.392   .     A
C369   H399    1.077   .     S
C370   C431    1.338   .     S
C370   O468    1.386   .     S
C371   C490    1.338   1_455 S
C371   H516    1.086   1_455 S
C372   C379    1.400   .     A
C372   H390    1.083   .     S
C372   C381    1.392   .     A
C373   C376    1.452   .     S
C373   C14     1.332   1_565 S
C373   H37     1.088   1_565 S
C374   C375    1.436   .     S
C375   O409    1.281   .     A
C375   O415    1.280   .     A
C376   O416    1.270   .     A
C376   O410    1.270   .     A
C377   C380    1.449   .     S
C377   O404    1.272   .     A
C377   O406    1.271   .     A
C378   O407    1.285   .     A
C378   O405    1.283   .     A
C378   C379    1.471   .     S
C379   C382    1.399   .     A
C381   C384    1.403   .     A
C381   H402    1.084   .     S
C382   H391    1.074   .     S
C382   C383    1.408   .     A
C383   C384    1.418   .     A
C383   C385    1.427   .     A
C384   C928    1.390   .     S
C385   C926    1.427   .     S
C386   C387    1.416   .     A
C386   C925    1.427   1_554 S
C387   H392    1.076   .     S
C387   C388    1.386   .     A
C388   H389    1.084   .     S
C388   C924    1.390   1_554 S
H394   O408    0.990   .     S
H396   C431    1.086   .     S
H398   C14     1.086   1_565 S
O403   Zn419   1.931   .     S
O403   Zn420   1.933   .     S
O403   Zn417   1.967   .     S
O403   Zn418   1.946   .     S
O404   Zn418   1.936   .     S
O405   Zn420   1.949   .     S
O406   Zn419   1.943   .     S
O407   Zn417   1.931   .     S
O408   C490    1.386   1_455 S
O409   Zn417   1.927   .     S
O410   Zn420   1.929   .     S
O411   Zn418   1.927   .     S
O412   Zn419   1.940   .     S
O413   Zn420   1.934   .     S
O414   Zn417   1.922   .     S
O415   Zn418   1.937   .     S
O416   Zn419   1.930   .     S
C421   C431    1.440   .     S
C421   O471    1.272   .     A
C421   O473    1.270   .     A
C422   C423    1.384   .     A
C422   C445    1.416   .     A
C422   H453    1.075   .     S
C423   H461    1.084   .     S
C423   C965    1.389   .     S
C424   O472    1.283   .     A
C424   O474    1.284   .     A
C424   C430    1.471   .     S
C425   C426    1.421   .     A
C425   C427    1.403   .     A
C425   C963    1.389   1_554 S
C426   C429    1.410   .     A
C426   C446    1.428   .     A
C427   C428    1.389   .     A
C427   H455    1.084   .     S
C428   C440    1.394   .     A
C428   H460    1.083   .     S
C429   C440    1.392   .     A
C429   H459    1.077   .     S
C430   C491    1.338   .     S
C430   O528    1.386   .     S
C432   C439    1.400   .     A
C432   H450    1.083   .     S
C432   C441    1.392   .     A
C433   C436    1.452   .     S
C433   C74     1.332   1_565 S
C433   H97     1.088   1_565 S
C434   C435    1.436   .     S
C435   O469    1.281   .     A
C435   O475    1.280   .     A
C436   O476    1.270   .     A
C436   O470    1.270   .     A
C437   C440    1.449   .     S
C437   O464    1.272   .     A
C437   O466    1.271   .     A
C438   O467    1.285   .     A
C438   O465    1.283   .     A
C438   C439    1.471   .     S
C439   C442    1.399   .     A
C441   C444    1.403   .     A
C441   H462    1.084   .     S
C442   H451    1.074   .     S
C442   C443    1.408   .     A
C443   C444    1.418   .     A
C443   C445    1.427   .     A
C444   C988    1.390   .     S
C445   C986    1.427   .     S
C446   C447    1.416   .     A
C446   C985    1.427   1_554 S
C447   H452    1.076   .     S
C447   C448    1.386   .     A
C448   H449    1.084   .     S
C448   C984    1.390   1_554 S
H454   O468    0.990   .     S
H456   C491    1.086   .     S
H458   C74     1.086   1_565 S
O463   Zn479   1.931   .     S
O463   Zn480   1.933   .     S
O463   Zn477   1.967   .     S
O463   Zn478   1.946   .     S
O464   Zn478   1.936   .     S
O465   Zn480   1.949   .     S
O466   Zn479   1.943   .     S
O467   Zn477   1.931   .     S
O469   Zn477   1.927   .     S
O470   Zn480   1.929   .     S
O471   Zn478   1.927   .     S
O472   Zn479   1.940   .     S
O473   Zn480   1.934   .     S
O474   Zn477   1.922   .     S
O475   Zn478   1.937   .     S
O476   Zn479   1.930   .     S
C481   C491    1.440   .     S
C481   O531    1.272   .     A
C481   O533    1.270   .     A
C482   C483    1.384   .     A
C482   C505    1.416   .     A
C482   H513    1.075   .     S
C483   H521    1.084   .     S
C483   C1025   1.389   .     S
C484   O532    1.283   .     A
C484   O534    1.284   .     A
C484   C490    1.471   .     S
C485   C486    1.421   .     A
C485   C487    1.403   .     A
C485   C1023   1.389   1_554 S
C486   C489    1.410   .     A
C486   C506    1.428   .     A
C487   C488    1.389   .     A
C487   H515    1.084   .     S
C488   C500    1.394   .     A
C488   H520    1.083   .     S
C489   C500    1.392   .     A
C489   H519    1.077   .     S
C490   C371    1.338   1_655 S
C490   O408    1.386   1_655 S
C492   C499    1.400   .     A
C492   H510    1.083   .     S
C492   C501    1.392   .     A
C493   C496    1.452   .     S
C493   C134    1.332   1_565 S
C493   H157    1.088   1_565 S
C494   C495    1.436   .     S
C495   O529    1.281   .     A
C495   O535    1.280   .     A
C496   O536    1.270   .     A
C496   O530    1.270   .     A
C497   C500    1.449   .     S
C497   O524    1.272   .     A
C497   O526    1.271   .     A
C498   O527    1.285   .     A
C498   O525    1.283   .     A
C498   C499    1.471   .     S
C499   C502    1.399   .     A
C501   C504    1.403   .     A
C501   H522    1.084   .     S
C502   H511    1.074   .     S
C502   C503    1.408   .     A
C503   C504    1.418   .     A
C503   C505    1.427   .     A
C504   C1048   1.390   .     S
C505   C1046   1.427   .     S
C506   C507    1.416   .     A
C506   C1045   1.427   1_554 S
C507   H512    1.076   .     S
C507   C508    1.386   .     A
C508   H509    1.084   .     S
C508   C1044   1.390   1_554 S
H514   O528    0.990   .     S
H516   C371    1.086   1_655 S
H518   C134    1.086   1_565 S
O523   Zn539   1.931   .     S
O523   Zn540   1.933   .     S
O523   Zn537   1.967   .     S
O523   Zn538   1.946   .     S
O524   Zn538   1.936   .     S
O525   Zn540   1.949   .     S
O526   Zn539   1.943   .     S
O527   Zn537   1.931   .     S
O529   Zn537   1.927   .     S
O530   Zn540   1.929   .     S
O531   Zn538   1.927   .     S
O532   Zn539   1.940   .     S
O533   Zn540   1.934   .     S
O534   Zn537   1.922   .     S
O535   Zn538   1.937   .     S
O536   Zn539   1.930   .     S
C541   C551    1.440   .     S
C541   O591    1.272   .     A
C541   O593    1.270   .     A
C542   C543    1.384   .     A
C542   C565    1.416   .     A
C542   H573    1.075   .     S
C543   H581    1.084   .     S
C543   C5      1.389   1_556 S
C544   O592    1.283   .     A
C544   O594    1.284   .     A
C544   C550    1.471   .     S
C545   C546    1.421   .     A
C545   C547    1.403   .     A
C546   C549    1.410   .     A
C546   C566    1.428   .     A
C547   C548    1.389   .     A
C547   H575    1.084   .     S
C548   C560    1.394   .     A
C548   H580    1.083   .     S
C549   C560    1.392   .     A
C549   H579    1.077   .     S
C550   C611    1.338   .     S
C550   O648    1.386   .     S
C551   C670    1.338   1_455 S
C551   H696    1.086   1_455 S
C552   C559    1.400   .     A
C552   H570    1.083   .     S
C552   C561    1.392   .     A
C553   C556    1.452   .     S
C553   C734    1.332   .     S
C553   H757    1.088   .     S
C554   C555    1.436   .     S
C554   C913    1.332   1_545 S
C554   H938    1.086   1_545 S
C555   O589    1.281   .     A
C555   O595    1.280   .     A
C556   O596    1.270   .     A
C556   O590    1.270   .     A
C557   C560    1.449   .     S
C557   O584    1.272   .     A
C557   O586    1.271   .     A
C558   O587    1.285   .     A
C558   O585    1.283   .     A
C558   C559    1.471   .     S
C559   C562    1.399   .     A
C561   C564    1.403   .     A
C561   H582    1.084   .     S
C562   H571    1.074   .     S
C562   C563    1.408   .     A
C563   C564    1.418   .     A
C563   C565    1.427   .     A
C564   C28     1.390   1_556 S
C565   C26     1.427   1_556 S
C566   C567    1.416   .     A
C567   H572    1.076   .     S
C567   C568    1.386   .     A
C568   H569    1.084   .     S
H574   O588    0.990   .     S
H576   C611    1.086   .     S
H577   C913    1.088   1_545 S
H578   C734    1.086   .     S
O583   Zn599   1.931   .     S
O583   Zn600   1.933   .     S
O583   Zn597   1.967   .     S
O583   Zn598   1.946   .     S
O584   Zn598   1.936   .     S
O585   Zn600   1.949   .     S
O586   Zn599   1.943   .     S
O587   Zn597   1.931   .     S
O588   C670    1.386   1_455 S
O589   Zn597   1.927   .     S
O590   Zn600   1.929   .     S
O591   Zn598   1.927   .     S
O592   Zn599   1.940   .     S
O593   Zn600   1.934   .     S
O594   Zn597   1.922   .     S
O595   Zn598   1.937   .     S
O596   Zn599   1.930   .     S
C601   C611    1.440   .     S
C601   O651    1.272   .     A
C601   O653    1.270   .     A
C602   C603    1.384   .     A
C602   C625    1.416   .     A
C602   H633    1.075   .     S
C603   H641    1.084   .     S
C603   C65     1.389   1_556 S
C604   O652    1.283   .     A
C604   O654    1.284   .     A
C604   C610    1.471   .     S
C605   C606    1.421   .     A
C605   C607    1.403   .     A
C606   C609    1.410   .     A
C606   C626    1.428   .     A
C607   C608    1.389   .     A
C607   H635    1.084   .     S
C608   C620    1.394   .     A
C608   H640    1.083   .     S
C609   C620    1.392   .     A
C609   H639    1.077   .     S
C610   C671    1.338   .     S
C610   O708    1.386   .     S
C612   C619    1.400   .     A
C612   H630    1.083   .     S
C612   C621    1.392   .     A
C613   C616    1.452   .     S
C613   C794    1.332   .     S
C613   H817    1.088   .     S
C614   C615    1.436   .     S
C614   C973    1.332   1_545 S
C614   H998    1.086   1_545 S
C615   O649    1.281   .     A
C615   O655    1.280   .     A
C616   O656    1.270   .     A
C616   O650    1.270   .     A
C617   C620    1.449   .     S
C617   O644    1.272   .     A
C617   O646    1.271   .     A
C618   O647    1.285   .     A
C618   O645    1.283   .     A
C618   C619    1.471   .     S
C619   C622    1.399   .     A
C621   C624    1.403   .     A
C621   H642    1.084   .     S
C622   H631    1.074   .     S
C622   C623    1.408   .     A
C623   C624    1.418   .     A
C623   C625    1.427   .     A
C624   C88     1.390   1_556 S
C625   C86     1.427   1_556 S
C626   C627    1.416   .     A
C627   H632    1.076   .     S
C627   C628    1.386   .     A
C628   H629    1.084   .     S
H634   O648    0.990   .     S
H636   C671    1.086   .     S
H637   C973    1.088   1_545 S
H638   C794    1.086   .     S
O643   Zn659   1.931   .     S
O643   Zn660   1.933   .     S
O643   Zn657   1.967   .     S
O643   Zn658   1.946   .     S
O644   Zn658   1.936   .     S
O645   Zn660   1.949   .     S
O646   Zn659   1.943   .     S
O647   Zn657   1.931   .     S
O649   Zn657   1.927   .     S
O650   Zn660   1.929   .     S
O651   Zn658   1.927   .     S
O652   Zn659   1.940   .     S
O653   Zn660   1.934   .     S
O654   Zn657   1.922   .     S
O655   Zn658   1.937   .     S
O656   Zn659   1.930   .     S
C661   C671    1.440   .     S
C661   O711    1.272   .     A
C661   O713    1.270   .     A
C662   C663    1.384   .     A
C662   C685    1.416   .     A
C662   H693    1.075   .     S
C663   H701    1.084   .     S
C663   C125    1.389   1_556 S
C664   O712    1.283   .     A
C664   O714    1.284   .     A
C664   C670    1.471   .     S
C665   C666    1.421   .     A
C665   C667    1.403   .     A
C666   C669    1.410   .     A
C666   C686    1.428   .     A
C667   C668    1.389   .     A
C667   H695    1.084   .     S
C668   C680    1.394   .     A
C668   H700    1.083   .     S
C669   C680    1.392   .     A
C669   H699    1.077   .     S
C670   C551    1.338   1_655 S
C670   O588    1.386   1_655 S
C672   C679    1.400   .     A
C672   H690    1.083   .     S
C672   C681    1.392   .     A
C673   C676    1.452   .     S
C673   C854    1.332   .     S
C673   H877    1.088   .     S
C674   C675    1.436   .     S
C674   C1033   1.332   1_545 S
C674   H1058   1.086   1_545 S
C675   O709    1.281   .     A
C675   O715    1.280   .     A
C676   O716    1.270   .     A
C676   O710    1.270   .     A
C677   C680    1.449   .     S
C677   O704    1.272   .     A
C677   O706    1.271   .     A
C678   O707    1.285   .     A
C678   O705    1.283   .     A
C678   C679    1.471   .     S
C679   C682    1.399   .     A
C681   C684    1.403   .     A
C681   H702    1.084   .     S
C682   H691    1.074   .     S
C682   C683    1.408   .     A
C683   C684    1.418   .     A
C683   C685    1.427   .     A
C684   C148    1.390   1_556 S
C685   C146    1.427   1_556 S
C686   C687    1.416   .     A
C687   H692    1.076   .     S
C687   C688    1.386   .     A
C688   H689    1.084   .     S
H694   O708    0.990   .     S
H696   C551    1.086   1_655 S
H697   C1033   1.088   1_545 S
H698   C854    1.086   .     S
O703   Zn719   1.931   .     S
O703   Zn720   1.933   .     S
O703   Zn717   1.967   .     S
O703   Zn718   1.946   .     S
O704   Zn718   1.936   .     S
O705   Zn720   1.949   .     S
O706   Zn719   1.943   .     S
O707   Zn717   1.931   .     S
O709   Zn717   1.927   .     S
O710   Zn720   1.929   .     S
O711   Zn718   1.927   .     S
O712   Zn719   1.940   .     S
O713   Zn720   1.934   .     S
O714   Zn717   1.922   .     S
O715   Zn718   1.937   .     S
O716   Zn719   1.930   .     S
C721   C731    1.440   .     S
C721   O771    1.272   .     A
C721   O773    1.270   .     A
C722   C723    1.384   .     A
C722   C745    1.416   .     A
C722   H753    1.075   .     S
C723   H761    1.084   .     S
C723   C185    1.389   1_556 S
C724   O772    1.283   .     A
C724   O774    1.284   .     A
C724   C730    1.471   .     S
C725   C726    1.421   .     A
C725   C727    1.403   .     A
C726   C729    1.410   .     A
C726   C746    1.428   .     A
C727   C728    1.389   .     A
C727   H755    1.084   .     S
C728   C740    1.394   .     A
C728   H760    1.083   .     S
C729   C740    1.392   .     A
C729   H759    1.077   .     S
C730   C791    1.338   .     S
C730   O828    1.386   .     S
C731   C850    1.338   1_455 S
C731   H876    1.086   1_455 S
C732   C739    1.400   .     A
C732   H750    1.083   .     S
C732   C741    1.392   .     A
C733   C736    1.452   .     S
C733   C914    1.332   .     S
C733   H937    1.088   .     S
C734   C735    1.436   .     S
C735   O769    1.281   .     A
C735   O775    1.280   .     A
C736   O776    1.270   .     A
C736   O770    1.270   .     A
C737   C740    1.449   .     S
C737   O764    1.272   .     A
C737   O766    1.271   .     A
C738   O767    1.285   .     A
C738   O765    1.283   .     A
C738   C739    1.471   .     S
C739   C742    1.399   .     A
C741   C744    1.403   .     A
C741   H762    1.084   .     S
C742   H751    1.074   .     S
C742   C743    1.408   .     A
C743   C744    1.418   .     A
C743   C745    1.427   .     A
C744   C208    1.390   1_556 S
C745   C206    1.427   1_556 S
C746   C747    1.416   .     A
C747   H752    1.076   .     S
C747   C748    1.386   .     A
C748   H749    1.084   .     S
H754   O768    0.990   .     S
H756   C791    1.086   .     S
H758   C914    1.086   .     S
O763   Zn779   1.931   .     S
O763   Zn780   1.933   .     S
O763   Zn777   1.967   .     S
O763   Zn778   1.946   .     S
O764   Zn778   1.936   .     S
O765   Zn780   1.949   .     S
O766   Zn779   1.943   .     S
O767   Zn777   1.931   .     S
O768   C850    1.386   1_455 S
O769   Zn777   1.927   .     S
O770   Zn780   1.929   .     S
O771   Zn778   1.927   .     S
O772   Zn779   1.940   .     S
O773   Zn780   1.934   .     S
O774   Zn777   1.922   .     S
O775   Zn778   1.937   .     S
O776   Zn779   1.930   .     S
C781   C791    1.440   .     S
C781   O831    1.272   .     A
C781   O833    1.270   .     A
C782   C783    1.384   .     A
C782   C805    1.416   .     A
C782   H813    1.075   .     S
C783   H821    1.084   .     S
C783   C245    1.389   1_556 S
C784   O832    1.283   .     A
C784   O834    1.284   .     A
C784   C790    1.471   .     S
C785   C786    1.421   .     A
C785   C787    1.403   .     A
C786   C789    1.410   .     A
C786   C806    1.428   .     A
C787   C788    1.389   .     A
C787   H815    1.084   .     S
C788   C800    1.394   .     A
C788   H820    1.083   .     S
C789   C800    1.392   .     A
C789   H819    1.077   .     S
C790   C851    1.338   .     S
C790   O888    1.386   .     S
C792   C799    1.400   .     A
C792   H810    1.083   .     S
C792   C801    1.392   .     A
C793   C796    1.452   .     S
C793   C974    1.332   .     S
C793   H997    1.088   .     S
C794   C795    1.436   .     S
C795   O829    1.281   .     A
C795   O835    1.280   .     A
C796   O836    1.270   .     A
C796   O830    1.270   .     A
C797   C800    1.449   .     S
C797   O824    1.272   .     A
C797   O826    1.271   .     A
C798   O827    1.285   .     A
C798   O825    1.283   .     A
C798   C799    1.471   .     S
C799   C802    1.399   .     A
C801   C804    1.403   .     A
C801   H822    1.084   .     S
C802   H811    1.074   .     S
C802   C803    1.408   .     A
C803   C804    1.418   .     A
C803   C805    1.427   .     A
C804   C268    1.390   1_556 S
C805   C266    1.427   1_556 S
C806   C807    1.416   .     A
C807   H812    1.076   .     S
C807   C808    1.386   .     A
C808   H809    1.084   .     S
H814   O828    0.990   .     S
H816   C851    1.086   .     S
H818   C974    1.086   .     S
O823   Zn839   1.931   .     S
O823   Zn840   1.933   .     S
O823   Zn837   1.967   .     S
O823   Zn838   1.946   .     S
O824   Zn838   1.936   .     S
O825   Zn840   1.949   .     S
O826   Zn839   1.943   .     S
O827   Zn837   1.931   .     S
O829   Zn837   1.927   .     S
O830   Zn840   1.929   .     S
O831   Zn838   1.927   .     S
O832   Zn839   1.940   .     S
O833   Zn840   1.934   .     S
O834   Zn837   1.922   .     S
O835   Zn838   1.937   .     S
O836   Zn839   1.930   .     S
C841   C851    1.440   .     S
C841   O891    1.272   .     A
C841   O893    1.270   .     A
C842   C843    1.384   .     A
C842   C865    1.416   .     A
C842   H873    1.075   .     S
C843   H881    1.084   .     S
C843   C305    1.389   1_556 S
C844   O892    1.283   .     A
C844   O894    1.284   .     A
C844   C850    1.471   .     S
C845   C846    1.421   .     A
C845   C847    1.403   .     A
C846   C849    1.410   .     A
C846   C866    1.428   .     A
C847   C848    1.389   .     A
C847   H875    1.084   .     S
C848   C860    1.394   .     A
C848   H880    1.083   .     S
C849   C860    1.392   .     A
C849   H879    1.077   .     S
C850   C731    1.338   1_655 S
C850   O768    1.386   1_655 S
C852   C859    1.400   .     A
C852   H870    1.083   .     S
C852   C861    1.392   .     A
C853   C856    1.452   .     S
C853   C1034   1.332   .     S
C853   H1057   1.088   .     S
C854   C855    1.436   .     S
C855   O889    1.281   .     A
C855   O895    1.280   .     A
C856   O896    1.270   .     A
C856   O890    1.270   .     A
C857   C860    1.449   .     S
C857   O884    1.272   .     A
C857   O886    1.271   .     A
C858   O887    1.285   .     A
C858   O885    1.283   .     A
C858   C859    1.471   .     S
C859   C862    1.399   .     A
C861   C864    1.403   .     A
C861   H882    1.084   .     S
C862   H871    1.074   .     S
C862   C863    1.408   .     A
C863   C864    1.418   .     A
C863   C865    1.427   .     A
C864   C328    1.390   1_556 S
C865   C326    1.427   1_556 S
C866   C867    1.416   .     A
C867   H872    1.076   .     S
C867   C868    1.386   .     A
C868   H869    1.084   .     S
H874   O888    0.990   .     S
H876   C731    1.086   1_655 S
H878   C1034   1.086   .     S
O883   Zn899   1.931   .     S
O883   Zn900   1.933   .     S
O883   Zn897   1.967   .     S
O883   Zn898   1.946   .     S
O884   Zn898   1.936   .     S
O885   Zn900   1.949   .     S
O886   Zn899   1.943   .     S
O887   Zn897   1.931   .     S
O889   Zn897   1.927   .     S
O890   Zn900   1.929   .     S
O891   Zn898   1.927   .     S
O892   Zn899   1.940   .     S
O893   Zn900   1.934   .     S
O894   Zn897   1.922   .     S
O895   Zn898   1.937   .     S
O896   Zn899   1.930   .     S
C901   C911    1.440   .     S
C901   O951    1.272   .     A
C901   O953    1.270   .     A
C902   C903    1.384   .     A
C902   C925    1.416   .     A
C902   H933    1.075   .     S
C903   H941    1.084   .     S
C903   C365    1.389   1_556 S
C904   O952    1.283   .     A
C904   O954    1.284   .     A
C904   C910    1.471   .     S
C905   C906    1.421   .     A
C905   C907    1.403   .     A
C906   C909    1.410   .     A
C906   C926    1.428   .     A
C907   C908    1.389   .     A
C907   H935    1.084   .     S
C908   C920    1.394   .     A
C908   H940    1.083   .     S
C909   C920    1.392   .     A
C909   H939    1.077   .     S
C910   C971    1.338   .     S
C910   O1008   1.386   .     S
C911   C1030   1.338   1_455 S
C911   H1056   1.086   1_455 S
C912   C919    1.400   .     A
C912   H930    1.083   .     S
C912   C921    1.392   .     A
C913   C916    1.452   .     S
C913   C554    1.332   1_565 S
C913   H577    1.088   1_565 S
C914   C915    1.436   .     S
C915   O949    1.281   .     A
C915   O955    1.280   .     A
C916   O956    1.270   .     A
C916   O950    1.270   .     A
C917   C920    1.449   .     S
C917   O944    1.272   .     A
C917   O946    1.271   .     A
C918   O947    1.285   .     A
C918   O945    1.283   .     A
C918   C919    1.471   .     S
C919   C922    1.399   .     A
C921   C924    1.403   .     A
C921   H942    1.084   .     S
C922   H931    1.074   .     S
C922   C923    1.408   .     A
C923   C924    1.418   .     A
C923   C925    1.427   .     A
C924   C388    1.390   1_556 S
C925   C386    1.427   1_556 S
C926   C927    1.416   .     A
C927   H932    1.076   .     S
C927   C928    1.386   .     A
C928   H929    1.084   .     S
H934   O948    0.990   .     S
H936   C971    1.086   .     S
H938   C554    1.086   1_565 S
O943   Zn959   1.931   .     S
O943   Zn960   1.933   .     S
O943   Zn957   1.967   .     S
O943   Zn958   1.946   .     S
O944   Zn958   1.936   .     S
O945   Zn960   1.949   .     S
O946   Zn959   1.943   .     S
O947   Zn957   1.931   .     S
O948   C1030   1.386   1_455 S
O949   Zn957   1.927   .     S
O950   Zn960   1.929   .     S
O951   Zn958   1.927   .     S
O952   Zn959   1.940   .     S
O953   Zn960   1.934   .     S
O954   Zn957   1.922   .     S
O955   Zn958   1.937   .     S
O956   Zn959   1.930   .     S
C961   C971    1.440   .     S
C961   O1011   1.272   .     A
C961   O1013   1.270   .     A
C962   C963    1.384   .     A
C962   C985    1.416   .     A
C962   H993    1.075   .     S
C963   H1001   1.084   .     S
C963   C425    1.389   1_556 S
C964   O1012   1.283   .     A
C964   O1014   1.284   .     A
C964   C970    1.471   .     S
C965   C966    1.421   .     A
C965   C967    1.403   .     A
C966   C969    1.410   .     A
C966   C986    1.428   .     A
C967   C968    1.389   .     A
C967   H995    1.084   .     S
C968   C980    1.394   .     A
C968   H1000   1.083   .     S
C969   C980    1.392   .     A
C969   H999    1.077   .     S
C970   C1031   1.338   .     S
C970   O1068   1.386   .     S
C972   C979    1.400   .     A
C972   H990    1.083   .     S
C972   C981    1.392   .     A
C973   C976    1.452   .     S
C973   C614    1.332   1_565 S
C973   H637    1.088   1_565 S
C974   C975    1.436   .     S
C975   O1009   1.281   .     A
C975   O1015   1.280   .     A
C976   O1016   1.270   .     A
C976   O1010   1.270   .     A
C977   C980    1.449   .     S
C977   O1004   1.272   .     A
C977   O1006   1.271   .     A
C978   O1007   1.285   .     A
C978   O1005   1.283   .     A
C978   C979    1.471   .     S
C979   C982    1.399   .     A
C981   C984    1.403   .     A
C981   H1002   1.084   .     S
C982   H991    1.074   .     S
C982   C983    1.408   .     A
C983   C984    1.418   .     A
C983   C985    1.427   .     A
C984   C448    1.390   1_556 S
C985   C446    1.427   1_556 S
C986   C987    1.416   .     A
C987   H992    1.076   .     S
C987   C988    1.386   .     A
C988   H989    1.084   .     S
H994   O1008   0.990   .     S
H996   C1031   1.086   .     S
H998   C614    1.086   1_565 S
O1003  Zn1019  1.931   .     S
O1003  Zn1020  1.933   .     S
O1003  Zn1017  1.967   .     S
O1003  Zn1018  1.946   .     S
O1004  Zn1018  1.936   .     S
O1005  Zn1020  1.949   .     S
O1006  Zn1019  1.943   .     S
O1007  Zn1017  1.931   .     S
O1009  Zn1017  1.927   .     S
O1010  Zn1020  1.929   .     S
O1011  Zn1018  1.927   .     S
O1012  Zn1019  1.940   .     S
O1013  Zn1020  1.934   .     S
O1014  Zn1017  1.922   .     S
O1015  Zn1018  1.937   .     S
O1016  Zn1019  1.930   .     S
C1021  C1031   1.440   .     S
C1021  O1071   1.272   .     A
C1021  O1073   1.270   .     A
C1022  C1023   1.384   .     A
C1022  C1045   1.416   .     A
C1022  H1053   1.075   .     S
C1023  H1061   1.084   .     S
C1023  C485    1.389   1_556 S
C1024  O1072   1.283   .     A
C1024  O1074   1.284   .     A
C1024  C1030   1.471   .     S
C1025  C1026   1.421   .     A
C1025  C1027   1.403   .     A
C1026  C1029   1.410   .     A
C1026  C1046   1.428   .     A
C1027  C1028   1.389   .     A
C1027  H1055   1.084   .     S
C1028  C1040   1.394   .     A
C1028  H1060   1.083   .     S
C1029  C1040   1.392   .     A
C1029  H1059   1.077   .     S
C1030  C911    1.338   1_655 S
C1030  O948    1.386   1_655 S
C1032  C1039   1.400   .     A
C1032  H1050   1.083   .     S
C1032  C1041   1.392   .     A
C1033  C1036   1.452   .     S
C1033  C674    1.332   1_565 S
C1033  H697    1.088   1_565 S
C1034  C1035   1.436   .     S
C1035  O1069   1.281   .     A
C1035  O1075   1.280   .     A
C1036  O1076   1.270   .     A
C1036  O1070   1.270   .     A
C1037  C1040   1.449   .     S
C1037  O1064   1.272   .     A
C1037  O1066   1.271   .     A
C1038  O1067   1.285   .     A
C1038  O1065   1.283   .     A
C1038  C1039   1.471   .     S
C1039  C1042   1.399   .     A
C1041  C1044   1.403   .     A
C1041  H1062   1.084   .     S
C1042  H1051   1.074   .     S
C1042  C1043   1.408   .     A
C1043  C1044   1.418   .     A
C1043  C1045   1.427   .     A
C1044  C508    1.390   1_556 S
C1045  C506    1.427   1_556 S
C1046  C1047   1.416   .     A
C1047  H1052   1.076   .     S
C1047  C1048   1.386   .     A
C1048  H1049   1.084   .     S
H1054  O1068   0.990   .     S
H1056  C911    1.086   1_655 S
H1058  C674    1.086   1_565 S
O1063  Zn1079  1.931   .     S
O1063  Zn1080  1.933   .     S
O1063  Zn1077  1.967   .     S
O1063  Zn1078  1.946   .     S
O1064  Zn1078  1.936   .     S
O1065  Zn1080  1.949   .     S
O1066  Zn1079  1.943   .     S
O1067  Zn1077  1.931   .     S
O1069  Zn1077  1.927   .     S
O1070  Zn1080  1.929   .     S
O1071  Zn1078  1.927   .     S
O1072  Zn1079  1.940   .     S
O1073  Zn1080  1.934   .     S
O1074  Zn1077  1.922   .     S
O1075  Zn1078  1.937   .     S
O1076  Zn1079  1.930   .     S
