data_str_m1_o1_o17_pcu_sym.90
_audit_creation_date              2020-01-03
_audit_creation_method            'Materials Studio'
_symmetry_space_group_name_H-M    'P1'
_symmetry_Int_Tables_number       1
_symmetry_cell_setting            triclinic
loop_
_symmetry_equiv_pos_as_xyz
  x,y,z
_cell_length_a                    36.6703
_cell_length_b                    36.6705
_cell_length_c                    34.3706
_cell_angle_alpha                 90.0005
_cell_angle_beta                  90.0004
_cell_angle_gamma                 90.0222
loop_
_atom_site_label
_atom_site_type_symbol
_atom_site_fract_x
_atom_site_fract_y
_atom_site_fract_z
_atom_site_U_iso_or_equiv
_atom_site_adp_type
_atom_site_occupancy
C1     C     0.02057   0.27649   0.41857   0.00000  Uiso   1.00
C2     C     0.22791   0.47473   0.08128   0.00000  Uiso   1.00
C3     C     0.22859   0.47429   0.54105   0.00000  Uiso   1.00
C4     C     0.02579   0.27132   0.45895   0.00000  Uiso   1.00
C5     C     0.47356   0.22958   0.54074   0.00000  Uiso   1.00
C6     C     0.22949   0.47362   0.45925   0.00000  Uiso   1.00
C7     C     0.27139   0.02573   0.54105   0.00000  Uiso   1.00
C8     C     0.22428   0.47860   0.95895   0.00000  Uiso   1.00
C9     C     0.27641   0.02048   0.04075   0.00000  Uiso   1.00
C10    C     0.02051   0.27638   0.95925   0.00000  Uiso   1.00
C11    C     0.47859   0.22428   0.04105   0.00000  Uiso   1.00
C12    C     0.27574   0.02138   0.95895   0.00000  Uiso   1.00
C13    C     0.47471   0.22792   0.91872   0.00000  Uiso   1.00
C14    C     0.22362   0.47951   0.04075   0.00000  Uiso   1.00
C15    C     0.47950   0.22362   0.95925   0.00000  Uiso   1.00
C16    C     0.02141   0.27571   0.04105   0.00000  Uiso   1.00
C17    C     0.09813   0.34813   0.25000   0.00000  Uiso   1.00
C18    C     0.40187   0.15187   0.75000   0.00000  Uiso   1.00
C19    C     0.15186   0.09814   0.25000   0.00000  Uiso   1.00
C20    C     0.34814   0.40187   0.75000   0.00000  Uiso   1.00
C21    C     0.40187   0.15187   0.25000   0.00000  Uiso   1.00
C22    C     0.09813   0.34813   0.75000   0.00000  Uiso   1.00
C23    C     0.34814   0.40186   0.25000   0.00000  Uiso   1.00
C24    C     0.02656   0.27047   0.08143   0.00000  Uiso   1.00
C25    C     0.15187   0.09814   0.75000   0.00000  Uiso   1.00
C26    C     0.09814   0.15186   0.75000   0.00000  Uiso   1.00
C27    C     0.40187   0.34813   0.25000   0.00000  Uiso   1.00
C28    C     0.15187   0.40187   0.75000   0.00000  Uiso   1.00
C29    C     0.34813   0.09813   0.25000   0.00000  Uiso   1.00
C30    C     0.40186   0.34814   0.75000   0.00000  Uiso   1.00
C31    C     0.09814   0.15187   0.25000   0.00000  Uiso   1.00
C32    C     0.34813   0.09813   0.75000   0.00000  Uiso   1.00
C33    C     0.15187   0.40187   0.25000   0.00000  Uiso   1.00
C34    C     0.00000   0.25000   0.47941   0.00000  Uiso   1.00
C35    C     0.22951   0.47345   0.91857   0.00000  Uiso   1.00
C36    C     0.00000   0.25000   0.52030   0.00000  Uiso   1.00
C37    C     0.24999   0.00001   0.47970   0.00000  Uiso   1.00
C38    C     0.24999   0.00001   0.52059   0.00000  Uiso   1.00
C39    C     0.25001   0.49999   0.97941   0.00000  Uiso   1.00
C40    C     0.25001   0.49999   0.02031   0.00000  Uiso   1.00
C41    C     0.00000   0.25000   0.97969   0.00000  Uiso   1.00
C42    C     0.00000   0.25000   0.02059   0.00000  Uiso   1.00
C43    C     0.03326   0.31141   0.39817   0.00000  Uiso   1.00
C44    C     0.00129   0.33359   0.38197   0.00000  Uiso   1.00
C45    C     0.46224   0.19106   0.60173   0.00000  Uiso   1.00
C46    C     0.27210   0.02527   0.08127   0.00000  Uiso   1.00
C47    C     0.49223   0.16649   0.61827   0.00000  Uiso   1.00
C48    C     0.19096   0.46241   0.39825   0.00000  Uiso   1.00
C49    C     0.16645   0.49248   0.38176   0.00000  Uiso   1.00
C50    C     0.31151   0.03307   0.60184   0.00000  Uiso   1.00
C51    C     0.33360   0.00101   0.61797   0.00000  Uiso   1.00
C52    C     0.46673   0.18859   0.39816   0.00000  Uiso   1.00
C53    C     0.49870   0.16643   0.38192   0.00000  Uiso   1.00
C54    C     0.03776   0.30893   0.60173   0.00000  Uiso   1.00
C55    C     0.00777   0.33350   0.61827   0.00000  Uiso   1.00
C56    C     0.30903   0.03759   0.39826   0.00000  Uiso   1.00
C57    C     0.02529   0.27208   0.91873   0.00000  Uiso   1.00
C58    C     0.33354   0.00752   0.38179   0.00000  Uiso   1.00
C59    C     0.18849   0.46692   0.60185   0.00000  Uiso   1.00
C60    C     0.16643   0.49896   0.61809   0.00000  Uiso   1.00
C61    C     0.28311   0.06149   0.89816   0.00000  Uiso   1.00
C62    C     0.25107   0.08361   0.88203   0.00000  Uiso   1.00
C63    C     0.21236   0.44099   0.10175   0.00000  Uiso   1.00
C64    C     0.24238   0.41655   0.11846   0.00000  Uiso   1.00
C65    C     0.44095   0.21243   0.89825   0.00000  Uiso   1.00
C66    C     0.41647   0.24251   0.88173   0.00000  Uiso   1.00
C67    C     0.06152   0.28306   0.10185   0.00000  Uiso   1.00
C68    C     0.47344   0.22952   0.08143   0.00000  Uiso   1.00
C69    C     0.08358   0.25102   0.11806   0.00000  Uiso   1.00
C70    C     0.21690   0.43850   0.89815   0.00000  Uiso   1.00
C71    C     0.24895   0.41640   0.88201   0.00000  Uiso   1.00
C72    C     0.28763   0.05902   0.10174   0.00000  Uiso   1.00
C73    C     0.25757   0.08355   0.11821   0.00000  Uiso   1.00
C74    C     0.05905   0.28758   0.89825   0.00000  Uiso   1.00
C75    C     0.08354   0.25751   0.88174   0.00000  Uiso   1.00
C76    C     0.43848   0.21694   0.10184   0.00000  Uiso   1.00
C77    C     0.41638   0.24901   0.11794   0.00000  Uiso   1.00
C78    C     0.00000   0.25000   0.39822   0.00000  Uiso   1.00
C79    C     0.00000   0.25000   0.60166   0.00000  Uiso   1.00
C80    C     0.25000   0.00000   0.39834   0.00000  Uiso   1.00
C81    C     0.47784   0.22478   0.58127   0.00000  Uiso   1.00
C82    C     0.25000   0.00000   0.60178   0.00000  Uiso   1.00
C83    C     0.25000  -0.00000   0.89822   0.00000  Uiso   1.00
C84    C     0.25000   0.00000   0.10166   0.00000  Uiso   1.00
C85    C     0.00000   0.25000   0.89834   0.00000  Uiso   1.00
C86    C     0.00000   0.25000   0.10178   0.00000  Uiso   1.00
C87    C     0.44398   0.21408   0.47923   0.00000  Uiso   1.00
C88    C     0.05705   0.28385   0.52037   0.00000  Uiso   1.00
C89    C     0.28401   0.05695   0.47964   0.00000  Uiso   1.00
C90    C     0.21390   0.44410   0.52076   0.00000  Uiso   1.00
C91    C     0.05603   0.28591   0.47924   0.00000  Uiso   1.00
C92    C     0.22471   0.47792   0.41873   0.00000  Uiso   1.00
C93    C     0.44295   0.21615   0.52036   0.00000  Uiso   1.00
C94    C     0.21597   0.44306   0.47964   0.00000  Uiso   1.00
C95    C     0.28608   0.05592   0.52077   0.00000  Uiso   1.00
C96    C     0.19408   0.46393   0.97924   0.00000  Uiso   1.00
C97    C     0.30698   0.03398   0.02037   0.00000  Uiso   1.00
C98    C     0.03404   0.30694   0.97964   0.00000  Uiso   1.00
C99    C     0.46390   0.19409   0.02076   0.00000  Uiso   1.00
C100   C     0.30594   0.03605   0.97924   0.00000  Uiso   1.00
C101   C     0.19305   0.46599   0.02037   0.00000  Uiso   1.00
C102   C     0.46596   0.19306   0.97963   0.00000  Uiso   1.00
C103   C     0.27655   0.02049   0.58143   0.00000  Uiso   1.00
C104   C     0.03611   0.30590   0.02077   0.00000  Uiso   1.00
C105   C     0.25000   0.00000   0.35585   0.00000  Uiso   1.00
C106   C     0.25000   0.00000   0.64419   0.00000  Uiso   1.00
C107   C     0.00000   0.25000   0.35581   0.00000  Uiso   1.00
C108   C     0.00000   0.25000   0.64415   0.00000  Uiso   1.00
C109   C     0.00000   0.25000   0.85585   0.00000  Uiso   1.00
C110   C    -0.00000   0.25000   0.14419   0.00000  Uiso   1.00
C111   C     0.25000   0.00000   0.85581   0.00000  Uiso   1.00
C112   C     0.25000   0.00001   0.14415   0.00000  Uiso   1.00
C113   C     0.17993   0.07007   0.25000   0.00000  Uiso   1.00
C114   C     0.47944   0.22351   0.41857   0.00000  Uiso   1.00
C115   C     0.32007   0.42993   0.75000   0.00000  Uiso   1.00
C116   C     0.42993   0.17993   0.25000   0.00000  Uiso   1.00
C117   C     0.07007   0.32007   0.75000   0.00000  Uiso   1.00
C118   C     0.32007   0.42993   0.25000   0.00000  Uiso   1.00
C119   C     0.17993   0.07007   0.75000   0.00000  Uiso   1.00
C120   C     0.07007   0.32007   0.25000   0.00000  Uiso   1.00
C121   C     0.42993   0.17993   0.75000   0.00000  Uiso   1.00
C122   C     0.17993   0.42993   0.75000   0.00000  Uiso   1.00
C123   C     0.32007   0.07007   0.25000   0.00000  Uiso   1.00
C124   C     0.42993   0.32007   0.75000   0.00000  Uiso   1.00
C125   C     0.02216   0.27522   0.58127   0.00000  Uiso   1.00
C126   C     0.07007   0.17993   0.25000   0.00000  Uiso   1.00
C127   C     0.32007   0.07007   0.75000   0.00000  Uiso   1.00
C128   C     0.17993   0.42993   0.25000   0.00000  Uiso   1.00
C129   C     0.07007   0.17993   0.75000   0.00000  Uiso   1.00
C130   C     0.42993   0.32007   0.25000   0.00000  Uiso   1.00
C131   C     0.12285   0.40389   0.22355   0.00000  Uiso   1.00
C132   C     0.37715   0.09612   0.77646   0.00000  Uiso   1.00
C133   C     0.09535   0.12207   0.22462   0.00000  Uiso   1.00
C134   C     0.40465   0.37793   0.77538   0.00000  Uiso   1.00
C135   C     0.37715   0.09612   0.22354   0.00000  Uiso   1.00
C136   C     0.27528   0.02209   0.41873   0.00000  Uiso   1.00
C137   C     0.12282   0.40391   0.77642   0.00000  Uiso   1.00
C138   C     0.40465   0.37793   0.22462   0.00000  Uiso   1.00
C139   C     0.09535   0.12207   0.77538   0.00000  Uiso   1.00
C140   C     0.12207   0.09535   0.77538   0.00000  Uiso   1.00
C141   C     0.37793   0.40465   0.22462   0.00000  Uiso   1.00
C142   C     0.09609   0.37718   0.77642   0.00000  Uiso   1.00
C143   C     0.40388   0.12285   0.22354   0.00000  Uiso   1.00
C144   C     0.37793   0.40465   0.77538   0.00000  Uiso   1.00
C145   C     0.12207   0.09535   0.22462   0.00000  Uiso   1.00
C146   C     0.40388   0.12285   0.77646   0.00000  Uiso   1.00
C147   C     0.22344   0.47952   0.58143   0.00000  Uiso   1.00
C148   C     0.09611   0.37716   0.22355   0.00000  Uiso   1.00
C149   C     0.37285   0.15388   0.72354   0.00000  Uiso   1.00
C150   C     0.12716   0.34611   0.27645   0.00000  Uiso   1.00
C151   C     0.34535   0.37207   0.72462   0.00000  Uiso   1.00
C152   C     0.15465   0.12793   0.27538   0.00000  Uiso   1.00
C153   C     0.12718   0.34609   0.72358   0.00000  Uiso   1.00
C154   C     0.37285   0.15388   0.27646   0.00000  Uiso   1.00
C155   C     0.15466   0.12793   0.72462   0.00000  Uiso   1.00
C156   C     0.34535   0.37207   0.27538   0.00000  Uiso   1.00
C157   C     0.37207   0.34535   0.27538   0.00000  Uiso   1.00
C158   C     0.27050   0.02654   0.91857   0.00000  Uiso   1.00
C159   C     0.12793   0.15465   0.72462   0.00000  Uiso   1.00
C160   C     0.34612   0.12715   0.27646   0.00000  Uiso   1.00
C161   C     0.15391   0.37282   0.72358   0.00000  Uiso   1.00
C162   C     0.12793   0.15466   0.27538   0.00000  Uiso   1.00
C163   C     0.37207   0.34535   0.72462   0.00000  Uiso   1.00
C164   C     0.15389   0.37285   0.27645   0.00000  Uiso   1.00
C165   C     0.34612   0.12715   0.72354   0.00000  Uiso   1.00
C166   C     0.47422   0.22867   0.45895   0.00000  Uiso   1.00
C167   C     0.02645   0.27042   0.54074   0.00000  Uiso   1.00
C168   C     0.27049   0.02639   0.45926   0.00000  Uiso   1.00
H169   H     0.12080   0.42604   0.20281   0.00000  Uiso   1.00
H170   H     0.38062   0.42743   0.20476   0.00000  Uiso   1.00
H171   H     0.42920   0.25632   0.85650   0.00000  Uiso   1.00
H172   H     0.39039   0.23038   0.87160   0.00000  Uiso   1.00
H173   H     0.44887   0.19303   0.87498   0.00000  Uiso   1.00
H174   H     0.42311   0.19727   0.91856   0.00000  Uiso   1.00
H175   H     0.07016   0.23848   0.14364   0.00000  Uiso   1.00
H176   H     0.08758   0.22995   0.09524   0.00000  Uiso   1.00
H177   H     0.11079   0.26086   0.12764   0.00000  Uiso   1.00
H178   H     0.08053   0.29672   0.08158   0.00000  Uiso   1.00
H179   H     0.05516   0.30280   0.12536   0.00000  Uiso   1.00
H180   H     0.26166   0.42986   0.85656   0.00000  Uiso   1.00
H181   H     0.07392   0.37925   0.79713   0.00000  Uiso   1.00
H182   H     0.26990   0.41224   0.90494   0.00000  Uiso   1.00
H183   H     0.23906   0.38925   0.87228   0.00000  Uiso   1.00
H184   H     0.20319   0.41952   0.91840   0.00000  Uiso   1.00
H185   H     0.19722   0.44487   0.87460   0.00000  Uiso   1.00
H186   H     0.23714   0.08985   0.09531   0.00000  Uiso   1.00
H187   H     0.24363   0.07080   0.14335   0.00000  Uiso   1.00
H188   H     0.26974   0.10957   0.12846   0.00000  Uiso   1.00
H189   H     0.30699   0.05109   0.12504   0.00000  Uiso   1.00
H190   H     0.30283   0.07683   0.08145   0.00000  Uiso   1.00
H191   H     0.08976   0.23702   0.90461   0.00000  Uiso   1.00
H192   H     0.42602   0.12081   0.20280   0.00000  Uiso   1.00
H193   H     0.07080   0.24366   0.85654   0.00000  Uiso   1.00
H194   H     0.10961   0.26965   0.87157   0.00000  Uiso   1.00
H195   H     0.05112   0.30697   0.87497   0.00000  Uiso   1.00
H196   H     0.07688   0.30275   0.91855   0.00000  Uiso   1.00
H197   H     0.42987   0.26176   0.14336   0.00000  Uiso   1.00
H198   H     0.41221   0.26992   0.09498   0.00000  Uiso   1.00
H199   H     0.38925   0.23914   0.12772   0.00000  Uiso   1.00
H200   H     0.41950   0.20322   0.08161   0.00000  Uiso   1.00
H201   H     0.44484   0.19728   0.12542   0.00000  Uiso   1.00
H202   H     0.38062   0.42743   0.79524   0.00000  Uiso   1.00
H203   H     0.11938   0.07257   0.20476   0.00000  Uiso   1.00
H204   H     0.42603   0.12081   0.79720   0.00000  Uiso   1.00
H205   H     0.07396   0.37921   0.20282   0.00000  Uiso   1.00
H206   H     0.37081   0.17602   0.70280   0.00000  Uiso   1.00
H207   H     0.12921   0.32396   0.29718   0.00000  Uiso   1.00
H208   H     0.32257   0.36938   0.70476   0.00000  Uiso   1.00
H209   H     0.37920   0.07397   0.79720   0.00000  Uiso   1.00
H210   H     0.17743   0.13062   0.29524   0.00000  Uiso   1.00
H211   H     0.12925   0.32392   0.70287   0.00000  Uiso   1.00
H212   H     0.37081   0.17602   0.29720   0.00000  Uiso   1.00
H213   H     0.17743   0.13062   0.70476   0.00000  Uiso   1.00
H214   H     0.32257   0.36938   0.29524   0.00000  Uiso   1.00
H215   H     0.36938   0.32257   0.29524   0.00000  Uiso   1.00
H216   H     0.13062   0.17743   0.70476   0.00000  Uiso   1.00
H217   H     0.32398   0.12919   0.29721   0.00000  Uiso   1.00
H218   H     0.17608   0.37075   0.70287   0.00000  Uiso   1.00
H219   H     0.13062   0.17743   0.29524   0.00000  Uiso   1.00
H220   H     0.07257   0.11938   0.20476   0.00000  Uiso   1.00
H221   H     0.36938   0.32257   0.70476   0.00000  Uiso   1.00
H222   H     0.17604   0.37080   0.29719   0.00000  Uiso   1.00
H223   H     0.32397   0.12919   0.70280   0.00000  Uiso   1.00
H224   H     0.40263   0.18158   0.47367   0.00000  Uiso   1.00
H225   H     0.11009   0.28600   0.52401   0.00000  Uiso   1.00
H226   H     0.28632   0.10999   0.47601   0.00000  Uiso   1.00
H227   H     0.18126   0.40286   0.52633   0.00000  Uiso   1.00
H228   H     0.09738   0.31841   0.47368   0.00000  Uiso   1.00
H229   H     0.38991   0.21400   0.52400   0.00000  Uiso   1.00
H230   H     0.21365   0.39003   0.47601   0.00000  Uiso   1.00
H231   H     0.42743   0.38062   0.79524   0.00000  Uiso   1.00
H232   H     0.31871   0.09716   0.52633   0.00000  Uiso   1.00
H233   H     0.15283   0.43131   0.97367   0.00000  Uiso   1.00
H234   H     0.36001   0.03627   0.02400   0.00000  Uiso   1.00
H235   H     0.03637   0.35997   0.97601   0.00000  Uiso   1.00
H236   H     0.43126   0.15286   0.02633   0.00000  Uiso   1.00
H237   H     0.34720   0.06865   0.97367   0.00000  Uiso   1.00
H238   H     0.14002   0.46368   0.02401   0.00000  Uiso   1.00
H239   H     0.46362   0.14003   0.97599   0.00000  Uiso   1.00
H240   H     0.06875   0.34713   0.02633   0.00000  Uiso   1.00
H241   H     0.48863   0.32017   0.35647   0.00000  Uiso   1.00
H242   H     0.37919   0.07398   0.20279   0.00000  Uiso   1.00
H243   H     0.48029   0.33774   0.40485   0.00000  Uiso   1.00
H244   H     0.01123   0.36073   0.37230   0.00000  Uiso   1.00
H245   H     0.04699   0.33037   0.41843   0.00000  Uiso   1.00
H246   H     0.05297   0.30500   0.37464   0.00000  Uiso   1.00
H247   H     0.01272   0.16021   0.59542   0.00000  Uiso   1.00
H248   H     0.00610   0.17919   0.64348   0.00000  Uiso   1.00
H249   H     0.48002   0.14046   0.62843   0.00000  Uiso   1.00
H250   H     0.44285   0.19904   0.62499   0.00000  Uiso   1.00
H251   H     0.44704   0.17327   0.58142   0.00000  Uiso   1.00
H252   H     0.16015   0.01291   0.40467   0.00000  Uiso   1.00
H253   H     0.12075   0.42608   0.79712   0.00000  Uiso   1.00
H254   H     0.17922   0.00642   0.35663   0.00000  Uiso   1.00
H255   H     0.14043   0.48032   0.37150   0.00000  Uiso   1.00
H256   H     0.19889   0.44304   0.37496   0.00000  Uiso   1.00
H257   H     0.17313   0.44722   0.41854   0.00000  Uiso   1.00
H258   H     0.32014   0.48833   0.64344   0.00000  Uiso   1.00
H259   H     0.33771   0.48005   0.59505   0.00000  Uiso   1.00
H260   H     0.36076   0.01087   0.62768   0.00000  Uiso   1.00
H261   H     0.33050   0.04678   0.58160   0.00000  Uiso   1.00
H262   H     0.30515   0.05276   0.62540   0.00000  Uiso   1.00
H263   H     0.01128   0.17982   0.35636   0.00000  Uiso   1.00
H264   H     0.42743   0.38062   0.20476   0.00000  Uiso   1.00
H265   H     0.01976   0.16233   0.40475   0.00000  Uiso   1.00
H266   H     0.48877   0.13926   0.37233   0.00000  Uiso   1.00
H267   H     0.45304   0.16962   0.41844   0.00000  Uiso   1.00
H268   H     0.44700   0.19500   0.37466   0.00000  Uiso   1.00
H269   H     0.48727   0.33977   0.59544   0.00000  Uiso   1.00
H270   H     0.49392   0.32081   0.64350   0.00000  Uiso   1.00
H271   H     0.01999   0.35954   0.62842   0.00000  Uiso   1.00
H272   H     0.05716   0.30096   0.62499   0.00000  Uiso   1.00
H273   H     0.05296   0.32673   0.58141   0.00000  Uiso   1.00
H274   H     0.33984   0.48710   0.40470   0.00000  Uiso   1.00
H275   H     0.07257   0.11938   0.79524   0.00000  Uiso   1.00
H276   H     0.32078   0.49358   0.35666   0.00000  Uiso   1.00
H277   H     0.35957   0.01968   0.37153   0.00000  Uiso   1.00
H278   H     0.30111   0.05696   0.37496   0.00000  Uiso   1.00
H279   H     0.32685   0.05279   0.41855   0.00000  Uiso   1.00
H280   H     0.17983   0.01145   0.64369   0.00000  Uiso   1.00
H281   H     0.16246   0.02006   0.59528   0.00000  Uiso   1.00
H282   H     0.13921   0.48912   0.62763   0.00000  Uiso   1.00
H283   H     0.16948   0.45328   0.58158   0.00000  Uiso   1.00
H284   H     0.19485   0.44718   0.62535   0.00000  Uiso   1.00
H285   H     0.23833   0.07013   0.85661   0.00000  Uiso   1.00
H286   H     0.11938   0.07257   0.79524   0.00000  Uiso   1.00
H287   H     0.23014   0.08779   0.90498   0.00000  Uiso   1.00
H288   H     0.26097   0.11074   0.87227   0.00000  Uiso   1.00
H289   H     0.29684   0.08047   0.91840   0.00000  Uiso   1.00
H290   H     0.30279   0.05512   0.87460   0.00000  Uiso   1.00
H291   H     0.26321   0.41064   0.09585   0.00000  Uiso   1.00
H292   H     0.25580   0.42917   0.14400   0.00000  Uiso   1.00
H293   H     0.23029   0.39032   0.12822   0.00000  Uiso   1.00
H294   H     0.19287   0.44894   0.12492   0.00000  Uiso   1.00
H295   H     0.19730   0.42311   0.08139   0.00000  Uiso   1.00
H296   H     0.41029   0.26303   0.90458   0.00000  Uiso   1.00
O297   O     0.25000   0.00000   0.25000   0.00000  Uiso   1.00
O298   O     0.25000   0.46964   0.66245   0.00000  Uiso   1.00
O299   O     0.46964   0.25000   0.33755   0.00000  Uiso   1.00
O300   O     0.03037   0.25000   0.66245   0.00000  Uiso   1.00
O301   O     0.00000   0.21964   0.83755   0.00000  Uiso   1.00
O302   O     0.00000   0.28037   0.16245   0.00000  Uiso   1.00
O303   O     0.28037   0.00000   0.83755   0.00000  Uiso   1.00
O304   O     0.21964   0.00000   0.16245   0.00000  Uiso   1.00
O305   O     0.00000   0.28037   0.83755   0.00000  Uiso   1.00
O306   O     0.00000   0.21964   0.16245   0.00000  Uiso   1.00
O307   O     0.21964   0.00000   0.83755   0.00000  Uiso   1.00
O308   O     0.25000   0.00000   0.75000   0.00000  Uiso   1.00
O309   O     0.28037   0.00000   0.16245   0.00000  Uiso   1.00
O310   O     0.20725   0.07308   0.27302   0.00000  Uiso   1.00
O311   O     0.29276   0.42693   0.72698   0.00000  Uiso   1.00
O312   O     0.42693   0.20725   0.27302   0.00000  Uiso   1.00
O313   O     0.07308   0.29276   0.72698   0.00000  Uiso   1.00
O314   O     0.29276   0.42693   0.27302   0.00000  Uiso   1.00
O315   O     0.20725   0.07308   0.72698   0.00000  Uiso   1.00
O316   O     0.07308   0.29276   0.27302   0.00000  Uiso   1.00
O317   O     0.42693   0.20725   0.72698   0.00000  Uiso   1.00
O318   O     0.20725   0.42693   0.72698   0.00000  Uiso   1.00
O319   O     0.00000   0.25000   0.25000   0.00000  Uiso   1.00
O320   O     0.29276   0.07308   0.27302   0.00000  Uiso   1.00
O321   O     0.42693   0.29276   0.72698   0.00000  Uiso   1.00
O322   O     0.07308   0.20725   0.27302   0.00000  Uiso   1.00
O323   O     0.29276   0.07308   0.72698   0.00000  Uiso   1.00
O324   O     0.20725   0.42693   0.27302   0.00000  Uiso   1.00
O325   O     0.07308   0.20725   0.72698   0.00000  Uiso   1.00
O326   O     0.42693   0.29276   0.27302   0.00000  Uiso   1.00
O327   O     0.45725   0.32308   0.77302   0.00000  Uiso   1.00
O328   O     0.04276   0.17693   0.22698   0.00000  Uiso   1.00
O329   O     0.17693   0.45725   0.77302   0.00000  Uiso   1.00
O330   O     0.00000   0.25000   0.75000   0.00000  Uiso   1.00
O331   O     0.32308   0.04276   0.22698   0.00000  Uiso   1.00
O332   O     0.04276   0.17693   0.77302   0.00000  Uiso   1.00
O333   O     0.45725   0.32308   0.22698   0.00000  Uiso   1.00
O334   O     0.32308   0.04276   0.77302   0.00000  Uiso   1.00
O335   O     0.17693   0.45725   0.22698   0.00000  Uiso   1.00
O336   O     0.45725   0.17693   0.22698   0.00000  Uiso   1.00
O337   O     0.04276   0.32308   0.77302   0.00000  Uiso   1.00
O338   O     0.17693   0.04276   0.22698   0.00000  Uiso   1.00
O339   O     0.32308   0.45725   0.77302   0.00000  Uiso   1.00
O340   O     0.04276   0.32308   0.22698   0.00000  Uiso   1.00
O341   O     0.25000   0.46964   0.33755   0.00000  Uiso   1.00
O342   O     0.45725   0.17693   0.77302   0.00000  Uiso   1.00
O343   O     0.32308   0.45725   0.22698   0.00000  Uiso   1.00
O344   O     0.17693   0.04276   0.77302   0.00000  Uiso   1.00
O345   O     0.41433   0.20137   0.45850   0.00000  Uiso   1.00
O346   O     0.08875   0.29072   0.54092   0.00000  Uiso   1.00
O347   O     0.29097   0.08864   0.45909   0.00000  Uiso   1.00
O348   O     0.20109   0.41449   0.54150   0.00000  Uiso   1.00
O349   O     0.08567   0.29862   0.45850   0.00000  Uiso   1.00
O350   O     0.41125   0.20927   0.54091   0.00000  Uiso   1.00
O351   O     0.20901   0.41137   0.45909   0.00000  Uiso   1.00
O352   O     0.25000   0.03037   0.66245   0.00000  Uiso   1.00
O353   O     0.29888   0.08553   0.54150   0.00000  Uiso   1.00
O354   O     0.16446   0.45114   0.95850   0.00000  Uiso   1.00
O355   O     0.33867   0.04093   0.04091   0.00000  Uiso   1.00
O356   O     0.04101   0.33862   0.95909   0.00000  Uiso   1.00
O357   O     0.45110   0.16448   0.04149   0.00000  Uiso   1.00
O358   O     0.33556   0.04883   0.95850   0.00000  Uiso   1.00
O359   O     0.16137   0.45902   0.04092   0.00000  Uiso   1.00
O360   O     0.45898   0.16138   0.95908   0.00000  Uiso   1.00
O361   O     0.04892   0.33550   0.04150   0.00000  Uiso   1.00
O362   O     0.03037   0.25000   0.33755   0.00000  Uiso   1.00
O363   O     0.46964   0.25000   0.66245   0.00000  Uiso   1.00
O364   O     0.25000   0.03037   0.33755   0.00000  Uiso   1.00
Zn365  Zn    0.20660   0.00000   0.21735   0.00000  Uiso   1.00
Zn366  Zn    0.04341   0.25000   0.28265   0.00000  Uiso   1.00
Zn367  Zn    0.25000   0.45660   0.71735   0.00000  Uiso   1.00
Zn368  Zn    0.25000   0.04341   0.28265   0.00000  Uiso   1.00
Zn369  Zn    0.04341   0.25000   0.71735   0.00000  Uiso   1.00
Zn370  Zn    0.45660   0.25000   0.28265   0.00000  Uiso   1.00
Zn371  Zn    0.25000   0.04341   0.71735   0.00000  Uiso   1.00
Zn372  Zn    0.25000   0.45660   0.28265   0.00000  Uiso   1.00
Zn373  Zn    0.29341   0.00000   0.78265   0.00000  Uiso   1.00
Zn374  Zn    0.00000   0.20660   0.21735   0.00000  Uiso   1.00
Zn375  Zn    0.00000   0.29341   0.78265   0.00000  Uiso   1.00
Zn376  Zn    0.29341   0.00000   0.21735   0.00000  Uiso   1.00
Zn377  Zn    0.20660   0.00000   0.78265   0.00000  Uiso   1.00
Zn378  Zn    0.00000   0.29341   0.21735   0.00000  Uiso   1.00
Zn379  Zn    0.00000   0.20660   0.78265   0.00000  Uiso   1.00
Zn380  Zn    0.45660   0.25000   0.71735   0.00000  Uiso   1.00
C381   C     0.52057   0.27649   0.41857   0.00000  Uiso   1.00
C382   C     0.72791   0.47473   0.08128   0.00000  Uiso   1.00
C383   C     0.72859   0.47429   0.54105   0.00000  Uiso   1.00
C384   C     0.52579   0.27132   0.45895   0.00000  Uiso   1.00
C385   C     0.97356   0.22958   0.54074   0.00000  Uiso   1.00
C386   C     0.72949   0.47362   0.45925   0.00000  Uiso   1.00
C387   C     0.77139   0.02573   0.54105   0.00000  Uiso   1.00
C388   C     0.72428   0.47860   0.95895   0.00000  Uiso   1.00
C389   C     0.77641   0.02048   0.04075   0.00000  Uiso   1.00
C390   C     0.52051   0.27638   0.95925   0.00000  Uiso   1.00
C391   C     0.97859   0.22428   0.04105   0.00000  Uiso   1.00
C392   C     0.77574   0.02138   0.95895   0.00000  Uiso   1.00
C393   C     0.97471   0.22792   0.91872   0.00000  Uiso   1.00
C394   C     0.72362   0.47951   0.04075   0.00000  Uiso   1.00
C395   C     0.97950   0.22362   0.95925   0.00000  Uiso   1.00
C396   C     0.52141   0.27571   0.04105   0.00000  Uiso   1.00
C397   C     0.59813   0.34813   0.25000   0.00000  Uiso   1.00
C398   C     0.90187   0.15187   0.75000   0.00000  Uiso   1.00
C399   C     0.65186   0.09814   0.25000   0.00000  Uiso   1.00
C400   C     0.84814   0.40187   0.75000   0.00000  Uiso   1.00
C401   C     0.90187   0.15187   0.25000   0.00000  Uiso   1.00
C402   C     0.59813   0.34813   0.75000   0.00000  Uiso   1.00
C403   C     0.84814   0.40186   0.25000   0.00000  Uiso   1.00
C404   C     0.52656   0.27047   0.08143   0.00000  Uiso   1.00
C405   C     0.65187   0.09814   0.75000   0.00000  Uiso   1.00
C406   C     0.59814   0.15186   0.75000   0.00000  Uiso   1.00
C407   C     0.90187   0.34813   0.25000   0.00000  Uiso   1.00
C408   C     0.65187   0.40187   0.75000   0.00000  Uiso   1.00
C409   C     0.84813   0.09813   0.25000   0.00000  Uiso   1.00
C410   C     0.90186   0.34814   0.75000   0.00000  Uiso   1.00
C411   C     0.59814   0.15187   0.25000   0.00000  Uiso   1.00
C412   C     0.84813   0.09813   0.75000   0.00000  Uiso   1.00
C413   C     0.65187   0.40187   0.25000   0.00000  Uiso   1.00
C414   C     0.50000   0.25000   0.47941   0.00000  Uiso   1.00
C415   C     0.72951   0.47345   0.91857   0.00000  Uiso   1.00
C416   C     0.50000   0.25000   0.52030   0.00000  Uiso   1.00
C417   C     0.74999   0.00001   0.47970   0.00000  Uiso   1.00
C418   C     0.74999   0.00001   0.52059   0.00000  Uiso   1.00
C419   C     0.75001   0.49999   0.97941   0.00000  Uiso   1.00
C420   C     0.75001   0.49999   0.02031   0.00000  Uiso   1.00
C421   C     0.50000   0.25000   0.97969   0.00000  Uiso   1.00
C422   C     0.50000   0.25000   0.02059   0.00000  Uiso   1.00
C423   C     0.53326   0.31141   0.39817   0.00000  Uiso   1.00
C424   C     0.50129   0.33359   0.38197   0.00000  Uiso   1.00
C425   C     0.96224   0.19106   0.60173   0.00000  Uiso   1.00
C426   C     0.77210   0.02527   0.08127   0.00000  Uiso   1.00
C427   C     0.99223   0.16649   0.61827   0.00000  Uiso   1.00
C428   C     0.69096   0.46241   0.39825   0.00000  Uiso   1.00
C429   C     0.66645   0.49248   0.38176   0.00000  Uiso   1.00
C430   C     0.81151   0.03307   0.60184   0.00000  Uiso   1.00
C431   C     0.83360   0.00101   0.61797   0.00000  Uiso   1.00
C432   C     0.96673   0.18859   0.39816   0.00000  Uiso   1.00
C433   C     0.99870   0.16643   0.38192   0.00000  Uiso   1.00
C434   C     0.53776   0.30893   0.60173   0.00000  Uiso   1.00
C435   C     0.50777   0.33350   0.61827   0.00000  Uiso   1.00
C436   C     0.80903   0.03759   0.39826   0.00000  Uiso   1.00
C437   C     0.52529   0.27208   0.91873   0.00000  Uiso   1.00
C438   C     0.83354   0.00752   0.38179   0.00000  Uiso   1.00
C439   C     0.68849   0.46692   0.60185   0.00000  Uiso   1.00
C440   C     0.66643   0.49896   0.61809   0.00000  Uiso   1.00
C441   C     0.78311   0.06149   0.89816   0.00000  Uiso   1.00
C442   C     0.75107   0.08361   0.88203   0.00000  Uiso   1.00
C443   C     0.71236   0.44099   0.10175   0.00000  Uiso   1.00
C444   C     0.74238   0.41655   0.11846   0.00000  Uiso   1.00
C445   C     0.94095   0.21243   0.89825   0.00000  Uiso   1.00
C446   C     0.91647   0.24251   0.88173   0.00000  Uiso   1.00
C447   C     0.56152   0.28306   0.10185   0.00000  Uiso   1.00
C448   C     0.97344   0.22952   0.08143   0.00000  Uiso   1.00
C449   C     0.58358   0.25102   0.11806   0.00000  Uiso   1.00
C450   C     0.71690   0.43850   0.89815   0.00000  Uiso   1.00
C451   C     0.74895   0.41640   0.88201   0.00000  Uiso   1.00
C452   C     0.78763   0.05902   0.10174   0.00000  Uiso   1.00
C453   C     0.75757   0.08355   0.11821   0.00000  Uiso   1.00
C454   C     0.55905   0.28758   0.89825   0.00000  Uiso   1.00
C455   C     0.58354   0.25751   0.88174   0.00000  Uiso   1.00
C456   C     0.93848   0.21694   0.10184   0.00000  Uiso   1.00
C457   C     0.91638   0.24901   0.11794   0.00000  Uiso   1.00
C458   C     0.50000   0.25000   0.39822   0.00000  Uiso   1.00
C459   C     0.50000   0.25000   0.60166   0.00000  Uiso   1.00
C460   C     0.75000   0.00000   0.39834   0.00000  Uiso   1.00
C461   C     0.97784   0.22478   0.58127   0.00000  Uiso   1.00
C462   C     0.75000   0.00000   0.60178   0.00000  Uiso   1.00
C463   C     0.75000  -0.00000   0.89822   0.00000  Uiso   1.00
C464   C     0.75000   0.00000   0.10166   0.00000  Uiso   1.00
C465   C     0.50000   0.25000   0.89834   0.00000  Uiso   1.00
C466   C     0.50000   0.25000   0.10178   0.00000  Uiso   1.00
C467   C     0.94398   0.21408   0.47923   0.00000  Uiso   1.00
C468   C     0.55705   0.28385   0.52037   0.00000  Uiso   1.00
C469   C     0.78401   0.05695   0.47964   0.00000  Uiso   1.00
C470   C     0.71390   0.44410   0.52076   0.00000  Uiso   1.00
C471   C     0.55603   0.28591   0.47924   0.00000  Uiso   1.00
C472   C     0.72471   0.47792   0.41873   0.00000  Uiso   1.00
C473   C     0.94295   0.21615   0.52036   0.00000  Uiso   1.00
C474   C     0.71597   0.44306   0.47964   0.00000  Uiso   1.00
C475   C     0.78608   0.05592   0.52077   0.00000  Uiso   1.00
C476   C     0.69408   0.46393   0.97924   0.00000  Uiso   1.00
C477   C     0.80698   0.03398   0.02037   0.00000  Uiso   1.00
C478   C     0.53404   0.30694   0.97964   0.00000  Uiso   1.00
C479   C     0.96390   0.19409   0.02076   0.00000  Uiso   1.00
C480   C     0.80594   0.03605   0.97924   0.00000  Uiso   1.00
C481   C     0.69305   0.46599   0.02037   0.00000  Uiso   1.00
C482   C     0.96596   0.19306   0.97963   0.00000  Uiso   1.00
C483   C     0.77655   0.02049   0.58143   0.00000  Uiso   1.00
C484   C     0.53611   0.30590   0.02077   0.00000  Uiso   1.00
C485   C     0.75000   0.00000   0.35585   0.00000  Uiso   1.00
C486   C     0.75000   0.00000   0.64419   0.00000  Uiso   1.00
C487   C     0.50000   0.25000   0.35581   0.00000  Uiso   1.00
C488   C     0.50000   0.25000   0.64415   0.00000  Uiso   1.00
C489   C     0.50000   0.25000   0.85585   0.00000  Uiso   1.00
C490   C     0.50000   0.25000   0.14419   0.00000  Uiso   1.00
C491   C     0.75000   0.00000   0.85581   0.00000  Uiso   1.00
C492   C     0.75000   0.00001   0.14415   0.00000  Uiso   1.00
C493   C     0.67993   0.07007   0.25000   0.00000  Uiso   1.00
C494   C     0.97944   0.22351   0.41857   0.00000  Uiso   1.00
C495   C     0.82007   0.42993   0.75000   0.00000  Uiso   1.00
C496   C     0.92993   0.17993   0.25000   0.00000  Uiso   1.00
C497   C     0.57007   0.32007   0.75000   0.00000  Uiso   1.00
C498   C     0.82007   0.42993   0.25000   0.00000  Uiso   1.00
C499   C     0.67993   0.07007   0.75000   0.00000  Uiso   1.00
C500   C     0.57007   0.32007   0.25000   0.00000  Uiso   1.00
C501   C     0.92993   0.17993   0.75000   0.00000  Uiso   1.00
C502   C     0.67993   0.42993   0.75000   0.00000  Uiso   1.00
C503   C     0.82007   0.07007   0.25000   0.00000  Uiso   1.00
C504   C     0.92993   0.32007   0.75000   0.00000  Uiso   1.00
C505   C     0.52216   0.27522   0.58127   0.00000  Uiso   1.00
C506   C     0.57007   0.17993   0.25000   0.00000  Uiso   1.00
C507   C     0.82007   0.07007   0.75000   0.00000  Uiso   1.00
C508   C     0.67993   0.42993   0.25000   0.00000  Uiso   1.00
C509   C     0.57007   0.17993   0.75000   0.00000  Uiso   1.00
C510   C     0.92993   0.32007   0.25000   0.00000  Uiso   1.00
C511   C     0.62285   0.40389   0.22355   0.00000  Uiso   1.00
C512   C     0.87715   0.09612   0.77646   0.00000  Uiso   1.00
C513   C     0.59535   0.12207   0.22462   0.00000  Uiso   1.00
C514   C     0.90465   0.37793   0.77538   0.00000  Uiso   1.00
C515   C     0.87715   0.09612   0.22354   0.00000  Uiso   1.00
C516   C     0.77528   0.02209   0.41873   0.00000  Uiso   1.00
C517   C     0.62282   0.40391   0.77642   0.00000  Uiso   1.00
C518   C     0.90465   0.37793   0.22462   0.00000  Uiso   1.00
C519   C     0.59535   0.12207   0.77538   0.00000  Uiso   1.00
C520   C     0.62207   0.09535   0.77538   0.00000  Uiso   1.00
C521   C     0.87793   0.40465   0.22462   0.00000  Uiso   1.00
C522   C     0.59609   0.37718   0.77642   0.00000  Uiso   1.00
C523   C     0.90388   0.12285   0.22354   0.00000  Uiso   1.00
C524   C     0.87793   0.40465   0.77538   0.00000  Uiso   1.00
C525   C     0.62207   0.09535   0.22462   0.00000  Uiso   1.00
C526   C     0.90388   0.12285   0.77646   0.00000  Uiso   1.00
C527   C     0.72344   0.47952   0.58143   0.00000  Uiso   1.00
C528   C     0.59611   0.37716   0.22355   0.00000  Uiso   1.00
C529   C     0.87285   0.15388   0.72354   0.00000  Uiso   1.00
C530   C     0.62716   0.34611   0.27645   0.00000  Uiso   1.00
C531   C     0.84535   0.37207   0.72462   0.00000  Uiso   1.00
C532   C     0.65465   0.12793   0.27538   0.00000  Uiso   1.00
C533   C     0.62718   0.34609   0.72358   0.00000  Uiso   1.00
C534   C     0.87285   0.15388   0.27646   0.00000  Uiso   1.00
C535   C     0.65466   0.12793   0.72462   0.00000  Uiso   1.00
C536   C     0.84535   0.37207   0.27538   0.00000  Uiso   1.00
C537   C     0.87207   0.34535   0.27538   0.00000  Uiso   1.00
C538   C     0.77050   0.02654   0.91857   0.00000  Uiso   1.00
C539   C     0.62793   0.15465   0.72462   0.00000  Uiso   1.00
C540   C     0.84612   0.12715   0.27646   0.00000  Uiso   1.00
C541   C     0.65391   0.37282   0.72358   0.00000  Uiso   1.00
C542   C     0.62793   0.15466   0.27538   0.00000  Uiso   1.00
C543   C     0.87207   0.34535   0.72462   0.00000  Uiso   1.00
C544   C     0.65389   0.37285   0.27645   0.00000  Uiso   1.00
C545   C     0.84612   0.12715   0.72354   0.00000  Uiso   1.00
C546   C     0.97422   0.22867   0.45895   0.00000  Uiso   1.00
C547   C     0.52645   0.27042   0.54074   0.00000  Uiso   1.00
C548   C     0.77049   0.02639   0.45926   0.00000  Uiso   1.00
H549   H     0.62080   0.42604   0.20281   0.00000  Uiso   1.00
H550   H     0.88062   0.42743   0.20476   0.00000  Uiso   1.00
H551   H     0.92920   0.25632   0.85650   0.00000  Uiso   1.00
H552   H     0.89039   0.23038   0.87160   0.00000  Uiso   1.00
H553   H     0.94887   0.19303   0.87498   0.00000  Uiso   1.00
H554   H     0.92311   0.19727   0.91856   0.00000  Uiso   1.00
H555   H     0.57016   0.23848   0.14364   0.00000  Uiso   1.00
H556   H     0.58758   0.22995   0.09524   0.00000  Uiso   1.00
H557   H     0.61079   0.26086   0.12764   0.00000  Uiso   1.00
H558   H     0.58053   0.29672   0.08158   0.00000  Uiso   1.00
H559   H     0.55516   0.30280   0.12536   0.00000  Uiso   1.00
H560   H     0.76166   0.42986   0.85656   0.00000  Uiso   1.00
H561   H     0.57392   0.37925   0.79713   0.00000  Uiso   1.00
H562   H     0.76990   0.41224   0.90494   0.00000  Uiso   1.00
H563   H     0.73906   0.38925   0.87228   0.00000  Uiso   1.00
H564   H     0.70319   0.41952   0.91840   0.00000  Uiso   1.00
H565   H     0.69722   0.44487   0.87460   0.00000  Uiso   1.00
H566   H     0.73714   0.08985   0.09531   0.00000  Uiso   1.00
H567   H     0.74363   0.07080   0.14335   0.00000  Uiso   1.00
H568   H     0.76974   0.10957   0.12846   0.00000  Uiso   1.00
H569   H     0.80699   0.05109   0.12504   0.00000  Uiso   1.00
H570   H     0.80283   0.07683   0.08145   0.00000  Uiso   1.00
H571   H     0.58976   0.23702   0.90461   0.00000  Uiso   1.00
H572   H     0.92602   0.12081   0.20280   0.00000  Uiso   1.00
H573   H     0.57080   0.24366   0.85654   0.00000  Uiso   1.00
H574   H     0.60961   0.26965   0.87157   0.00000  Uiso   1.00
H575   H     0.55112   0.30697   0.87497   0.00000  Uiso   1.00
H576   H     0.57688   0.30275   0.91855   0.00000  Uiso   1.00
H577   H     0.92987   0.26176   0.14336   0.00000  Uiso   1.00
H578   H     0.91221   0.26992   0.09498   0.00000  Uiso   1.00
H579   H     0.88925   0.23914   0.12772   0.00000  Uiso   1.00
H580   H     0.91950   0.20322   0.08161   0.00000  Uiso   1.00
H581   H     0.94484   0.19728   0.12542   0.00000  Uiso   1.00
H582   H     0.88062   0.42743   0.79524   0.00000  Uiso   1.00
H583   H     0.61938   0.07257   0.20476   0.00000  Uiso   1.00
H584   H     0.92603   0.12081   0.79720   0.00000  Uiso   1.00
H585   H     0.57396   0.37921   0.20282   0.00000  Uiso   1.00
H586   H     0.87081   0.17602   0.70280   0.00000  Uiso   1.00
H587   H     0.62921   0.32396   0.29718   0.00000  Uiso   1.00
H588   H     0.82257   0.36938   0.70476   0.00000  Uiso   1.00
H589   H     0.87920   0.07397   0.79720   0.00000  Uiso   1.00
H590   H     0.67743   0.13062   0.29524   0.00000  Uiso   1.00
H591   H     0.62925   0.32392   0.70287   0.00000  Uiso   1.00
H592   H     0.87081   0.17602   0.29720   0.00000  Uiso   1.00
H593   H     0.67743   0.13062   0.70476   0.00000  Uiso   1.00
H594   H     0.82257   0.36938   0.29524   0.00000  Uiso   1.00
H595   H     0.86938   0.32257   0.29524   0.00000  Uiso   1.00
H596   H     0.63062   0.17743   0.70476   0.00000  Uiso   1.00
H597   H     0.82398   0.12919   0.29721   0.00000  Uiso   1.00
H598   H     0.67608   0.37075   0.70287   0.00000  Uiso   1.00
H599   H     0.63062   0.17743   0.29524   0.00000  Uiso   1.00
H600   H     0.57257   0.11938   0.20476   0.00000  Uiso   1.00
H601   H     0.86938   0.32257   0.70476   0.00000  Uiso   1.00
H602   H     0.67604   0.37080   0.29719   0.00000  Uiso   1.00
H603   H     0.82397   0.12919   0.70280   0.00000  Uiso   1.00
H604   H     0.90263   0.18158   0.47367   0.00000  Uiso   1.00
H605   H     0.61009   0.28600   0.52401   0.00000  Uiso   1.00
H606   H     0.78632   0.10999   0.47601   0.00000  Uiso   1.00
H607   H     0.68126   0.40286   0.52633   0.00000  Uiso   1.00
H608   H     0.59738   0.31841   0.47368   0.00000  Uiso   1.00
H609   H     0.88991   0.21400   0.52400   0.00000  Uiso   1.00
H610   H     0.71365   0.39003   0.47601   0.00000  Uiso   1.00
H611   H     0.92743   0.38062   0.79524   0.00000  Uiso   1.00
H612   H     0.81871   0.09716   0.52633   0.00000  Uiso   1.00
H613   H     0.65283   0.43131   0.97367   0.00000  Uiso   1.00
H614   H     0.86001   0.03627   0.02400   0.00000  Uiso   1.00
H615   H     0.53637   0.35997   0.97601   0.00000  Uiso   1.00
H616   H     0.93126   0.15286   0.02633   0.00000  Uiso   1.00
H617   H     0.84720   0.06865   0.97367   0.00000  Uiso   1.00
H618   H     0.64002   0.46368   0.02401   0.00000  Uiso   1.00
H619   H     0.96362   0.14003   0.97599   0.00000  Uiso   1.00
H620   H     0.56875   0.34713   0.02633   0.00000  Uiso   1.00
H621   H     0.98863   0.32017   0.35647   0.00000  Uiso   1.00
H622   H     0.87919   0.07398   0.20279   0.00000  Uiso   1.00
H623   H     0.98029   0.33774   0.40485   0.00000  Uiso   1.00
H624   H     0.51123   0.36073   0.37230   0.00000  Uiso   1.00
H625   H     0.54699   0.33037   0.41843   0.00000  Uiso   1.00
H626   H     0.55297   0.30500   0.37464   0.00000  Uiso   1.00
H627   H     0.51272   0.16021   0.59542   0.00000  Uiso   1.00
H628   H     0.50610   0.17919   0.64348   0.00000  Uiso   1.00
H629   H     0.98002   0.14046   0.62843   0.00000  Uiso   1.00
H630   H     0.94285   0.19904   0.62499   0.00000  Uiso   1.00
H631   H     0.94704   0.17327   0.58142   0.00000  Uiso   1.00
H632   H     0.66015   0.01291   0.40467   0.00000  Uiso   1.00
H633   H     0.62075   0.42608   0.79712   0.00000  Uiso   1.00
H634   H     0.67922   0.00642   0.35663   0.00000  Uiso   1.00
H635   H     0.64043   0.48032   0.37150   0.00000  Uiso   1.00
H636   H     0.69889   0.44304   0.37496   0.00000  Uiso   1.00
H637   H     0.67313   0.44722   0.41854   0.00000  Uiso   1.00
H638   H     0.82014   0.48833   0.64344   0.00000  Uiso   1.00
H639   H     0.83771   0.48005   0.59505   0.00000  Uiso   1.00
H640   H     0.86076   0.01087   0.62768   0.00000  Uiso   1.00
H641   H     0.83050   0.04678   0.58160   0.00000  Uiso   1.00
H642   H     0.80515   0.05276   0.62540   0.00000  Uiso   1.00
H643   H     0.51128   0.17982   0.35636   0.00000  Uiso   1.00
H644   H     0.92743   0.38062   0.20476   0.00000  Uiso   1.00
H645   H     0.51976   0.16233   0.40475   0.00000  Uiso   1.00
H646   H     0.98877   0.13926   0.37233   0.00000  Uiso   1.00
H647   H     0.95304   0.16962   0.41844   0.00000  Uiso   1.00
H648   H     0.94700   0.19500   0.37466   0.00000  Uiso   1.00
H649   H     0.98727   0.33977   0.59544   0.00000  Uiso   1.00
H650   H     0.99392   0.32081   0.64350   0.00000  Uiso   1.00
H651   H     0.51999   0.35954   0.62842   0.00000  Uiso   1.00
H652   H     0.55716   0.30096   0.62499   0.00000  Uiso   1.00
H653   H     0.55296   0.32673   0.58141   0.00000  Uiso   1.00
H654   H     0.83984   0.48710   0.40470   0.00000  Uiso   1.00
H655   H     0.57257   0.11938   0.79524   0.00000  Uiso   1.00
H656   H     0.82078   0.49358   0.35666   0.00000  Uiso   1.00
H657   H     0.85957   0.01968   0.37153   0.00000  Uiso   1.00
H658   H     0.80111   0.05696   0.37496   0.00000  Uiso   1.00
H659   H     0.82685   0.05279   0.41855   0.00000  Uiso   1.00
H660   H     0.67983   0.01145   0.64369   0.00000  Uiso   1.00
H661   H     0.66246   0.02006   0.59528   0.00000  Uiso   1.00
H662   H     0.63921   0.48912   0.62763   0.00000  Uiso   1.00
H663   H     0.66948   0.45328   0.58158   0.00000  Uiso   1.00
H664   H     0.69485   0.44718   0.62535   0.00000  Uiso   1.00
H665   H     0.73833   0.07013   0.85661   0.00000  Uiso   1.00
H666   H     0.61938   0.07257   0.79524   0.00000  Uiso   1.00
H667   H     0.73014   0.08779   0.90498   0.00000  Uiso   1.00
H668   H     0.76097   0.11074   0.87227   0.00000  Uiso   1.00
H669   H     0.79684   0.08047   0.91840   0.00000  Uiso   1.00
H670   H     0.80279   0.05512   0.87460   0.00000  Uiso   1.00
H671   H     0.76321   0.41064   0.09585   0.00000  Uiso   1.00
H672   H     0.75580   0.42917   0.14400   0.00000  Uiso   1.00
H673   H     0.73029   0.39032   0.12822   0.00000  Uiso   1.00
H674   H     0.69287   0.44894   0.12492   0.00000  Uiso   1.00
H675   H     0.69730   0.42311   0.08139   0.00000  Uiso   1.00
H676   H     0.91029   0.26303   0.90458   0.00000  Uiso   1.00
O677   O     0.75000   0.00000   0.25000   0.00000  Uiso   1.00
O678   O     0.75000   0.46964   0.66245   0.00000  Uiso   1.00
O679   O     0.96964   0.25000   0.33755   0.00000  Uiso   1.00
O680   O     0.53037   0.25000   0.66245   0.00000  Uiso   1.00
O681   O     0.50000   0.21964   0.83755   0.00000  Uiso   1.00
O682   O     0.50000   0.28037   0.16245   0.00000  Uiso   1.00
O683   O     0.78037   0.00000   0.83755   0.00000  Uiso   1.00
O684   O     0.71964   0.00000   0.16245   0.00000  Uiso   1.00
O685   O     0.50000   0.28037   0.83755   0.00000  Uiso   1.00
O686   O     0.50000   0.21964   0.16245   0.00000  Uiso   1.00
O687   O     0.71964   0.00000   0.83755   0.00000  Uiso   1.00
O688   O     0.75000   0.00000   0.75000   0.00000  Uiso   1.00
O689   O     0.78037   0.00000   0.16245   0.00000  Uiso   1.00
O690   O     0.70725   0.07308   0.27302   0.00000  Uiso   1.00
O691   O     0.79276   0.42693   0.72698   0.00000  Uiso   1.00
O692   O     0.92693   0.20725   0.27302   0.00000  Uiso   1.00
O693   O     0.57308   0.29276   0.72698   0.00000  Uiso   1.00
O694   O     0.79276   0.42693   0.27302   0.00000  Uiso   1.00
O695   O     0.70725   0.07308   0.72698   0.00000  Uiso   1.00
O696   O     0.57308   0.29276   0.27302   0.00000  Uiso   1.00
O697   O     0.92693   0.20725   0.72698   0.00000  Uiso   1.00
O698   O     0.70725   0.42693   0.72698   0.00000  Uiso   1.00
O699   O     0.50000   0.25000   0.25000   0.00000  Uiso   1.00
O700   O     0.79276   0.07308   0.27302   0.00000  Uiso   1.00
O701   O     0.92693   0.29276   0.72698   0.00000  Uiso   1.00
O702   O     0.57308   0.20725   0.27302   0.00000  Uiso   1.00
O703   O     0.79276   0.07308   0.72698   0.00000  Uiso   1.00
O704   O     0.70725   0.42693   0.27302   0.00000  Uiso   1.00
O705   O     0.57308   0.20725   0.72698   0.00000  Uiso   1.00
O706   O     0.92693   0.29276   0.27302   0.00000  Uiso   1.00
O707   O     0.95725   0.32308   0.77302   0.00000  Uiso   1.00
O708   O     0.54276   0.17693   0.22698   0.00000  Uiso   1.00
O709   O     0.67693   0.45725   0.77302   0.00000  Uiso   1.00
O710   O     0.50000   0.25000   0.75000   0.00000  Uiso   1.00
O711   O     0.82308   0.04276   0.22698   0.00000  Uiso   1.00
O712   O     0.54276   0.17693   0.77302   0.00000  Uiso   1.00
O713   O     0.95725   0.32308   0.22698   0.00000  Uiso   1.00
O714   O     0.82308   0.04276   0.77302   0.00000  Uiso   1.00
O715   O     0.67693   0.45725   0.22698   0.00000  Uiso   1.00
O716   O     0.95725   0.17693   0.22698   0.00000  Uiso   1.00
O717   O     0.54276   0.32308   0.77302   0.00000  Uiso   1.00
O718   O     0.67693   0.04276   0.22698   0.00000  Uiso   1.00
O719   O     0.82308   0.45725   0.77302   0.00000  Uiso   1.00
O720   O     0.54276   0.32308   0.22698   0.00000  Uiso   1.00
O721   O     0.75000   0.46964   0.33755   0.00000  Uiso   1.00
O722   O     0.95725   0.17693   0.77302   0.00000  Uiso   1.00
O723   O     0.82308   0.45725   0.22698   0.00000  Uiso   1.00
O724   O     0.67693   0.04276   0.77302   0.00000  Uiso   1.00
O725   O     0.91433   0.20137   0.45850   0.00000  Uiso   1.00
O726   O     0.58875   0.29072   0.54092   0.00000  Uiso   1.00
O727   O     0.79097   0.08864   0.45909   0.00000  Uiso   1.00
O728   O     0.70109   0.41449   0.54150   0.00000  Uiso   1.00
O729   O     0.58567   0.29862   0.45850   0.00000  Uiso   1.00
O730   O     0.91125   0.20927   0.54091   0.00000  Uiso   1.00
O731   O     0.70901   0.41137   0.45909   0.00000  Uiso   1.00
O732   O     0.75000   0.03037   0.66245   0.00000  Uiso   1.00
O733   O     0.79888   0.08553   0.54150   0.00000  Uiso   1.00
O734   O     0.66446   0.45114   0.95850   0.00000  Uiso   1.00
O735   O     0.83867   0.04093   0.04091   0.00000  Uiso   1.00
O736   O     0.54101   0.33862   0.95909   0.00000  Uiso   1.00
O737   O     0.95110   0.16448   0.04149   0.00000  Uiso   1.00
O738   O     0.83556   0.04883   0.95850   0.00000  Uiso   1.00
O739   O     0.66137   0.45902   0.04092   0.00000  Uiso   1.00
O740   O     0.95898   0.16138   0.95908   0.00000  Uiso   1.00
O741   O     0.54892   0.33550   0.04150   0.00000  Uiso   1.00
O742   O     0.53037   0.25000   0.33755   0.00000  Uiso   1.00
O743   O     0.96964   0.25000   0.66245   0.00000  Uiso   1.00
O744   O     0.75000   0.03037   0.33755   0.00000  Uiso   1.00
Zn745  Zn    0.70660   0.00000   0.21735   0.00000  Uiso   1.00
Zn746  Zn    0.54341   0.25000   0.28265   0.00000  Uiso   1.00
Zn747  Zn    0.75000   0.45660   0.71735   0.00000  Uiso   1.00
Zn748  Zn    0.75000   0.04341   0.28265   0.00000  Uiso   1.00
Zn749  Zn    0.54341   0.25000   0.71735   0.00000  Uiso   1.00
Zn750  Zn    0.95660   0.25000   0.28265   0.00000  Uiso   1.00
Zn751  Zn    0.75000   0.04341   0.71735   0.00000  Uiso   1.00
Zn752  Zn    0.75000   0.45660   0.28265   0.00000  Uiso   1.00
Zn753  Zn    0.79341   0.00000   0.78265   0.00000  Uiso   1.00
Zn754  Zn    0.50000   0.20660   0.21735   0.00000  Uiso   1.00
Zn755  Zn    0.50000   0.29341   0.78265   0.00000  Uiso   1.00
Zn756  Zn    0.79341   0.00000   0.21735   0.00000  Uiso   1.00
Zn757  Zn    0.70660   0.00000   0.78265   0.00000  Uiso   1.00
Zn758  Zn    0.50000   0.29341   0.21735   0.00000  Uiso   1.00
Zn759  Zn    0.50000   0.20660   0.78265   0.00000  Uiso   1.00
Zn760  Zn    0.95660   0.25000   0.71735   0.00000  Uiso   1.00
C761   C     0.02057   0.77649   0.41857   0.00000  Uiso   1.00
C762   C     0.22791   0.97473   0.08128   0.00000  Uiso   1.00
C763   C     0.22859   0.97429   0.54105   0.00000  Uiso   1.00
C764   C     0.02579   0.77132   0.45895   0.00000  Uiso   1.00
C765   C     0.47356   0.72958   0.54074   0.00000  Uiso   1.00
C766   C     0.22949   0.97362   0.45925   0.00000  Uiso   1.00
C767   C     0.27139   0.52573   0.54105   0.00000  Uiso   1.00
C768   C     0.22428   0.97860   0.95895   0.00000  Uiso   1.00
C769   C     0.27641   0.52048   0.04075   0.00000  Uiso   1.00
C770   C     0.02051   0.77638   0.95925   0.00000  Uiso   1.00
C771   C     0.47859   0.72428   0.04105   0.00000  Uiso   1.00
C772   C     0.27574   0.52138   0.95895   0.00000  Uiso   1.00
C773   C     0.47471   0.72792   0.91872   0.00000  Uiso   1.00
C774   C     0.22362   0.97951   0.04075   0.00000  Uiso   1.00
C775   C     0.47950   0.72362   0.95925   0.00000  Uiso   1.00
C776   C     0.02141   0.77571   0.04105   0.00000  Uiso   1.00
C777   C     0.09813   0.84813   0.25000   0.00000  Uiso   1.00
C778   C     0.40187   0.65187   0.75000   0.00000  Uiso   1.00
C779   C     0.15186   0.59814   0.25000   0.00000  Uiso   1.00
C780   C     0.34814   0.90187   0.75000   0.00000  Uiso   1.00
C781   C     0.40187   0.65187   0.25000   0.00000  Uiso   1.00
C782   C     0.09813   0.84813   0.75000   0.00000  Uiso   1.00
C783   C     0.34814   0.90186   0.25000   0.00000  Uiso   1.00
C784   C     0.02656   0.77047   0.08143   0.00000  Uiso   1.00
C785   C     0.15187   0.59814   0.75000   0.00000  Uiso   1.00
C786   C     0.09814   0.65186   0.75000   0.00000  Uiso   1.00
C787   C     0.40187   0.84813   0.25000   0.00000  Uiso   1.00
C788   C     0.15187   0.90187   0.75000   0.00000  Uiso   1.00
C789   C     0.34813   0.59813   0.25000   0.00000  Uiso   1.00
C790   C     0.40186   0.84814   0.75000   0.00000  Uiso   1.00
C791   C     0.09814   0.65187   0.25000   0.00000  Uiso   1.00
C792   C     0.34813   0.59813   0.75000   0.00000  Uiso   1.00
C793   C     0.15187   0.90187   0.25000   0.00000  Uiso   1.00
C794   C     0.00000   0.75000   0.47941   0.00000  Uiso   1.00
C795   C     0.22951   0.97345   0.91857   0.00000  Uiso   1.00
C796   C     0.00000   0.75000   0.52030   0.00000  Uiso   1.00
C797   C     0.24999   0.50001   0.47970   0.00000  Uiso   1.00
C798   C     0.24999   0.50001   0.52059   0.00000  Uiso   1.00
C799   C     0.25001   0.99999   0.97941   0.00000  Uiso   1.00
C800   C     0.25001   0.99999   0.02031   0.00000  Uiso   1.00
C801   C     0.00000   0.75000   0.97969   0.00000  Uiso   1.00
C802   C     0.00000   0.75000   0.02059   0.00000  Uiso   1.00
C803   C     0.03326   0.81141   0.39817   0.00000  Uiso   1.00
C804   C     0.00129   0.83359   0.38197   0.00000  Uiso   1.00
C805   C     0.46224   0.69106   0.60173   0.00000  Uiso   1.00
C806   C     0.27210   0.52527   0.08127   0.00000  Uiso   1.00
C807   C     0.49223   0.66649   0.61827   0.00000  Uiso   1.00
C808   C     0.19096   0.96241   0.39825   0.00000  Uiso   1.00
C809   C     0.16645   0.99248   0.38176   0.00000  Uiso   1.00
C810   C     0.31151   0.53307   0.60184   0.00000  Uiso   1.00
C811   C     0.33360   0.50101   0.61797   0.00000  Uiso   1.00
C812   C     0.46673   0.68859   0.39816   0.00000  Uiso   1.00
C813   C     0.49870   0.66643   0.38192   0.00000  Uiso   1.00
C814   C     0.03776   0.80893   0.60173   0.00000  Uiso   1.00
C815   C     0.00777   0.83350   0.61827   0.00000  Uiso   1.00
C816   C     0.30903   0.53759   0.39826   0.00000  Uiso   1.00
C817   C     0.02529   0.77208   0.91873   0.00000  Uiso   1.00
C818   C     0.33354   0.50752   0.38179   0.00000  Uiso   1.00
C819   C     0.18849   0.96692   0.60185   0.00000  Uiso   1.00
C820   C     0.16643   0.99896   0.61809   0.00000  Uiso   1.00
C821   C     0.28311   0.56149   0.89816   0.00000  Uiso   1.00
C822   C     0.25107   0.58361   0.88203   0.00000  Uiso   1.00
C823   C     0.21236   0.94099   0.10175   0.00000  Uiso   1.00
C824   C     0.24238   0.91655   0.11846   0.00000  Uiso   1.00
C825   C     0.44095   0.71243   0.89825   0.00000  Uiso   1.00
C826   C     0.41647   0.74251   0.88173   0.00000  Uiso   1.00
C827   C     0.06152   0.78306   0.10185   0.00000  Uiso   1.00
C828   C     0.47344   0.72952   0.08143   0.00000  Uiso   1.00
C829   C     0.08358   0.75102   0.11806   0.00000  Uiso   1.00
C830   C     0.21690   0.93850   0.89815   0.00000  Uiso   1.00
C831   C     0.24895   0.91640   0.88201   0.00000  Uiso   1.00
C832   C     0.28763   0.55902   0.10174   0.00000  Uiso   1.00
C833   C     0.25757   0.58355   0.11821   0.00000  Uiso   1.00
C834   C     0.05905   0.78758   0.89825   0.00000  Uiso   1.00
C835   C     0.08354   0.75751   0.88174   0.00000  Uiso   1.00
C836   C     0.43848   0.71694   0.10184   0.00000  Uiso   1.00
C837   C     0.41638   0.74901   0.11794   0.00000  Uiso   1.00
C838   C     0.00000   0.75000   0.39822   0.00000  Uiso   1.00
C839   C     0.00000   0.75000   0.60166   0.00000  Uiso   1.00
C840   C     0.25000   0.50000   0.39834   0.00000  Uiso   1.00
C841   C     0.47784   0.72478   0.58127   0.00000  Uiso   1.00
C842   C     0.25000   0.50000   0.60178   0.00000  Uiso   1.00
C843   C     0.25000   0.50000   0.89822   0.00000  Uiso   1.00
C844   C     0.25000   0.50000   0.10166   0.00000  Uiso   1.00
C845   C     0.00000   0.75000   0.89834   0.00000  Uiso   1.00
C846   C     0.00000   0.75000   0.10178   0.00000  Uiso   1.00
C847   C     0.44398   0.71408   0.47923   0.00000  Uiso   1.00
C848   C     0.05705   0.78385   0.52037   0.00000  Uiso   1.00
C849   C     0.28401   0.55695   0.47964   0.00000  Uiso   1.00
C850   C     0.21390   0.94410   0.52076   0.00000  Uiso   1.00
C851   C     0.05603   0.78591   0.47924   0.00000  Uiso   1.00
C852   C     0.22471   0.97792   0.41873   0.00000  Uiso   1.00
C853   C     0.44295   0.71615   0.52036   0.00000  Uiso   1.00
C854   C     0.21597   0.94306   0.47964   0.00000  Uiso   1.00
C855   C     0.28608   0.55592   0.52077   0.00000  Uiso   1.00
C856   C     0.19408   0.96393   0.97924   0.00000  Uiso   1.00
C857   C     0.30698   0.53398   0.02037   0.00000  Uiso   1.00
C858   C     0.03404   0.80694   0.97964   0.00000  Uiso   1.00
C859   C     0.46390   0.69409   0.02076   0.00000  Uiso   1.00
C860   C     0.30594   0.53605   0.97924   0.00000  Uiso   1.00
C861   C     0.19305   0.96599   0.02037   0.00000  Uiso   1.00
C862   C     0.46596   0.69306   0.97963   0.00000  Uiso   1.00
C863   C     0.27655   0.52049   0.58143   0.00000  Uiso   1.00
C864   C     0.03611   0.80590   0.02077   0.00000  Uiso   1.00
C865   C     0.25000   0.50000   0.35585   0.00000  Uiso   1.00
C866   C     0.25000   0.50000   0.64419   0.00000  Uiso   1.00
C867   C     0.00000   0.75000   0.35581   0.00000  Uiso   1.00
C868   C     0.00000   0.75000   0.64415   0.00000  Uiso   1.00
C869   C     0.00000   0.75000   0.85585   0.00000  Uiso   1.00
C870   C    -0.00000   0.75000   0.14419   0.00000  Uiso   1.00
C871   C     0.25000   0.50000   0.85581   0.00000  Uiso   1.00
C872   C     0.25000   0.50001   0.14415   0.00000  Uiso   1.00
C873   C     0.17993   0.57007   0.25000   0.00000  Uiso   1.00
C874   C     0.47944   0.72351   0.41857   0.00000  Uiso   1.00
C875   C     0.32007   0.92993   0.75000   0.00000  Uiso   1.00
C876   C     0.42993   0.67993   0.25000   0.00000  Uiso   1.00
C877   C     0.07007   0.82007   0.75000   0.00000  Uiso   1.00
C878   C     0.32007   0.92993   0.25000   0.00000  Uiso   1.00
C879   C     0.17993   0.57007   0.75000   0.00000  Uiso   1.00
C880   C     0.07007   0.82007   0.25000   0.00000  Uiso   1.00
C881   C     0.42993   0.67993   0.75000   0.00000  Uiso   1.00
C882   C     0.17993   0.92993   0.75000   0.00000  Uiso   1.00
C883   C     0.32007   0.57007   0.25000   0.00000  Uiso   1.00
C884   C     0.42993   0.82007   0.75000   0.00000  Uiso   1.00
C885   C     0.02216   0.77522   0.58127   0.00000  Uiso   1.00
C886   C     0.07007   0.67993   0.25000   0.00000  Uiso   1.00
C887   C     0.32007   0.57007   0.75000   0.00000  Uiso   1.00
C888   C     0.17993   0.92993   0.25000   0.00000  Uiso   1.00
C889   C     0.07007   0.67993   0.75000   0.00000  Uiso   1.00
C890   C     0.42993   0.82007   0.25000   0.00000  Uiso   1.00
C891   C     0.12285   0.90389   0.22355   0.00000  Uiso   1.00
C892   C     0.37715   0.59612   0.77646   0.00000  Uiso   1.00
C893   C     0.09535   0.62207   0.22462   0.00000  Uiso   1.00
C894   C     0.40465   0.87793   0.77538   0.00000  Uiso   1.00
C895   C     0.37715   0.59612   0.22354   0.00000  Uiso   1.00
C896   C     0.27528   0.52209   0.41873   0.00000  Uiso   1.00
C897   C     0.12282   0.90391   0.77642   0.00000  Uiso   1.00
C898   C     0.40465   0.87793   0.22462   0.00000  Uiso   1.00
C899   C     0.09535   0.62207   0.77538   0.00000  Uiso   1.00
C900   C     0.12207   0.59535   0.77538   0.00000  Uiso   1.00
C901   C     0.37793   0.90465   0.22462   0.00000  Uiso   1.00
C902   C     0.09609   0.87718   0.77642   0.00000  Uiso   1.00
C903   C     0.40388   0.62285   0.22354   0.00000  Uiso   1.00
C904   C     0.37793   0.90465   0.77538   0.00000  Uiso   1.00
C905   C     0.12207   0.59535   0.22462   0.00000  Uiso   1.00
C906   C     0.40388   0.62285   0.77646   0.00000  Uiso   1.00
C907   C     0.22344   0.97952   0.58143   0.00000  Uiso   1.00
C908   C     0.09611   0.87716   0.22355   0.00000  Uiso   1.00
C909   C     0.37285   0.65388   0.72354   0.00000  Uiso   1.00
C910   C     0.12716   0.84611   0.27645   0.00000  Uiso   1.00
C911   C     0.34535   0.87207   0.72462   0.00000  Uiso   1.00
C912   C     0.15465   0.62793   0.27538   0.00000  Uiso   1.00
C913   C     0.12718   0.84609   0.72358   0.00000  Uiso   1.00
C914   C     0.37285   0.65388   0.27646   0.00000  Uiso   1.00
C915   C     0.15466   0.62793   0.72462   0.00000  Uiso   1.00
C916   C     0.34535   0.87207   0.27538   0.00000  Uiso   1.00
C917   C     0.37207   0.84535   0.27538   0.00000  Uiso   1.00
C918   C     0.27050   0.52654   0.91857   0.00000  Uiso   1.00
C919   C     0.12793   0.65465   0.72462   0.00000  Uiso   1.00
C920   C     0.34612   0.62715   0.27646   0.00000  Uiso   1.00
C921   C     0.15391   0.87282   0.72358   0.00000  Uiso   1.00
C922   C     0.12793   0.65466   0.27538   0.00000  Uiso   1.00
C923   C     0.37207   0.84535   0.72462   0.00000  Uiso   1.00
C924   C     0.15389   0.87285   0.27645   0.00000  Uiso   1.00
C925   C     0.34612   0.62715   0.72354   0.00000  Uiso   1.00
C926   C     0.47422   0.72867   0.45895   0.00000  Uiso   1.00
C927   C     0.02645   0.77042   0.54074   0.00000  Uiso   1.00
C928   C     0.27049   0.52639   0.45926   0.00000  Uiso   1.00
H929   H     0.12080   0.92604   0.20281   0.00000  Uiso   1.00
H930   H     0.38062   0.92743   0.20476   0.00000  Uiso   1.00
H931   H     0.42920   0.75632   0.85650   0.00000  Uiso   1.00
H932   H     0.39039   0.73038   0.87160   0.00000  Uiso   1.00
H933   H     0.44887   0.69303   0.87498   0.00000  Uiso   1.00
H934   H     0.42311   0.69727   0.91856   0.00000  Uiso   1.00
H935   H     0.07016   0.73848   0.14364   0.00000  Uiso   1.00
H936   H     0.08758   0.72995   0.09524   0.00000  Uiso   1.00
H937   H     0.11079   0.76086   0.12764   0.00000  Uiso   1.00
H938   H     0.08053   0.79672   0.08158   0.00000  Uiso   1.00
H939   H     0.05516   0.80280   0.12536   0.00000  Uiso   1.00
H940   H     0.26166   0.92986   0.85656   0.00000  Uiso   1.00
H941   H     0.07392   0.87925   0.79713   0.00000  Uiso   1.00
H942   H     0.26990   0.91224   0.90494   0.00000  Uiso   1.00
H943   H     0.23906   0.88925   0.87228   0.00000  Uiso   1.00
H944   H     0.20319   0.91952   0.91840   0.00000  Uiso   1.00
H945   H     0.19722   0.94487   0.87460   0.00000  Uiso   1.00
H946   H     0.23714   0.58985   0.09531   0.00000  Uiso   1.00
H947   H     0.24363   0.57080   0.14335   0.00000  Uiso   1.00
H948   H     0.26974   0.60957   0.12846   0.00000  Uiso   1.00
H949   H     0.30699   0.55109   0.12504   0.00000  Uiso   1.00
H950   H     0.30283   0.57683   0.08145   0.00000  Uiso   1.00
H951   H     0.08976   0.73702   0.90461   0.00000  Uiso   1.00
H952   H     0.42602   0.62081   0.20280   0.00000  Uiso   1.00
H953   H     0.07080   0.74366   0.85654   0.00000  Uiso   1.00
H954   H     0.10961   0.76965   0.87157   0.00000  Uiso   1.00
H955   H     0.05112   0.80697   0.87497   0.00000  Uiso   1.00
H956   H     0.07688   0.80275   0.91855   0.00000  Uiso   1.00
H957   H     0.42987   0.76176   0.14336   0.00000  Uiso   1.00
H958   H     0.41221   0.76992   0.09498   0.00000  Uiso   1.00
H959   H     0.38925   0.73914   0.12772   0.00000  Uiso   1.00
H960   H     0.41950   0.70322   0.08161   0.00000  Uiso   1.00
H961   H     0.44484   0.69728   0.12542   0.00000  Uiso   1.00
H962   H     0.38062   0.92743   0.79524   0.00000  Uiso   1.00
H963   H     0.11938   0.57257   0.20476   0.00000  Uiso   1.00
H964   H     0.42603   0.62081   0.79720   0.00000  Uiso   1.00
H965   H     0.07396   0.87921   0.20282   0.00000  Uiso   1.00
H966   H     0.37081   0.67602   0.70280   0.00000  Uiso   1.00
H967   H     0.12921   0.82396   0.29718   0.00000  Uiso   1.00
H968   H     0.32257   0.86938   0.70476   0.00000  Uiso   1.00
H969   H     0.37920   0.57397   0.79720   0.00000  Uiso   1.00
H970   H     0.17743   0.63062   0.29524   0.00000  Uiso   1.00
H971   H     0.12925   0.82392   0.70287   0.00000  Uiso   1.00
H972   H     0.37081   0.67602   0.29720   0.00000  Uiso   1.00
H973   H     0.17743   0.63062   0.70476   0.00000  Uiso   1.00
H974   H     0.32257   0.86938   0.29524   0.00000  Uiso   1.00
H975   H     0.36938   0.82257   0.29524   0.00000  Uiso   1.00
H976   H     0.13062   0.67743   0.70476   0.00000  Uiso   1.00
H977   H     0.32398   0.62919   0.29721   0.00000  Uiso   1.00
H978   H     0.17608   0.87075   0.70287   0.00000  Uiso   1.00
H979   H     0.13062   0.67743   0.29524   0.00000  Uiso   1.00
H980   H     0.07257   0.61938   0.20476   0.00000  Uiso   1.00
H981   H     0.36938   0.82257   0.70476   0.00000  Uiso   1.00
H982   H     0.17604   0.87080   0.29719   0.00000  Uiso   1.00
H983   H     0.32397   0.62919   0.70280   0.00000  Uiso   1.00
H984   H     0.40263   0.68158   0.47367   0.00000  Uiso   1.00
H985   H     0.11009   0.78600   0.52401   0.00000  Uiso   1.00
H986   H     0.28632   0.60999   0.47601   0.00000  Uiso   1.00
H987   H     0.18126   0.90286   0.52633   0.00000  Uiso   1.00
H988   H     0.09738   0.81841   0.47368   0.00000  Uiso   1.00
H989   H     0.38991   0.71400   0.52400   0.00000  Uiso   1.00
H990   H     0.21365   0.89003   0.47601   0.00000  Uiso   1.00
H991   H     0.42743   0.88062   0.79524   0.00000  Uiso   1.00
H992   H     0.31871   0.59716   0.52633   0.00000  Uiso   1.00
H993   H     0.15283   0.93131   0.97367   0.00000  Uiso   1.00
H994   H     0.36001   0.53627   0.02400   0.00000  Uiso   1.00
H995   H     0.03637   0.85997   0.97601   0.00000  Uiso   1.00
H996   H     0.43126   0.65286   0.02633   0.00000  Uiso   1.00
H997   H     0.34720   0.56865   0.97367   0.00000  Uiso   1.00
H998   H     0.14002   0.96368   0.02401   0.00000  Uiso   1.00
H999   H     0.46362   0.64003   0.97599   0.00000  Uiso   1.00
H1000  H     0.06875   0.84713   0.02633   0.00000  Uiso   1.00
H1001  H     0.48863   0.82017   0.35647   0.00000  Uiso   1.00
H1002  H     0.37919   0.57398   0.20279   0.00000  Uiso   1.00
H1003  H     0.48029   0.83774   0.40485   0.00000  Uiso   1.00
H1004  H     0.01123   0.86073   0.37230   0.00000  Uiso   1.00
H1005  H     0.04699   0.83037   0.41843   0.00000  Uiso   1.00
H1006  H     0.05297   0.80500   0.37464   0.00000  Uiso   1.00
H1007  H     0.01272   0.66021   0.59542   0.00000  Uiso   1.00
H1008  H     0.00610   0.67919   0.64348   0.00000  Uiso   1.00
H1009  H     0.48002   0.64046   0.62843   0.00000  Uiso   1.00
H1010  H     0.44285   0.69904   0.62499   0.00000  Uiso   1.00
H1011  H     0.44704   0.67327   0.58142   0.00000  Uiso   1.00
H1012  H     0.16015   0.51291   0.40467   0.00000  Uiso   1.00
H1013  H     0.12075   0.92608   0.79712   0.00000  Uiso   1.00
H1014  H     0.17922   0.50642   0.35663   0.00000  Uiso   1.00
H1015  H     0.14043   0.98032   0.37150   0.00000  Uiso   1.00
H1016  H     0.19889   0.94304   0.37496   0.00000  Uiso   1.00
H1017  H     0.17313   0.94722   0.41854   0.00000  Uiso   1.00
H1018  H     0.32014   0.98833   0.64344   0.00000  Uiso   1.00
H1019  H     0.33771   0.98005   0.59505   0.00000  Uiso   1.00
H1020  H     0.36076   0.51087   0.62768   0.00000  Uiso   1.00
H1021  H     0.33050   0.54678   0.58160   0.00000  Uiso   1.00
H1022  H     0.30515   0.55276   0.62540   0.00000  Uiso   1.00
H1023  H     0.01128   0.67982   0.35636   0.00000  Uiso   1.00
H1024  H     0.42743   0.88062   0.20476   0.00000  Uiso   1.00
H1025  H     0.01976   0.66233   0.40475   0.00000  Uiso   1.00
H1026  H     0.48877   0.63926   0.37233   0.00000  Uiso   1.00
H1027  H     0.45304   0.66962   0.41844   0.00000  Uiso   1.00
H1028  H     0.44700   0.69500   0.37466   0.00000  Uiso   1.00
H1029  H     0.48727   0.83977   0.59544   0.00000  Uiso   1.00
H1030  H     0.49392   0.82081   0.64350   0.00000  Uiso   1.00
H1031  H     0.01999   0.85954   0.62842   0.00000  Uiso   1.00
H1032  H     0.05716   0.80096   0.62499   0.00000  Uiso   1.00
H1033  H     0.05296   0.82673   0.58141   0.00000  Uiso   1.00
H1034  H     0.33984   0.98710   0.40470   0.00000  Uiso   1.00
H1035  H     0.07257   0.61938   0.79524   0.00000  Uiso   1.00
H1036  H     0.32078   0.99358   0.35666   0.00000  Uiso   1.00
H1037  H     0.35957   0.51968   0.37153   0.00000  Uiso   1.00
H1038  H     0.30111   0.55696   0.37496   0.00000  Uiso   1.00
H1039  H     0.32685   0.55279   0.41855   0.00000  Uiso   1.00
H1040  H     0.17983   0.51145   0.64369   0.00000  Uiso   1.00
H1041  H     0.16246   0.52006   0.59528   0.00000  Uiso   1.00
H1042  H     0.13921   0.98912   0.62763   0.00000  Uiso   1.00
H1043  H     0.16948   0.95328   0.58158   0.00000  Uiso   1.00
H1044  H     0.19485   0.94718   0.62535   0.00000  Uiso   1.00
H1045  H     0.23833   0.57013   0.85661   0.00000  Uiso   1.00
H1046  H     0.11938   0.57257   0.79524   0.00000  Uiso   1.00
H1047  H     0.23014   0.58779   0.90498   0.00000  Uiso   1.00
H1048  H     0.26097   0.61074   0.87227   0.00000  Uiso   1.00
H1049  H     0.29684   0.58047   0.91840   0.00000  Uiso   1.00
H1050  H     0.30279   0.55512   0.87460   0.00000  Uiso   1.00
H1051  H     0.26321   0.91064   0.09585   0.00000  Uiso   1.00
H1052  H     0.25580   0.92917   0.14400   0.00000  Uiso   1.00
H1053  H     0.23029   0.89032   0.12822   0.00000  Uiso   1.00
H1054  H     0.19287   0.94894   0.12492   0.00000  Uiso   1.00
H1055  H     0.19730   0.92311   0.08139   0.00000  Uiso   1.00
H1056  H     0.41029   0.76303   0.90458   0.00000  Uiso   1.00
O1057  O     0.25000   0.50000   0.25000   0.00000  Uiso   1.00
O1058  O     0.25000   0.96964   0.66245   0.00000  Uiso   1.00
O1059  O     0.46964   0.75000   0.33755   0.00000  Uiso   1.00
O1060  O     0.03037   0.75000   0.66245   0.00000  Uiso   1.00
O1061  O     0.00000   0.71964   0.83755   0.00000  Uiso   1.00
O1062  O     0.00000   0.78037   0.16245   0.00000  Uiso   1.00
O1063  O     0.28037   0.50000   0.83755   0.00000  Uiso   1.00
O1064  O     0.21964   0.50000   0.16245   0.00000  Uiso   1.00
O1065  O     0.00000   0.78037   0.83755   0.00000  Uiso   1.00
O1066  O     0.00000   0.71964   0.16245   0.00000  Uiso   1.00
O1067  O     0.21964   0.50000   0.83755   0.00000  Uiso   1.00
O1068  O     0.25000   0.50000   0.75000   0.00000  Uiso   1.00
O1069  O     0.28037   0.50000   0.16245   0.00000  Uiso   1.00
O1070  O     0.20725   0.57308   0.27302   0.00000  Uiso   1.00
O1071  O     0.29276   0.92693   0.72698   0.00000  Uiso   1.00
O1072  O     0.42693   0.70725   0.27302   0.00000  Uiso   1.00
O1073  O     0.07308   0.79276   0.72698   0.00000  Uiso   1.00
O1074  O     0.29276   0.92693   0.27302   0.00000  Uiso   1.00
O1075  O     0.20725   0.57308   0.72698   0.00000  Uiso   1.00
O1076  O     0.07308   0.79276   0.27302   0.00000  Uiso   1.00
O1077  O     0.42693   0.70725   0.72698   0.00000  Uiso   1.00
O1078  O     0.20725   0.92693   0.72698   0.00000  Uiso   1.00
O1079  O     0.00000   0.75000   0.25000   0.00000  Uiso   1.00
O1080  O     0.29276   0.57308   0.27302   0.00000  Uiso   1.00
O1081  O     0.42693   0.79276   0.72698   0.00000  Uiso   1.00
O1082  O     0.07308   0.70725   0.27302   0.00000  Uiso   1.00
O1083  O     0.29276   0.57308   0.72698   0.00000  Uiso   1.00
O1084  O     0.20725   0.92693   0.27302   0.00000  Uiso   1.00
O1085  O     0.07308   0.70725   0.72698   0.00000  Uiso   1.00
O1086  O     0.42693   0.79276   0.27302   0.00000  Uiso   1.00
O1087  O     0.45725   0.82308   0.77302   0.00000  Uiso   1.00
O1088  O     0.04276   0.67693   0.22698   0.00000  Uiso   1.00
O1089  O     0.17693   0.95725   0.77302   0.00000  Uiso   1.00
O1090  O     0.00000   0.75000   0.75000   0.00000  Uiso   1.00
O1091  O     0.32308   0.54276   0.22698   0.00000  Uiso   1.00
O1092  O     0.04276   0.67693   0.77302   0.00000  Uiso   1.00
O1093  O     0.45725   0.82308   0.22698   0.00000  Uiso   1.00
O1094  O     0.32308   0.54276   0.77302   0.00000  Uiso   1.00
O1095  O     0.17693   0.95725   0.22698   0.00000  Uiso   1.00
O1096  O     0.45725   0.67693   0.22698   0.00000  Uiso   1.00
O1097  O     0.04276   0.82308   0.77302   0.00000  Uiso   1.00
O1098  O     0.17693   0.54276   0.22698   0.00000  Uiso   1.00
O1099  O     0.32308   0.95725   0.77302   0.00000  Uiso   1.00
O1100  O     0.04276   0.82308   0.22698   0.00000  Uiso   1.00
O1101  O     0.25000   0.96964   0.33755   0.00000  Uiso   1.00
O1102  O     0.45725   0.67693   0.77302   0.00000  Uiso   1.00
O1103  O     0.32308   0.95725   0.22698   0.00000  Uiso   1.00
O1104  O     0.17693   0.54276   0.77302   0.00000  Uiso   1.00
O1105  O     0.41433   0.70137   0.45850   0.00000  Uiso   1.00
O1106  O     0.08875   0.79072   0.54092   0.00000  Uiso   1.00
O1107  O     0.29097   0.58864   0.45909   0.00000  Uiso   1.00
O1108  O     0.20109   0.91449   0.54150   0.00000  Uiso   1.00
O1109  O     0.08567   0.79862   0.45850   0.00000  Uiso   1.00
O1110  O     0.41125   0.70927   0.54091   0.00000  Uiso   1.00
O1111  O     0.20901   0.91137   0.45909   0.00000  Uiso   1.00
O1112  O     0.25000   0.53037   0.66245   0.00000  Uiso   1.00
O1113  O     0.29888   0.58553   0.54150   0.00000  Uiso   1.00
O1114  O     0.16446   0.95114   0.95850   0.00000  Uiso   1.00
O1115  O     0.33867   0.54093   0.04091   0.00000  Uiso   1.00
O1116  O     0.04101   0.83862   0.95909   0.00000  Uiso   1.00
O1117  O     0.45110   0.66448   0.04149   0.00000  Uiso   1.00
O1118  O     0.33556   0.54883   0.95850   0.00000  Uiso   1.00
O1119  O     0.16137   0.95902   0.04092   0.00000  Uiso   1.00
O1120  O     0.45898   0.66138   0.95908   0.00000  Uiso   1.00
O1121  O     0.04892   0.83550   0.04150   0.00000  Uiso   1.00
O1122  O     0.03037   0.75000   0.33755   0.00000  Uiso   1.00
O1123  O     0.46964   0.75000   0.66245   0.00000  Uiso   1.00
O1124  O     0.25000   0.53037   0.33755   0.00000  Uiso   1.00
Zn1125 Zn    0.20660   0.50000   0.21735   0.00000  Uiso   1.00
Zn1126 Zn    0.04341   0.75000   0.28265   0.00000  Uiso   1.00
Zn1127 Zn    0.25000   0.95660   0.71735   0.00000  Uiso   1.00
Zn1128 Zn    0.25000   0.54341   0.28265   0.00000  Uiso   1.00
Zn1129 Zn    0.04341   0.75000   0.71735   0.00000  Uiso   1.00
Zn1130 Zn    0.45660   0.75000   0.28265   0.00000  Uiso   1.00
Zn1131 Zn    0.25000   0.54341   0.71735   0.00000  Uiso   1.00
Zn1132 Zn    0.25000   0.95660   0.28265   0.00000  Uiso   1.00
Zn1133 Zn    0.29341   0.50000   0.78265   0.00000  Uiso   1.00
Zn1134 Zn    0.00000   0.70660   0.21735   0.00000  Uiso   1.00
Zn1135 Zn    0.00000   0.79341   0.78265   0.00000  Uiso   1.00
Zn1136 Zn    0.29341   0.50000   0.21735   0.00000  Uiso   1.00
Zn1137 Zn    0.20660   0.50000   0.78265   0.00000  Uiso   1.00
Zn1138 Zn    0.00000   0.79341   0.21735   0.00000  Uiso   1.00
Zn1139 Zn    0.00000   0.70660   0.78265   0.00000  Uiso   1.00
Zn1140 Zn    0.45660   0.75000   0.71735   0.00000  Uiso   1.00
C1141  C     0.52057   0.77649   0.41857   0.00000  Uiso   1.00
C1142  C     0.72791   0.97473   0.08128   0.00000  Uiso   1.00
C1143  C     0.72859   0.97429   0.54105   0.00000  Uiso   1.00
C1144  C     0.52579   0.77132   0.45895   0.00000  Uiso   1.00
C1145  C     0.97356   0.72958   0.54074   0.00000  Uiso   1.00
C1146  C     0.72949   0.97362   0.45925   0.00000  Uiso   1.00
C1147  C     0.77139   0.52573   0.54105   0.00000  Uiso   1.00
C1148  C     0.72428   0.97860   0.95895   0.00000  Uiso   1.00
C1149  C     0.77641   0.52048   0.04075   0.00000  Uiso   1.00
C1150  C     0.52051   0.77638   0.95925   0.00000  Uiso   1.00
C1151  C     0.97859   0.72428   0.04105   0.00000  Uiso   1.00
C1152  C     0.77574   0.52138   0.95895   0.00000  Uiso   1.00
C1153  C     0.97471   0.72792   0.91872   0.00000  Uiso   1.00
C1154  C     0.72362   0.97951   0.04075   0.00000  Uiso   1.00
C1155  C     0.97950   0.72362   0.95925   0.00000  Uiso   1.00
C1156  C     0.52141   0.77571   0.04105   0.00000  Uiso   1.00
C1157  C     0.59813   0.84813   0.25000   0.00000  Uiso   1.00
C1158  C     0.90187   0.65187   0.75000   0.00000  Uiso   1.00
C1159  C     0.65186   0.59814   0.25000   0.00000  Uiso   1.00
C1160  C     0.84814   0.90187   0.75000   0.00000  Uiso   1.00
C1161  C     0.90187   0.65187   0.25000   0.00000  Uiso   1.00
C1162  C     0.59813   0.84813   0.75000   0.00000  Uiso   1.00
C1163  C     0.84814   0.90186   0.25000   0.00000  Uiso   1.00
C1164  C     0.52656   0.77047   0.08143   0.00000  Uiso   1.00
C1165  C     0.65187   0.59814   0.75000   0.00000  Uiso   1.00
C1166  C     0.59814   0.65186   0.75000   0.00000  Uiso   1.00
C1167  C     0.90187   0.84813   0.25000   0.00000  Uiso   1.00
C1168  C     0.65187   0.90187   0.75000   0.00000  Uiso   1.00
C1169  C     0.84813   0.59813   0.25000   0.00000  Uiso   1.00
C1170  C     0.90186   0.84814   0.75000   0.00000  Uiso   1.00
C1171  C     0.59814   0.65187   0.25000   0.00000  Uiso   1.00
C1172  C     0.84813   0.59813   0.75000   0.00000  Uiso   1.00
C1173  C     0.65187   0.90187   0.25000   0.00000  Uiso   1.00
C1174  C     0.50000   0.75000   0.47941   0.00000  Uiso   1.00
C1175  C     0.72951   0.97345   0.91857   0.00000  Uiso   1.00
C1176  C     0.50000   0.75000   0.52030   0.00000  Uiso   1.00
C1177  C     0.74999   0.50001   0.47970   0.00000  Uiso   1.00
C1178  C     0.74999   0.50001   0.52059   0.00000  Uiso   1.00
C1179  C     0.75001   0.99999   0.97941   0.00000  Uiso   1.00
C1180  C     0.75001   0.99999   0.02031   0.00000  Uiso   1.00
C1181  C     0.50000   0.75000   0.97969   0.00000  Uiso   1.00
C1182  C     0.50000   0.75000   0.02059   0.00000  Uiso   1.00
C1183  C     0.53326   0.81141   0.39817   0.00000  Uiso   1.00
C1184  C     0.50129   0.83359   0.38197   0.00000  Uiso   1.00
C1185  C     0.96224   0.69106   0.60173   0.00000  Uiso   1.00
C1186  C     0.77210   0.52527   0.08127   0.00000  Uiso   1.00
C1187  C     0.99223   0.66649   0.61827   0.00000  Uiso   1.00
C1188  C     0.69096   0.96241   0.39825   0.00000  Uiso   1.00
C1189  C     0.66645   0.99248   0.38176   0.00000  Uiso   1.00
C1190  C     0.81151   0.53307   0.60184   0.00000  Uiso   1.00
C1191  C     0.83360   0.50101   0.61797   0.00000  Uiso   1.00
C1192  C     0.96673   0.68859   0.39816   0.00000  Uiso   1.00
C1193  C     0.99870   0.66643   0.38192   0.00000  Uiso   1.00
C1194  C     0.53776   0.80893   0.60173   0.00000  Uiso   1.00
C1195  C     0.50777   0.83350   0.61827   0.00000  Uiso   1.00
C1196  C     0.80903   0.53759   0.39826   0.00000  Uiso   1.00
C1197  C     0.52529   0.77208   0.91873   0.00000  Uiso   1.00
C1198  C     0.83354   0.50752   0.38179   0.00000  Uiso   1.00
C1199  C     0.68849   0.96692   0.60185   0.00000  Uiso   1.00
C1200  C     0.66643   0.99896   0.61809   0.00000  Uiso   1.00
C1201  C     0.78311   0.56149   0.89816   0.00000  Uiso   1.00
C1202  C     0.75107   0.58361   0.88203   0.00000  Uiso   1.00
C1203  C     0.71236   0.94099   0.10175   0.00000  Uiso   1.00
C1204  C     0.74238   0.91655   0.11846   0.00000  Uiso   1.00
C1205  C     0.94095   0.71243   0.89825   0.00000  Uiso   1.00
C1206  C     0.91647   0.74251   0.88173   0.00000  Uiso   1.00
C1207  C     0.56152   0.78306   0.10185   0.00000  Uiso   1.00
C1208  C     0.97344   0.72952   0.08143   0.00000  Uiso   1.00
C1209  C     0.58358   0.75102   0.11806   0.00000  Uiso   1.00
C1210  C     0.71690   0.93850   0.89815   0.00000  Uiso   1.00
C1211  C     0.74895   0.91640   0.88201   0.00000  Uiso   1.00
C1212  C     0.78763   0.55902   0.10174   0.00000  Uiso   1.00
C1213  C     0.75757   0.58355   0.11821   0.00000  Uiso   1.00
C1214  C     0.55905   0.78758   0.89825   0.00000  Uiso   1.00
C1215  C     0.58354   0.75751   0.88174   0.00000  Uiso   1.00
C1216  C     0.93848   0.71694   0.10184   0.00000  Uiso   1.00
C1217  C     0.91638   0.74901   0.11794   0.00000  Uiso   1.00
C1218  C     0.50000   0.75000   0.39822   0.00000  Uiso   1.00
C1219  C     0.50000   0.75000   0.60166   0.00000  Uiso   1.00
C1220  C     0.75000   0.50000   0.39834   0.00000  Uiso   1.00
C1221  C     0.97784   0.72478   0.58127   0.00000  Uiso   1.00
C1222  C     0.75000   0.50000   0.60178   0.00000  Uiso   1.00
C1223  C     0.75000   0.50000   0.89822   0.00000  Uiso   1.00
C1224  C     0.75000   0.50000   0.10166   0.00000  Uiso   1.00
C1225  C     0.50000   0.75000   0.89834   0.00000  Uiso   1.00
C1226  C     0.50000   0.75000   0.10178   0.00000  Uiso   1.00
C1227  C     0.94398   0.71408   0.47923   0.00000  Uiso   1.00
C1228  C     0.55705   0.78385   0.52037   0.00000  Uiso   1.00
C1229  C     0.78401   0.55695   0.47964   0.00000  Uiso   1.00
C1230  C     0.71390   0.94410   0.52076   0.00000  Uiso   1.00
C1231  C     0.55603   0.78591   0.47924   0.00000  Uiso   1.00
C1232  C     0.72471   0.97792   0.41873   0.00000  Uiso   1.00
C1233  C     0.94295   0.71615   0.52036   0.00000  Uiso   1.00
C1234  C     0.71597   0.94306   0.47964   0.00000  Uiso   1.00
C1235  C     0.78608   0.55592   0.52077   0.00000  Uiso   1.00
C1236  C     0.69408   0.96393   0.97924   0.00000  Uiso   1.00
C1237  C     0.80698   0.53398   0.02037   0.00000  Uiso   1.00
C1238  C     0.53404   0.80694   0.97964   0.00000  Uiso   1.00
C1239  C     0.96390   0.69409   0.02076   0.00000  Uiso   1.00
C1240  C     0.80594   0.53605   0.97924   0.00000  Uiso   1.00
C1241  C     0.69305   0.96599   0.02037   0.00000  Uiso   1.00
C1242  C     0.96596   0.69306   0.97963   0.00000  Uiso   1.00
C1243  C     0.77655   0.52049   0.58143   0.00000  Uiso   1.00
C1244  C     0.53611   0.80590   0.02077   0.00000  Uiso   1.00
C1245  C     0.75000   0.50000   0.35585   0.00000  Uiso   1.00
C1246  C     0.75000   0.50000   0.64419   0.00000  Uiso   1.00
C1247  C     0.50000   0.75000   0.35581   0.00000  Uiso   1.00
C1248  C     0.50000   0.75000   0.64415   0.00000  Uiso   1.00
C1249  C     0.50000   0.75000   0.85585   0.00000  Uiso   1.00
C1250  C     0.50000   0.75000   0.14419   0.00000  Uiso   1.00
C1251  C     0.75000   0.50000   0.85581   0.00000  Uiso   1.00
C1252  C     0.75000   0.50001   0.14415   0.00000  Uiso   1.00
C1253  C     0.67993   0.57007   0.25000   0.00000  Uiso   1.00
C1254  C     0.97944   0.72351   0.41857   0.00000  Uiso   1.00
C1255  C     0.82007   0.92993   0.75000   0.00000  Uiso   1.00
C1256  C     0.92993   0.67993   0.25000   0.00000  Uiso   1.00
C1257  C     0.57007   0.82007   0.75000   0.00000  Uiso   1.00
C1258  C     0.82007   0.92993   0.25000   0.00000  Uiso   1.00
C1259  C     0.67993   0.57007   0.75000   0.00000  Uiso   1.00
C1260  C     0.57007   0.82007   0.25000   0.00000  Uiso   1.00
C1261  C     0.92993   0.67993   0.75000   0.00000  Uiso   1.00
C1262  C     0.67993   0.92993   0.75000   0.00000  Uiso   1.00
C1263  C     0.82007   0.57007   0.25000   0.00000  Uiso   1.00
C1264  C     0.92993   0.82007   0.75000   0.00000  Uiso   1.00
C1265  C     0.52216   0.77522   0.58127   0.00000  Uiso   1.00
C1266  C     0.57007   0.67993   0.25000   0.00000  Uiso   1.00
C1267  C     0.82007   0.57007   0.75000   0.00000  Uiso   1.00
C1268  C     0.67993   0.92993   0.25000   0.00000  Uiso   1.00
C1269  C     0.57007   0.67993   0.75000   0.00000  Uiso   1.00
C1270  C     0.92993   0.82007   0.25000   0.00000  Uiso   1.00
C1271  C     0.62285   0.90389   0.22355   0.00000  Uiso   1.00
C1272  C     0.87715   0.59612   0.77646   0.00000  Uiso   1.00
C1273  C     0.59535   0.62207   0.22462   0.00000  Uiso   1.00
C1274  C     0.90465   0.87793   0.77538   0.00000  Uiso   1.00
C1275  C     0.87715   0.59612   0.22354   0.00000  Uiso   1.00
C1276  C     0.77528   0.52209   0.41873   0.00000  Uiso   1.00
C1277  C     0.62282   0.90391   0.77642   0.00000  Uiso   1.00
C1278  C     0.90465   0.87793   0.22462   0.00000  Uiso   1.00
C1279  C     0.59535   0.62207   0.77538   0.00000  Uiso   1.00
C1280  C     0.62207   0.59535   0.77538   0.00000  Uiso   1.00
C1281  C     0.87793   0.90465   0.22462   0.00000  Uiso   1.00
C1282  C     0.59609   0.87718   0.77642   0.00000  Uiso   1.00
C1283  C     0.90388   0.62285   0.22354   0.00000  Uiso   1.00
C1284  C     0.87793   0.90465   0.77538   0.00000  Uiso   1.00
C1285  C     0.62207   0.59535   0.22462   0.00000  Uiso   1.00
C1286  C     0.90388   0.62285   0.77646   0.00000  Uiso   1.00
C1287  C     0.72344   0.97952   0.58143   0.00000  Uiso   1.00
C1288  C     0.59611   0.87716   0.22355   0.00000  Uiso   1.00
C1289  C     0.87285   0.65388   0.72354   0.00000  Uiso   1.00
C1290  C     0.62716   0.84611   0.27645   0.00000  Uiso   1.00
C1291  C     0.84535   0.87207   0.72462   0.00000  Uiso   1.00
C1292  C     0.65465   0.62793   0.27538   0.00000  Uiso   1.00
C1293  C     0.62718   0.84609   0.72358   0.00000  Uiso   1.00
C1294  C     0.87285   0.65388   0.27646   0.00000  Uiso   1.00
C1295  C     0.65466   0.62793   0.72462   0.00000  Uiso   1.00
C1296  C     0.84535   0.87207   0.27538   0.00000  Uiso   1.00
C1297  C     0.87207   0.84535   0.27538   0.00000  Uiso   1.00
C1298  C     0.77050   0.52654   0.91857   0.00000  Uiso   1.00
C1299  C     0.62793   0.65465   0.72462   0.00000  Uiso   1.00
C1300  C     0.84612   0.62715   0.27646   0.00000  Uiso   1.00
C1301  C     0.65391   0.87282   0.72358   0.00000  Uiso   1.00
C1302  C     0.62793   0.65466   0.27538   0.00000  Uiso   1.00
C1303  C     0.87207   0.84535   0.72462   0.00000  Uiso   1.00
C1304  C     0.65389   0.87285   0.27645   0.00000  Uiso   1.00
C1305  C     0.84612   0.62715   0.72354   0.00000  Uiso   1.00
C1306  C     0.97422   0.72867   0.45895   0.00000  Uiso   1.00
C1307  C     0.52645   0.77042   0.54074   0.00000  Uiso   1.00
C1308  C     0.77049   0.52639   0.45926   0.00000  Uiso   1.00
H1309  H     0.62080   0.92604   0.20281   0.00000  Uiso   1.00
H1310  H     0.88062   0.92743   0.20476   0.00000  Uiso   1.00
H1311  H     0.92920   0.75632   0.85650   0.00000  Uiso   1.00
H1312  H     0.89039   0.73038   0.87160   0.00000  Uiso   1.00
H1313  H     0.94887   0.69303   0.87498   0.00000  Uiso   1.00
H1314  H     0.92311   0.69727   0.91856   0.00000  Uiso   1.00
H1315  H     0.57016   0.73848   0.14364   0.00000  Uiso   1.00
H1316  H     0.58758   0.72995   0.09524   0.00000  Uiso   1.00
H1317  H     0.61079   0.76086   0.12764   0.00000  Uiso   1.00
H1318  H     0.58053   0.79672   0.08158   0.00000  Uiso   1.00
H1319  H     0.55516   0.80280   0.12536   0.00000  Uiso   1.00
H1320  H     0.76166   0.92986   0.85656   0.00000  Uiso   1.00
H1321  H     0.57392   0.87925   0.79713   0.00000  Uiso   1.00
H1322  H     0.76990   0.91224   0.90494   0.00000  Uiso   1.00
H1323  H     0.73906   0.88925   0.87228   0.00000  Uiso   1.00
H1324  H     0.70319   0.91952   0.91840   0.00000  Uiso   1.00
H1325  H     0.69722   0.94487   0.87460   0.00000  Uiso   1.00
H1326  H     0.73714   0.58985   0.09531   0.00000  Uiso   1.00
H1327  H     0.74363   0.57080   0.14335   0.00000  Uiso   1.00
H1328  H     0.76974   0.60957   0.12846   0.00000  Uiso   1.00
H1329  H     0.80699   0.55109   0.12504   0.00000  Uiso   1.00
H1330  H     0.80283   0.57683   0.08145   0.00000  Uiso   1.00
H1331  H     0.58976   0.73702   0.90461   0.00000  Uiso   1.00
H1332  H     0.92602   0.62081   0.20280   0.00000  Uiso   1.00
H1333  H     0.57080   0.74366   0.85654   0.00000  Uiso   1.00
H1334  H     0.60961   0.76965   0.87157   0.00000  Uiso   1.00
H1335  H     0.55112   0.80697   0.87497   0.00000  Uiso   1.00
H1336  H     0.57688   0.80275   0.91855   0.00000  Uiso   1.00
H1337  H     0.92987   0.76176   0.14336   0.00000  Uiso   1.00
H1338  H     0.91221   0.76992   0.09498   0.00000  Uiso   1.00
H1339  H     0.88925   0.73914   0.12772   0.00000  Uiso   1.00
H1340  H     0.91950   0.70322   0.08161   0.00000  Uiso   1.00
H1341  H     0.94484   0.69728   0.12542   0.00000  Uiso   1.00
H1342  H     0.88062   0.92743   0.79524   0.00000  Uiso   1.00
H1343  H     0.61938   0.57257   0.20476   0.00000  Uiso   1.00
H1344  H     0.92603   0.62081   0.79720   0.00000  Uiso   1.00
H1345  H     0.57396   0.87921   0.20282   0.00000  Uiso   1.00
H1346  H     0.87081   0.67602   0.70280   0.00000  Uiso   1.00
H1347  H     0.62921   0.82396   0.29718   0.00000  Uiso   1.00
H1348  H     0.82257   0.86938   0.70476   0.00000  Uiso   1.00
H1349  H     0.87920   0.57397   0.79720   0.00000  Uiso   1.00
H1350  H     0.67743   0.63062   0.29524   0.00000  Uiso   1.00
H1351  H     0.62925   0.82392   0.70287   0.00000  Uiso   1.00
H1352  H     0.87081   0.67602   0.29720   0.00000  Uiso   1.00
H1353  H     0.67743   0.63062   0.70476   0.00000  Uiso   1.00
H1354  H     0.82257   0.86938   0.29524   0.00000  Uiso   1.00
H1355  H     0.86938   0.82257   0.29524   0.00000  Uiso   1.00
H1356  H     0.63062   0.67743   0.70476   0.00000  Uiso   1.00
H1357  H     0.82398   0.62919   0.29721   0.00000  Uiso   1.00
H1358  H     0.67608   0.87075   0.70287   0.00000  Uiso   1.00
H1359  H     0.63062   0.67743   0.29524   0.00000  Uiso   1.00
H1360  H     0.57257   0.61938   0.20476   0.00000  Uiso   1.00
H1361  H     0.86938   0.82257   0.70476   0.00000  Uiso   1.00
H1362  H     0.67604   0.87080   0.29719   0.00000  Uiso   1.00
H1363  H     0.82397   0.62919   0.70280   0.00000  Uiso   1.00
H1364  H     0.90263   0.68158   0.47367   0.00000  Uiso   1.00
H1365  H     0.61009   0.78600   0.52401   0.00000  Uiso   1.00
H1366  H     0.78632   0.60999   0.47601   0.00000  Uiso   1.00
H1367  H     0.68126   0.90286   0.52633   0.00000  Uiso   1.00
H1368  H     0.59738   0.81841   0.47368   0.00000  Uiso   1.00
H1369  H     0.88991   0.71400   0.52400   0.00000  Uiso   1.00
H1370  H     0.71365   0.89003   0.47601   0.00000  Uiso   1.00
H1371  H     0.92743   0.88062   0.79524   0.00000  Uiso   1.00
H1372  H     0.81871   0.59716   0.52633   0.00000  Uiso   1.00
H1373  H     0.65283   0.93131   0.97367   0.00000  Uiso   1.00
H1374  H     0.86001   0.53627   0.02400   0.00000  Uiso   1.00
H1375  H     0.53637   0.85997   0.97601   0.00000  Uiso   1.00
H1376  H     0.93126   0.65286   0.02633   0.00000  Uiso   1.00
H1377  H     0.84720   0.56865   0.97367   0.00000  Uiso   1.00
H1378  H     0.64002   0.96368   0.02401   0.00000  Uiso   1.00
H1379  H     0.96362   0.64003   0.97599   0.00000  Uiso   1.00
H1380  H     0.56875   0.84713   0.02633   0.00000  Uiso   1.00
H1381  H     0.98863   0.82017   0.35647   0.00000  Uiso   1.00
H1382  H     0.87919   0.57398   0.20279   0.00000  Uiso   1.00
H1383  H     0.98029   0.83774   0.40485   0.00000  Uiso   1.00
H1384  H     0.51123   0.86073   0.37230   0.00000  Uiso   1.00
H1385  H     0.54699   0.83037   0.41843   0.00000  Uiso   1.00
H1386  H     0.55297   0.80500   0.37464   0.00000  Uiso   1.00
H1387  H     0.51272   0.66021   0.59542   0.00000  Uiso   1.00
H1388  H     0.50610   0.67919   0.64348   0.00000  Uiso   1.00
H1389  H     0.98002   0.64046   0.62843   0.00000  Uiso   1.00
H1390  H     0.94285   0.69904   0.62499   0.00000  Uiso   1.00
H1391  H     0.94704   0.67327   0.58142   0.00000  Uiso   1.00
H1392  H     0.66015   0.51291   0.40467   0.00000  Uiso   1.00
H1393  H     0.62075   0.92608   0.79712   0.00000  Uiso   1.00
H1394  H     0.67922   0.50642   0.35663   0.00000  Uiso   1.00
H1395  H     0.64043   0.98032   0.37150   0.00000  Uiso   1.00
H1396  H     0.69889   0.94304   0.37496   0.00000  Uiso   1.00
H1397  H     0.67313   0.94722   0.41854   0.00000  Uiso   1.00
H1398  H     0.82014   0.98833   0.64344   0.00000  Uiso   1.00
H1399  H     0.83771   0.98005   0.59505   0.00000  Uiso   1.00
H1400  H     0.86076   0.51087   0.62768   0.00000  Uiso   1.00
H1401  H     0.83050   0.54678   0.58160   0.00000  Uiso   1.00
H1402  H     0.80515   0.55276   0.62540   0.00000  Uiso   1.00
H1403  H     0.51128   0.67982   0.35636   0.00000  Uiso   1.00
H1404  H     0.92743   0.88062   0.20476   0.00000  Uiso   1.00
H1405  H     0.51976   0.66233   0.40475   0.00000  Uiso   1.00
H1406  H     0.98877   0.63926   0.37233   0.00000  Uiso   1.00
H1407  H     0.95304   0.66962   0.41844   0.00000  Uiso   1.00
H1408  H     0.94700   0.69500   0.37466   0.00000  Uiso   1.00
H1409  H     0.98727   0.83977   0.59544   0.00000  Uiso   1.00
H1410  H     0.99392   0.82081   0.64350   0.00000  Uiso   1.00
H1411  H     0.51999   0.85954   0.62842   0.00000  Uiso   1.00
H1412  H     0.55716   0.80096   0.62499   0.00000  Uiso   1.00
H1413  H     0.55296   0.82673   0.58141   0.00000  Uiso   1.00
H1414  H     0.83984   0.98710   0.40470   0.00000  Uiso   1.00
H1415  H     0.57257   0.61938   0.79524   0.00000  Uiso   1.00
H1416  H     0.82078   0.99358   0.35666   0.00000  Uiso   1.00
H1417  H     0.85957   0.51968   0.37153   0.00000  Uiso   1.00
H1418  H     0.80111   0.55696   0.37496   0.00000  Uiso   1.00
H1419  H     0.82685   0.55279   0.41855   0.00000  Uiso   1.00
H1420  H     0.67983   0.51145   0.64369   0.00000  Uiso   1.00
H1421  H     0.66246   0.52006   0.59528   0.00000  Uiso   1.00
H1422  H     0.63921   0.98912   0.62763   0.00000  Uiso   1.00
H1423  H     0.66948   0.95328   0.58158   0.00000  Uiso   1.00
H1424  H     0.69485   0.94718   0.62535   0.00000  Uiso   1.00
H1425  H     0.73833   0.57013   0.85661   0.00000  Uiso   1.00
H1426  H     0.61938   0.57257   0.79524   0.00000  Uiso   1.00
H1427  H     0.73014   0.58779   0.90498   0.00000  Uiso   1.00
H1428  H     0.76097   0.61074   0.87227   0.00000  Uiso   1.00
H1429  H     0.79684   0.58047   0.91840   0.00000  Uiso   1.00
H1430  H     0.80279   0.55512   0.87460   0.00000  Uiso   1.00
H1431  H     0.76321   0.91064   0.09585   0.00000  Uiso   1.00
H1432  H     0.75580   0.92917   0.14400   0.00000  Uiso   1.00
H1433  H     0.73029   0.89032   0.12822   0.00000  Uiso   1.00
H1434  H     0.69287   0.94894   0.12492   0.00000  Uiso   1.00
H1435  H     0.69730   0.92311   0.08139   0.00000  Uiso   1.00
H1436  H     0.91029   0.76303   0.90458   0.00000  Uiso   1.00
O1437  O     0.75000   0.50000   0.25000   0.00000  Uiso   1.00
O1438  O     0.75000   0.96964   0.66245   0.00000  Uiso   1.00
O1439  O     0.96964   0.75000   0.33755   0.00000  Uiso   1.00
O1440  O     0.53037   0.75000   0.66245   0.00000  Uiso   1.00
O1441  O     0.50000   0.71964   0.83755   0.00000  Uiso   1.00
O1442  O     0.50000   0.78037   0.16245   0.00000  Uiso   1.00
O1443  O     0.78037   0.50000   0.83755   0.00000  Uiso   1.00
O1444  O     0.71964   0.50000   0.16245   0.00000  Uiso   1.00
O1445  O     0.50000   0.78037   0.83755   0.00000  Uiso   1.00
O1446  O     0.50000   0.71964   0.16245   0.00000  Uiso   1.00
O1447  O     0.71964   0.50000   0.83755   0.00000  Uiso   1.00
O1448  O     0.75000   0.50000   0.75000   0.00000  Uiso   1.00
O1449  O     0.78037   0.50000   0.16245   0.00000  Uiso   1.00
O1450  O     0.70725   0.57308   0.27302   0.00000  Uiso   1.00
O1451  O     0.79276   0.92693   0.72698   0.00000  Uiso   1.00
O1452  O     0.92693   0.70725   0.27302   0.00000  Uiso   1.00
O1453  O     0.57308   0.79276   0.72698   0.00000  Uiso   1.00
O1454  O     0.79276   0.92693   0.27302   0.00000  Uiso   1.00
O1455  O     0.70725   0.57308   0.72698   0.00000  Uiso   1.00
O1456  O     0.57308   0.79276   0.27302   0.00000  Uiso   1.00
O1457  O     0.92693   0.70725   0.72698   0.00000  Uiso   1.00
O1458  O     0.70725   0.92693   0.72698   0.00000  Uiso   1.00
O1459  O     0.50000   0.75000   0.25000   0.00000  Uiso   1.00
O1460  O     0.79276   0.57308   0.27302   0.00000  Uiso   1.00
O1461  O     0.92693   0.79276   0.72698   0.00000  Uiso   1.00
O1462  O     0.57308   0.70725   0.27302   0.00000  Uiso   1.00
O1463  O     0.79276   0.57308   0.72698   0.00000  Uiso   1.00
O1464  O     0.70725   0.92693   0.27302   0.00000  Uiso   1.00
O1465  O     0.57308   0.70725   0.72698   0.00000  Uiso   1.00
O1466  O     0.92693   0.79276   0.27302   0.00000  Uiso   1.00
O1467  O     0.95725   0.82308   0.77302   0.00000  Uiso   1.00
O1468  O     0.54276   0.67693   0.22698   0.00000  Uiso   1.00
O1469  O     0.67693   0.95725   0.77302   0.00000  Uiso   1.00
O1470  O     0.50000   0.75000   0.75000   0.00000  Uiso   1.00
O1471  O     0.82308   0.54276   0.22698   0.00000  Uiso   1.00
O1472  O     0.54276   0.67693   0.77302   0.00000  Uiso   1.00
O1473  O     0.95725   0.82308   0.22698   0.00000  Uiso   1.00
O1474  O     0.82308   0.54276   0.77302   0.00000  Uiso   1.00
O1475  O     0.67693   0.95725   0.22698   0.00000  Uiso   1.00
O1476  O     0.95725   0.67693   0.22698   0.00000  Uiso   1.00
O1477  O     0.54276   0.82308   0.77302   0.00000  Uiso   1.00
O1478  O     0.67693   0.54276   0.22698   0.00000  Uiso   1.00
O1479  O     0.82308   0.95725   0.77302   0.00000  Uiso   1.00
O1480  O     0.54276   0.82308   0.22698   0.00000  Uiso   1.00
O1481  O     0.75000   0.96964   0.33755   0.00000  Uiso   1.00
O1482  O     0.95725   0.67693   0.77302   0.00000  Uiso   1.00
O1483  O     0.82308   0.95725   0.22698   0.00000  Uiso   1.00
O1484  O     0.67693   0.54276   0.77302   0.00000  Uiso   1.00
O1485  O     0.91433   0.70137   0.45850   0.00000  Uiso   1.00
O1486  O     0.58875   0.79072   0.54092   0.00000  Uiso   1.00
O1487  O     0.79097   0.58864   0.45909   0.00000  Uiso   1.00
O1488  O     0.70109   0.91449   0.54150   0.00000  Uiso   1.00
O1489  O     0.58567   0.79862   0.45850   0.00000  Uiso   1.00
O1490  O     0.91125   0.70927   0.54091   0.00000  Uiso   1.00
O1491  O     0.70901   0.91137   0.45909   0.00000  Uiso   1.00
O1492  O     0.75000   0.53037   0.66245   0.00000  Uiso   1.00
O1493  O     0.79888   0.58553   0.54150   0.00000  Uiso   1.00
O1494  O     0.66446   0.95114   0.95850   0.00000  Uiso   1.00
O1495  O     0.83867   0.54093   0.04091   0.00000  Uiso   1.00
O1496  O     0.54101   0.83862   0.95909   0.00000  Uiso   1.00
O1497  O     0.95110   0.66448   0.04149   0.00000  Uiso   1.00
O1498  O     0.83556   0.54883   0.95850   0.00000  Uiso   1.00
O1499  O     0.66137   0.95902   0.04092   0.00000  Uiso   1.00
O1500  O     0.95898   0.66138   0.95908   0.00000  Uiso   1.00
O1501  O     0.54892   0.83550   0.04150   0.00000  Uiso   1.00
O1502  O     0.53037   0.75000   0.33755   0.00000  Uiso   1.00
O1503  O     0.96964   0.75000   0.66245   0.00000  Uiso   1.00
O1504  O     0.75000   0.53037   0.33755   0.00000  Uiso   1.00
Zn1505 Zn    0.70660   0.50000   0.21735   0.00000  Uiso   1.00
Zn1506 Zn    0.54341   0.75000   0.28265   0.00000  Uiso   1.00
Zn1507 Zn    0.75000   0.95660   0.71735   0.00000  Uiso   1.00
Zn1508 Zn    0.75000   0.54341   0.28265   0.00000  Uiso   1.00
Zn1509 Zn    0.54341   0.75000   0.71735   0.00000  Uiso   1.00
Zn1510 Zn    0.95660   0.75000   0.28265   0.00000  Uiso   1.00
Zn1511 Zn    0.75000   0.54341   0.71735   0.00000  Uiso   1.00
Zn1512 Zn    0.75000   0.95660   0.28265   0.00000  Uiso   1.00
Zn1513 Zn    0.79341   0.50000   0.78265   0.00000  Uiso   1.00
Zn1514 Zn    0.50000   0.70660   0.21735   0.00000  Uiso   1.00
Zn1515 Zn    0.50000   0.79341   0.78265   0.00000  Uiso   1.00
Zn1516 Zn    0.79341   0.50000   0.21735   0.00000  Uiso   1.00
Zn1517 Zn    0.70660   0.50000   0.78265   0.00000  Uiso   1.00
Zn1518 Zn    0.50000   0.79341   0.21735   0.00000  Uiso   1.00
Zn1519 Zn    0.50000   0.70660   0.78265   0.00000  Uiso   1.00
Zn1520 Zn    0.95660   0.75000   0.71735   0.00000  Uiso   1.00
loop_
_geom_bond_atom_site_label_1
_geom_bond_atom_site_label_2
_geom_bond_distance
_geom_bond_site_symmetry_2
_ccdc_geom_bond_type
C1     C43     1.532   .     S
C1     C78     1.415   .     A
C1     C4      1.414   .     A
C2     C14     1.413   .     A
C2     C63     1.533   .     S
C2     C844    1.416   .     S
C3     C147    1.414   .     A
C3     C90     1.415   .     A
C3     C798    1.414   .     S
C4     C34     1.414   .     A
C4     C91     1.415   .     A
C5     C81     1.413   .     A
C5     C93     1.411   .     A
C5     C416    1.412   .     S
C6     C94     1.411   .     A
C6     C92     1.413   .     A
C6     C797    1.412   .     S
C7     C103    1.414   .     A
C7     C38     1.414   .     A
C7     C95     1.415   .     A
C8     C35     1.414   .     A
C8     C96     1.415   .     A
C8     C39     1.414   .     A
C9     C46     1.413   .     A
C9     C97     1.411   .     A
C9     C800    1.412   1_545 S
C10    C41     1.412   .     A
C10    C98     1.411   .     A
C10    C57     1.413   .     A
C11    C99     1.415   .     A
C11    C68     1.414   .     A
C11    C422    1.414   .     S
C12    C158    1.414   .     A
C12    C100    1.415   .     A
C12    C799    1.414   1_545 S
C13    C15     1.413   .     A
C13    C65     1.533   .     S
C13    C465    1.416   .     S
C14    C101    1.411   .     A
C14    C40     1.412   .     A
C15    C102    1.411   .     A
C15    C421    1.412   .     S
C16    C104    1.415   .     A
C16    C24     1.414   .     A
C16    C42     1.414   .     A
C17    C148    1.402   .     A
C17    C120    1.455   .     S
C17    C150    1.402   .     A
C18    C121    1.455   .     S
C18    C149    1.402   .     A
C18    C146    1.402   .     A
C19    C113    1.456   .     S
C19    C145    1.402   .     A
C19    C152    1.402   .     A
C20    C144    1.402   .     A
C20    C151    1.402   .     A
C20    C115    1.456   .     S
C21    C116    1.455   .     S
C21    C143    1.402   .     A
C21    C154    1.402   .     A
C22    C153    1.402   .     A
C22    C117    1.455   .     S
C22    C142    1.402   .     A
C23    C118    1.456   .     S
C23    C141    1.402   .     A
C23    C156    1.402   .     A
C24    C67     1.532   .     S
C24    C86     1.415   .     S
C25    C119    1.456   .     S
C25    C140    1.402   .     A
C25    C155    1.402   .     A
C26    C139    1.402   .     A
C26    C159    1.402   .     A
C26    C129    1.456   .     S
C27    C138    1.402   .     A
C27    C130    1.456   .     S
C27    C157    1.402   .     A
C28    C137    1.402   .     A
C28    C122    1.455   .     S
C28    C161    1.402   .     A
C29    C135    1.402   .     A
C29    C160    1.402   .     A
C29    C123    1.455   .     S
C30    C134    1.402   .     A
C30    C163    1.402   .     A
C30    C124    1.456   .     S
C31    C162    1.402   .     A
C31    C133    1.402   .     A
C31    C126    1.456   .     S
C32    C127    1.455   .     S
C32    C165    1.402   .     A
C32    C132    1.402   .     A
C33    C128    1.455   .     S
C33    C164    1.402   .     A
C33    C131    1.402   .     A
C34    C36     1.405   .     A
C34    C546    1.414   1_455 S
C35    C843    1.415   .     A
C35    C70     1.532   .     S
C36    C167    1.412   .     A
C36    C385    1.412   1_455 S
C37    C168    1.412   .     A
C37    C38     1.405   .     A
C37    C766    1.412   1_545 S
C38    C763    1.414   1_545 S
C39    C772    1.414   .     S
C39    C40     1.405   1_556 S
C40    C769    1.412   .     S
C40    C39     1.405   1_554 S
C41    C395    1.412   1_455 S
C41    C42     1.405   1_556 S
C42    C391    1.414   1_455 S
C42    C41     1.405   1_554 S
C43    H246    1.110   .     S
C43    C44     1.532   .     S
C43    H245    1.105   .     S
C44    H244    1.111   .     S
C44    H621    1.107   1_455 S
C44    H623    1.111   1_455 S
C45    C47     1.531   .     S
C45    C81     1.533   .     S
C45    H251    1.106   .     S
C45    H250    1.109   .     S
C46    C72     1.533   .     S
C46    C84     1.416   .     A
C47    H249    1.111   .     S
C47    H627    1.111   .     S
C47    H628    1.107   .     S
C48    C92     1.533   .     S
C48    H257    1.106   .     S
C48    C49     1.531   .     S
C48    H256    1.109   .     S
C49    H255    1.111   .     S
C49    H1012   1.111   .     S
C49    H1014   1.107   .     S
C50    H261    1.105   .     S
C50    C51     1.532   .     S
C50    H262    1.110   .     S
C50    C103    1.532   .     S
C51    H260    1.111   .     S
C51    H1018   1.107   1_545 S
C51    H1019   1.111   1_545 S
C52    C53     1.532   .     S
C52    C114    1.532   .     S
C52    H267    1.105   .     S
C52    H268    1.110   .     S
C53    H266    1.111   .     S
C53    H643    1.107   .     S
C53    H645    1.111   .     S
C54    C125    1.533   .     S
C54    H272    1.109   .     S
C54    C55     1.531   .     S
C54    H273    1.106   .     S
C55    H271    1.111   .     S
C55    H649    1.111   1_455 S
C55    H650    1.107   1_455 S
C56    C136    1.533   .     S
C56    C58     1.531   .     S
C56    H279    1.106   .     S
C56    H278    1.109   .     S
C57    C85     1.416   .     A
C57    C74     1.533   .     S
C58    H277    1.111   .     S
C58    H1034   1.111   1_545 S
C58    H1036   1.107   1_545 S
C59    H284    1.110   .     S
C59    C60     1.532   .     S
C59    C147    1.532   .     S
C59    H283    1.105   .     S
C60    H282    1.111   .     S
C60    H1040   1.107   .     S
C60    H1041   1.111   .     S
C61    C158    1.532   .     S
C61    C62     1.532   .     S
C61    H290    1.110   .     S
C61    H289    1.105   .     S
C62    H288    1.111   .     S
C62    H287    1.111   .     S
C62    H285    1.107   .     S
C63    H295    1.106   .     S
C63    C64     1.532   .     S
C63    H294    1.109   .     S
C64    H291    1.111   .     S
C64    H293    1.111   .     S
C64    H292    1.107   .     S
C65    H174    1.106   .     S
C65    H173    1.109   .     S
C65    C66     1.531   .     S
C66    H296    1.111   .     S
C66    H171    1.107   .     S
C66    H172    1.111   .     S
C67    H178    1.105   .     S
C67    H179    1.110   .     S
C67    C69     1.532   .     S
C68    C76     1.532   .     S
C68    C466    1.415   .     A
C69    H175    1.107   .     S
C69    H177    1.111   .     S
C69    H176    1.111   .     S
C70    H185    1.110   .     S
C70    H184    1.105   .     S
C70    C71     1.532   .     S
C71    H183    1.111   .     S
C71    H180    1.107   .     S
C71    H182    1.111   .     S
C72    C73     1.531   .     S
C72    H190    1.106   .     S
C72    H189    1.109   .     S
C73    H186    1.111   .     S
C73    H188    1.111   .     S
C73    H187    1.107   .     S
C74    H196    1.106   .     S
C74    H195    1.109   .     S
C74    C75     1.531   .     S
C75    H191    1.111   .     S
C75    H194    1.111   .     S
C75    H193    1.107   .     S
C76    H201    1.110   .     S
C76    C77     1.532   .     S
C76    H200    1.105   .     S
C77    H198    1.111   .     S
C77    H197    1.107   .     S
C77    H199    1.111   .     S
C78    C107    1.458   .     S
C78    C494    1.415   1_455 S
C79    C108    1.460   .     S
C79    C461    1.416   1_455 A
C79    C125    1.416   .     S
C80    C136    1.416   .     A
C80    C105    1.460   .     S
C80    C852    1.416   1_545 S
C81    C459    1.416   .     A
C82    C103    1.415   .     A
C82    C106    1.458   .     S
C82    C907    1.415   1_545 S
C83    C795    1.415   1_545 A
C83    C111    1.458   .     S
C83    C158    1.415   .     S
C84    C112    1.460   .     S
C84    C762    1.416   1_545 S
C85    C109    1.460   .     S
C85    C393    1.416   1_455 S
C86    C110    1.458   .     S
C86    C448    1.415   1_455 A
C87    C93     1.416   .     A
C87    O345    1.381   .     S
C87    C166    1.415   .     A
C88    O346    1.383   .     S
C88    C91     1.416   .     A
C88    C167    1.411   .     A
C89    C95     1.416   .     A
C89    C168    1.411   .     A
C89    O347    1.383   .     S
C90    C94     1.416   .     A
C90    O348    1.381   .     S
C91    O349    1.381   .     S
C92    C840    1.416   .     S
C93    O350    1.383   .     S
C94    O351    1.383   .     S
C95    O353    1.381   .     S
C96    O354    1.381   .     S
C96    C101    1.416   1_556 S
C97    O355    1.383   .     S
C97    C100    1.416   1_554 S
C98    O356    1.383   .     S
C98    C104    1.416   1_556 S
C99    O357    1.381   .     S
C99    C102    1.416   1_554 S
C100   O358    1.381   .     S
C100   C97     1.416   1_556 S
C101   O359    1.383   .     S
C101   C96     1.416   1_554 S
C102   O360    1.383   .     S
C102   C99     1.416   1_556 S
C104   O361    1.381   .     S
C104   C98     1.416   1_554 S
C105   O364    1.279   .     A
C105   O1101   1.279   1_545 S
C106   O1058   1.278   1_545 A
C106   O352    1.278   .     S
C107   O362    1.278   .     A
C107   O679    1.278   1_455 S
C108   O743    1.279   1_455 A
C108   O300    1.279   .     S
C109   O305    1.279   .     A
C109   O301    1.279   .     A
C110   O306    1.278   .     A
C110   O302    1.278   .     S
C111   O303    1.278   .     S
C111   O307    1.278   .     S
C112   O304    1.279   .     S
C112   O309    1.279   .     S
C113   O310    1.281   .     A
C113   O338    1.281   .     A
C114   C166    1.414   .     A
C114   C458    1.415   .     S
C115   O311    1.281   .     A
C115   O339    1.281   .     A
C116   O312    1.281   .     A
C116   O336    1.281   .     A
C117   O337    1.281   .     A
C117   O313    1.281   .     A
C118   O314    1.281   .     A
C118   O343    1.281   .     A
C119   O344    1.281   .     A
C119   O315    1.281   .     A
C120   O316    1.281   .     A
C120   O340    1.281   .     A
C121   O317    1.281   .     A
C121   O342    1.281   .     A
C122   O329    1.281   .     A
C122   O318    1.281   .     A
C123   O331    1.281   .     A
C123   O320    1.281   .     A
C124   O321    1.281   .     A
C124   O327    1.281   .     A
C125   C167    1.413   .     A
C126   O322    1.281   .     A
C126   O328    1.281   .     A
C127   O323    1.281   .     A
C127   O334    1.281   .     A
C128   O335    1.281   .     A
C128   O324    1.281   .     A
C129   O332    1.281   .     A
C129   O325    1.281   .     A
C130   O333    1.281   .     A
C130   O326    1.281   .     A
C131   H169    1.083   .     S
C131   C148    1.386   .     A
C132   H209    1.083   .     S
C132   C146    1.386   .     A
C133   C145    1.386   .     A
C133   H220    1.083   .     S
C134   C144    1.386   .     A
C134   H231    1.083   .     S
C135   C143    1.386   .     A
C135   H242    1.083   .     S
C136   C168    1.413   .     A
C137   C142    1.386   .     A
C137   H253    1.083   .     S
C138   C141    1.386   .     A
C138   H264    1.083   .     S
C139   C140    1.386   .     A
C139   H275    1.083   .     S
C140   H286    1.083   .     S
C141   H170    1.083   .     S
C142   H181    1.083   .     S
C143   H192    1.083   .     S
C144   H202    1.083   .     S
C145   H203    1.083   .     S
C146   H204    1.083   .     S
C147   C842    1.415   .     S
C148   H205    1.083   .     S
C149   H206    1.083   .     S
C149   C165    1.386   .     A
C150   C164    1.386   .     A
C150   H207    1.083   .     S
C151   H208    1.083   .     S
C151   C163    1.386   .     A
C152   H210    1.083   .     S
C152   C162    1.386   .     A
C153   C161    1.386   .     A
C153   H211    1.083   .     S
C154   H212    1.083   .     S
C154   C160    1.386   .     A
C155   C159    1.386   .     A
C155   H213    1.083   .     S
C156   C157    1.386   .     A
C156   H214    1.083   .     S
C157   H215    1.083   .     S
C159   H216    1.083   .     S
C160   H217    1.083   .     S
C161   H218    1.083   .     S
C162   H219    1.083   .     S
C163   H221    1.083   .     S
C164   H222    1.083   .     S
C165   H223    1.083   .     S
C166   C414    1.414   .     S
H224   O345    0.991   .     S
H225   O346    0.990   .     S
H226   O347    0.990   .     S
H227   O348    0.991   .     S
H228   O349    0.991   .     S
H229   O350    0.990   .     S
H230   O351    0.990   .     S
H232   O353    0.991   .     S
H233   O354    0.991   .     S
H234   O355    0.990   .     S
H235   O356    0.990   .     S
H236   O357    0.991   .     S
H237   O358    0.991   .     S
H238   O359    0.990   .     S
H239   O360    0.990   .     S
H240   O361    0.991   .     S
H241   C424    1.107   .     S
H243   C424    1.111   .     S
H247   C427    1.111   1_455 S
H248   C427    1.107   1_455 S
H252   C809    1.111   1_545 S
H254   C809    1.107   1_545 S
H258   C811    1.107   .     S
H259   C811    1.111   .     S
H263   C433    1.107   1_455 S
H265   C433    1.111   1_455 S
H269   C435    1.111   .     S
H270   C435    1.107   .     S
H274   C818    1.111   .     S
H276   C818    1.107   .     S
H280   C820    1.107   1_545 S
H281   C820    1.111   1_545 S
O297   Zn1132  1.948   1_545 S
O297   Zn365   1.947   .     S
O297   Zn368   1.947   .     S
O297   Zn376   1.948   .     S
O298   C866    1.278   .     A
O298   Zn367   1.947   .     S
O299   Zn370   1.947   .     S
O299   C487    1.278   .     S
O300   Zn369   1.947   .     S
O301   Zn379   1.947   .     S
O302   Zn378   1.947   .     S
O303   Zn373   1.947   .     S
O304   Zn365   1.947   .     S
O305   Zn375   1.947   .     S
O306   Zn374   1.947   .     S
O307   Zn377   1.947   .     S
O308   Zn377   1.948   .     S
O308   Zn1127  1.947   1_545 S
O308   Zn373   1.947   .     S
O308   Zn371   1.948   .     S
O309   Zn376   1.947   .     S
O310   Zn368   1.937   .     S
O311   Zn367   1.937   .     S
O312   Zn370   1.937   .     S
O313   Zn369   1.937   .     S
O314   Zn372   1.937   .     S
O315   Zn371   1.937   .     S
O316   Zn366   1.937   .     S
O317   Zn380   1.937   .     S
O318   Zn367   1.937   .     S
O319   Zn366   1.947   .     S
O319   Zn374   1.947   .     S
O319   Zn378   1.948   .     S
O319   Zn750   1.948   1_455 S
O320   Zn368   1.937   .     S
O321   Zn380   1.937   .     S
O322   Zn366   1.937   .     S
O323   Zn371   1.937   .     S
O324   Zn372   1.937   .     S
O325   Zn369   1.937   .     S
O326   Zn370   1.937   .     S
O327   Zn755   1.937   .     S
O328   Zn374   1.937   .     S
O329   Zn1137  1.937   .     S
O330   Zn375   1.947   .     S
O330   Zn760   1.947   1_455 S
O330   Zn369   1.948   .     S
O330   Zn379   1.948   .     S
O331   Zn376   1.937   .     S
O332   Zn379   1.937   .     S
O333   Zn758   1.937   .     S
O334   Zn373   1.937   .     S
O335   Zn1125  1.937   .     S
O336   Zn754   1.937   .     S
O337   Zn375   1.937   .     S
O338   Zn365   1.937   .     S
O339   Zn1133  1.937   .     S
O340   Zn378   1.937   .     S
O341   Zn372   1.947   .     S
O341   C865    1.279   .     S
O342   Zn759   1.937   .     S
O343   Zn1136  1.937   .     S
O344   Zn377   1.937   .     S
O352   Zn371   1.947   .     S
O362   Zn366   1.947   .     S
O363   Zn380   1.947   .     S
O363   C488    1.279   .     A
O364   Zn368   1.947   .     S
Zn365  O1095   1.937   1_545 S
Zn367  O1068   1.947   .     S
Zn370  O699    1.948   .     S
Zn372  O1057   1.948   .     S
Zn373  O1099   1.937   1_545 S
Zn374  O716    1.937   1_455 S
Zn375  O707    1.937   1_455 S
Zn376  O1103   1.937   1_545 S
Zn377  O1089   1.937   1_545 S
Zn378  O713    1.937   1_455 S
Zn379  O722    1.937   1_455 S
Zn380  O710    1.947   .     S
C381   C423    1.532   .     S
C381   C458    1.415   .     A
C381   C384    1.414   .     A
C382   C394    1.413   .     A
C382   C443    1.533   .     S
C382   C1224   1.416   .     S
C383   C527    1.414   .     A
C383   C470    1.415   .     A
C383   C1178   1.414   .     S
C384   C414    1.414   .     A
C384   C471    1.415   .     A
C385   C461    1.413   .     A
C385   C473    1.411   .     A
C385   C36     1.412   1_655 S
C386   C474    1.411   .     A
C386   C472    1.413   .     A
C386   C1177   1.412   .     S
C387   C483    1.414   .     A
C387   C418    1.414   .     A
C387   C475    1.415   .     A
C388   C415    1.414   .     A
C388   C476    1.415   .     A
C388   C419    1.414   .     A
C389   C426    1.413   .     A
C389   C477    1.411   .     A
C389   C1180   1.412   1_545 S
C390   C421    1.412   .     A
C390   C478    1.411   .     A
C390   C437    1.413   .     A
C391   C479    1.415   .     A
C391   C448    1.414   .     A
C391   C42     1.414   1_655 S
C392   C538    1.414   .     A
C392   C480    1.415   .     A
C392   C1179   1.414   1_545 S
C393   C395    1.413   .     A
C393   C445    1.533   .     S
C393   C85     1.416   1_655 S
C394   C481    1.411   .     A
C394   C420    1.412   .     A
C395   C482    1.411   .     A
C395   C41     1.412   1_655 S
C396   C484    1.415   .     A
C396   C404    1.414   .     A
C396   C422    1.414   .     A
C397   C528    1.402   .     A
C397   C500    1.455   .     S
C397   C530    1.402   .     A
C398   C501    1.455   .     S
C398   C529    1.402   .     A
C398   C526    1.402   .     A
C399   C493    1.456   .     S
C399   C525    1.402   .     A
C399   C532    1.402   .     A
C400   C524    1.402   .     A
C400   C531    1.402   .     A
C400   C495    1.456   .     S
C401   C496    1.455   .     S
C401   C523    1.402   .     A
C401   C534    1.402   .     A
C402   C533    1.402   .     A
C402   C497    1.455   .     S
C402   C522    1.402   .     A
C403   C498    1.456   .     S
C403   C521    1.402   .     A
C403   C536    1.402   .     A
C404   C447    1.532   .     S
C404   C466    1.415   .     S
C405   C499    1.456   .     S
C405   C520    1.402   .     A
C405   C535    1.402   .     A
C406   C519    1.402   .     A
C406   C539    1.402   .     A
C406   C509    1.456   .     S
C407   C518    1.402   .     A
C407   C510    1.456   .     S
C407   C537    1.402   .     A
C408   C517    1.402   .     A
C408   C502    1.455   .     S
C408   C541    1.402   .     A
C409   C515    1.402   .     A
C409   C540    1.402   .     A
C409   C503    1.455   .     S
C410   C514    1.402   .     A
C410   C543    1.402   .     A
C410   C504    1.456   .     S
C411   C542    1.402   .     A
C411   C513    1.402   .     A
C411   C506    1.456   .     S
C412   C507    1.455   .     S
C412   C545    1.402   .     A
C412   C512    1.402   .     A
C413   C508    1.455   .     S
C413   C544    1.402   .     A
C413   C511    1.402   .     A
C414   C416    1.405   .     A
C415   C1223   1.415   .     A
C415   C450    1.532   .     S
C416   C547    1.412   .     A
C417   C548    1.412   .     A
C417   C418    1.405   .     A
C417   C1146   1.412   1_545 S
C418   C1143   1.414   1_545 S
C419   C1152   1.414   .     S
C419   C420    1.405   1_556 S
C420   C1149   1.412   .     S
C420   C419    1.405   1_554 S
C421   C422    1.405   1_556 S
C422   C421    1.405   1_554 S
C423   H626    1.110   .     S
C423   C424    1.532   .     S
C423   H625    1.105   .     S
C424   H624    1.111   .     S
C425   C427    1.531   .     S
C425   C461    1.533   .     S
C425   H631    1.106   .     S
C425   H630    1.109   .     S
C426   C452    1.533   .     S
C426   C464    1.416   .     A
C427   H629    1.111   .     S
C427   H247    1.111   1_655 S
C427   H248    1.107   1_655 S
C428   C472    1.533   .     S
C428   H637    1.106   .     S
C428   C429    1.531   .     S
C428   H636    1.109   .     S
C429   H635    1.111   .     S
C429   H1392   1.111   .     S
C429   H1394   1.107   .     S
C430   H641    1.105   .     S
C430   C431    1.532   .     S
C430   H642    1.110   .     S
C430   C483    1.532   .     S
C431   H640    1.111   .     S
C431   H1398   1.107   1_545 S
C431   H1399   1.111   1_545 S
C432   C433    1.532   .     S
C432   C494    1.532   .     S
C432   H647    1.105   .     S
C432   H648    1.110   .     S
C433   H646    1.111   .     S
C433   H263    1.107   1_655 S
C433   H265    1.111   1_655 S
C434   C505    1.533   .     S
C434   H652    1.109   .     S
C434   C435    1.531   .     S
C434   H653    1.106   .     S
C435   H651    1.111   .     S
C436   C516    1.533   .     S
C436   C438    1.531   .     S
C436   H659    1.106   .     S
C436   H658    1.109   .     S
C437   C465    1.416   .     A
C437   C454    1.533   .     S
C438   H657    1.111   .     S
C438   H1414   1.111   1_545 S
C438   H1416   1.107   1_545 S
C439   H664    1.110   .     S
C439   C440    1.532   .     S
C439   C527    1.532   .     S
C439   H663    1.105   .     S
C440   H662    1.111   .     S
C440   H1420   1.107   .     S
C440   H1421   1.111   .     S
C441   C538    1.532   .     S
C441   C442    1.532   .     S
C441   H670    1.110   .     S
C441   H669    1.105   .     S
C442   H668    1.111   .     S
C442   H667    1.111   .     S
C442   H665    1.107   .     S
C443   H675    1.106   .     S
C443   C444    1.532   .     S
C443   H674    1.109   .     S
C444   H671    1.111   .     S
C444   H673    1.111   .     S
C444   H672    1.107   .     S
C445   H554    1.106   .     S
C445   H553    1.109   .     S
C445   C446    1.531   .     S
C446   H676    1.111   .     S
C446   H551    1.107   .     S
C446   H552    1.111   .     S
C447   H558    1.105   .     S
C447   H559    1.110   .     S
C447   C449    1.532   .     S
C448   C456    1.532   .     S
C448   C86     1.415   1_655 A
C449   H555    1.107   .     S
C449   H557    1.111   .     S
C449   H556    1.111   .     S
C450   H565    1.110   .     S
C450   H564    1.105   .     S
C450   C451    1.532   .     S
C451   H563    1.111   .     S
C451   H560    1.107   .     S
C451   H562    1.111   .     S
C452   C453    1.531   .     S
C452   H570    1.106   .     S
C452   H569    1.109   .     S
C453   H566    1.111   .     S
C453   H568    1.111   .     S
C453   H567    1.107   .     S
C454   H576    1.106   .     S
C454   H575    1.109   .     S
C454   C455    1.531   .     S
C455   H571    1.111   .     S
C455   H574    1.111   .     S
C455   H573    1.107   .     S
C456   H581    1.110   .     S
C456   C457    1.532   .     S
C456   H580    1.105   .     S
C457   H578    1.111   .     S
C457   H577    1.107   .     S
C457   H579    1.111   .     S
C458   C487    1.458   .     S
C459   C488    1.460   .     S
C459   C505    1.416   .     S
C460   C516    1.416   .     A
C460   C485    1.460   .     S
C460   C1232   1.416   1_545 S
C461   C79     1.416   1_655 A
C462   C483    1.415   .     A
C462   C486    1.458   .     S
C462   C1287   1.415   1_545 S
C463   C1175   1.415   1_545 A
C463   C491    1.458   .     S
C463   C538    1.415   .     S
C464   C492    1.460   .     S
C464   C1142   1.416   1_545 S
C465   C489    1.460   .     S
C466   C490    1.458   .     S
C467   C473    1.416   .     A
C467   O725    1.381   .     S
C467   C546    1.415   .     A
C468   O726    1.383   .     S
C468   C471    1.416   .     A
C468   C547    1.411   .     A
C469   C475    1.416   .     A
C469   C548    1.411   .     A
C469   O727    1.383   .     S
C470   C474    1.416   .     A
C470   O728    1.381   .     S
C471   O729    1.381   .     S
C472   C1220   1.416   .     S
C473   O730    1.383   .     S
C474   O731    1.383   .     S
C475   O733    1.381   .     S
C476   O734    1.381   .     S
C476   C481    1.416   1_556 S
C477   O735    1.383   .     S
C477   C480    1.416   1_554 S
C478   O736    1.383   .     S
C478   C484    1.416   1_556 S
C479   O737    1.381   .     S
C479   C482    1.416   1_554 S
C480   O738    1.381   .     S
C480   C477    1.416   1_556 S
C481   O739    1.383   .     S
C481   C476    1.416   1_554 S
C482   O740    1.383   .     S
C482   C479    1.416   1_556 S
C484   O741    1.381   .     S
C484   C478    1.416   1_554 S
C485   O744    1.279   .     A
C485   O1481   1.279   1_545 S
C486   O1438   1.278   1_545 A
C486   O732    1.278   .     S
C487   O742    1.278   .     A
C488   O680    1.279   .     S
C489   O685    1.279   .     A
C489   O681    1.279   .     A
C490   O686    1.278   .     A
C490   O682    1.278   .     S
C491   O683    1.278   .     S
C491   O687    1.278   .     S
C492   O684    1.279   .     S
C492   O689    1.279   .     S
C493   O690    1.281   .     A
C493   O718    1.281   .     A
C494   C546    1.414   .     A
C494   C78     1.415   1_655 S
C495   O691    1.281   .     A
C495   O719    1.281   .     A
C496   O692    1.281   .     A
C496   O716    1.281   .     A
C497   O717    1.281   .     A
C497   O693    1.281   .     A
C498   O694    1.281   .     A
C498   O723    1.281   .     A
C499   O724    1.281   .     A
C499   O695    1.281   .     A
C500   O696    1.281   .     A
C500   O720    1.281   .     A
C501   O697    1.281   .     A
C501   O722    1.281   .     A
C502   O709    1.281   .     A
C502   O698    1.281   .     A
C503   O711    1.281   .     A
C503   O700    1.281   .     A
C504   O701    1.281   .     A
C504   O707    1.281   .     A
C505   C547    1.413   .     A
C506   O702    1.281   .     A
C506   O708    1.281   .     A
C507   O703    1.281   .     A
C507   O714    1.281   .     A
C508   O715    1.281   .     A
C508   O704    1.281   .     A
C509   O712    1.281   .     A
C509   O705    1.281   .     A
C510   O713    1.281   .     A
C510   O706    1.281   .     A
C511   H549    1.083   .     S
C511   C528    1.386   .     A
C512   H589    1.083   .     S
C512   C526    1.386   .     A
C513   C525    1.386   .     A
C513   H600    1.083   .     S
C514   C524    1.386   .     A
C514   H611    1.083   .     S
C515   C523    1.386   .     A
C515   H622    1.083   .     S
C516   C548    1.413   .     A
C517   C522    1.386   .     A
C517   H633    1.083   .     S
C518   C521    1.386   .     A
C518   H644    1.083   .     S
C519   C520    1.386   .     A
C519   H655    1.083   .     S
C520   H666    1.083   .     S
C521   H550    1.083   .     S
C522   H561    1.083   .     S
C523   H572    1.083   .     S
C524   H582    1.083   .     S
C525   H583    1.083   .     S
C526   H584    1.083   .     S
C527   C1222   1.415   .     S
C528   H585    1.083   .     S
C529   H586    1.083   .     S
C529   C545    1.386   .     A
C530   C544    1.386   .     A
C530   H587    1.083   .     S
C531   H588    1.083   .     S
C531   C543    1.386   .     A
C532   H590    1.083   .     S
C532   C542    1.386   .     A
C533   C541    1.386   .     A
C533   H591    1.083   .     S
C534   H592    1.083   .     S
C534   C540    1.386   .     A
C535   C539    1.386   .     A
C535   H593    1.083   .     S
C536   C537    1.386   .     A
C536   H594    1.083   .     S
C537   H595    1.083   .     S
C539   H596    1.083   .     S
C540   H597    1.083   .     S
C541   H598    1.083   .     S
C542   H599    1.083   .     S
C543   H601    1.083   .     S
C544   H602    1.083   .     S
C545   H603    1.083   .     S
C546   C34     1.414   1_655 S
H604   O725    0.991   .     S
H605   O726    0.990   .     S
H606   O727    0.990   .     S
H607   O728    0.991   .     S
H608   O729    0.991   .     S
H609   O730    0.990   .     S
H610   O731    0.990   .     S
H612   O733    0.991   .     S
H613   O734    0.991   .     S
H614   O735    0.990   .     S
H615   O736    0.990   .     S
H616   O737    0.991   .     S
H617   O738    0.991   .     S
H618   O739    0.990   .     S
H619   O740    0.990   .     S
H620   O741    0.991   .     S
H621   C44     1.107   1_655 S
H623   C44     1.111   1_655 S
H632   C1189   1.111   1_545 S
H634   C1189   1.107   1_545 S
H638   C1191   1.107   .     S
H639   C1191   1.111   .     S
H649   C55     1.111   1_655 S
H650   C55     1.107   1_655 S
H654   C1198   1.111   .     S
H656   C1198   1.107   .     S
H660   C1200   1.107   1_545 S
H661   C1200   1.111   1_545 S
O677   Zn1512  1.948   1_545 S
O677   Zn745   1.947   .     S
O677   Zn748   1.947   .     S
O677   Zn756   1.948   .     S
O678   C1246   1.278   .     A
O678   Zn747   1.947   .     S
O679   Zn750   1.947   .     S
O679   C107    1.278   1_655 S
O680   Zn749   1.947   .     S
O681   Zn759   1.947   .     S
O682   Zn758   1.947   .     S
O683   Zn753   1.947   .     S
O684   Zn745   1.947   .     S
O685   Zn755   1.947   .     S
O686   Zn754   1.947   .     S
O687   Zn757   1.947   .     S
O688   Zn757   1.948   .     S
O688   Zn1507  1.947   1_545 S
O688   Zn753   1.947   .     S
O688   Zn751   1.948   .     S
O689   Zn756   1.947   .     S
O690   Zn748   1.937   .     S
O691   Zn747   1.937   .     S
O692   Zn750   1.937   .     S
O693   Zn749   1.937   .     S
O694   Zn752   1.937   .     S
O695   Zn751   1.937   .     S
O696   Zn746   1.937   .     S
O697   Zn760   1.937   .     S
O698   Zn747   1.937   .     S
O699   Zn746   1.947   .     S
O699   Zn754   1.947   .     S
O699   Zn758   1.948   .     S
O700   Zn748   1.937   .     S
O701   Zn760   1.937   .     S
O702   Zn746   1.937   .     S
O703   Zn751   1.937   .     S
O704   Zn752   1.937   .     S
O705   Zn749   1.937   .     S
O706   Zn750   1.937   .     S
O707   Zn375   1.937   1_655 S
O708   Zn754   1.937   .     S
O709   Zn1517  1.937   .     S
O710   Zn755   1.947   .     S
O710   Zn749   1.948   .     S
O710   Zn759   1.948   .     S
O711   Zn756   1.937   .     S
O712   Zn759   1.937   .     S
O713   Zn378   1.937   1_655 S
O714   Zn753   1.937   .     S
O715   Zn1505  1.937   .     S
O716   Zn374   1.937   1_655 S
O717   Zn755   1.937   .     S
O718   Zn745   1.937   .     S
O719   Zn1513  1.937   .     S
O720   Zn758   1.937   .     S
O721   Zn752   1.947   .     S
O721   C1245   1.279   .     S
O722   Zn379   1.937   1_655 S
O723   Zn1516  1.937   .     S
O724   Zn757   1.937   .     S
O732   Zn751   1.947   .     S
O742   Zn746   1.947   .     S
O743   Zn760   1.947   .     S
O743   C108    1.279   1_655 A
O744   Zn748   1.947   .     S
Zn745  O1475   1.937   1_545 S
Zn747  O1448   1.947   .     S
Zn750  O319    1.948   1_655 S
Zn752  O1437   1.948   .     S
Zn753  O1479   1.937   1_545 S
Zn756  O1483   1.937   1_545 S
Zn757  O1469   1.937   1_545 S
Zn760  O330    1.947   1_655 S
C761   C803    1.532   .     S
C761   C838    1.415   .     A
C761   C764    1.414   .     A
C762   C774    1.413   .     A
C762   C823    1.533   .     S
C762   C84     1.416   1_565 S
C763   C907    1.414   .     A
C763   C850    1.415   .     A
C763   C38     1.414   1_565 S
C764   C794    1.414   .     A
C764   C851    1.415   .     A
C765   C841    1.413   .     A
C765   C853    1.411   .     A
C765   C1176   1.412   .     S
C766   C854    1.411   .     A
C766   C852    1.413   .     A
C766   C37     1.412   1_565 S
C767   C863    1.414   .     A
C767   C798    1.414   .     A
C767   C855    1.415   .     A
C768   C795    1.414   .     A
C768   C856    1.415   .     A
C768   C799    1.414   .     A
C769   C806    1.413   .     A
C769   C857    1.411   .     A
C770   C801    1.412   .     A
C770   C858    1.411   .     A
C770   C817    1.413   .     A
C771   C859    1.415   .     A
C771   C828    1.414   .     A
C771   C1182   1.414   .     S
C772   C918    1.414   .     A
C772   C860    1.415   .     A
C773   C775    1.413   .     A
C773   C825    1.533   .     S
C773   C1225   1.416   .     S
C774   C861    1.411   .     A
C774   C800    1.412   .     A
C775   C862    1.411   .     A
C775   C1181   1.412   .     S
C776   C864    1.415   .     A
C776   C784    1.414   .     A
C776   C802    1.414   .     A
C777   C908    1.402   .     A
C777   C880    1.455   .     S
C777   C910    1.402   .     A
C778   C881    1.455   .     S
C778   C909    1.402   .     A
C778   C906    1.402   .     A
C779   C873    1.456   .     S
C779   C905    1.402   .     A
C779   C912    1.402   .     A
C780   C904    1.402   .     A
C780   C911    1.402   .     A
C780   C875    1.456   .     S
C781   C876    1.455   .     S
C781   C903    1.402   .     A
C781   C914    1.402   .     A
C782   C913    1.402   .     A
C782   C877    1.455   .     S
C782   C902    1.402   .     A
C783   C878    1.456   .     S
C783   C901    1.402   .     A
C783   C916    1.402   .     A
C784   C827    1.532   .     S
C784   C846    1.415   .     S
C785   C879    1.456   .     S
C785   C900    1.402   .     A
C785   C915    1.402   .     A
C786   C899    1.402   .     A
C786   C919    1.402   .     A
C786   C889    1.456   .     S
C787   C898    1.402   .     A
C787   C890    1.456   .     S
C787   C917    1.402   .     A
C788   C897    1.402   .     A
C788   C882    1.455   .     S
C788   C921    1.402   .     A
C789   C895    1.402   .     A
C789   C920    1.402   .     A
C789   C883    1.455   .     S
C790   C894    1.402   .     A
C790   C923    1.402   .     A
C790   C884    1.456   .     S
C791   C922    1.402   .     A
C791   C893    1.402   .     A
C791   C886    1.456   .     S
C792   C887    1.455   .     S
C792   C925    1.402   .     A
C792   C892    1.402   .     A
C793   C888    1.455   .     S
C793   C924    1.402   .     A
C793   C891    1.402   .     A
C794   C796    1.405   .     A
C794   C1306   1.414   1_455 S
C795   C83     1.415   1_565 A
C795   C830    1.532   .     S
C796   C927    1.412   .     A
C796   C1145   1.412   1_455 S
C797   C928    1.412   .     A
C797   C798    1.405   .     A
C799   C12     1.414   1_565 S
C799   C800    1.405   1_556 S
C800   C9      1.412   1_565 S
C800   C799    1.405   1_554 S
C801   C1155   1.412   1_455 S
C801   C802    1.405   1_556 S
C802   C1151   1.414   1_455 S
C802   C801    1.405   1_554 S
C803   H1006   1.110   .     S
C803   C804    1.532   .     S
C803   H1005   1.105   .     S
C804   H1004   1.111   .     S
C804   H1381   1.107   1_455 S
C804   H1383   1.111   1_455 S
C805   C807    1.531   .     S
C805   C841    1.533   .     S
C805   H1011   1.106   .     S
C805   H1010   1.109   .     S
C806   C832    1.533   .     S
C806   C844    1.416   .     A
C807   H1009   1.111   .     S
C807   H1387   1.111   .     S
C807   H1388   1.107   .     S
C808   C852    1.533   .     S
C808   H1017   1.106   .     S
C808   C809    1.531   .     S
C808   H1016   1.109   .     S
C809   H1015   1.111   .     S
C809   H252    1.111   1_565 S
C809   H254    1.107   1_565 S
C810   H1021   1.105   .     S
C810   C811    1.532   .     S
C810   H1022   1.110   .     S
C810   C863    1.532   .     S
C811   H1020   1.111   .     S
C812   C813    1.532   .     S
C812   C874    1.532   .     S
C812   H1027   1.105   .     S
C812   H1028   1.110   .     S
C813   H1026   1.111   .     S
C813   H1403   1.107   .     S
C813   H1405   1.111   .     S
C814   C885    1.533   .     S
C814   H1032   1.109   .     S
C814   C815    1.531   .     S
C814   H1033   1.106   .     S
C815   H1031   1.111   .     S
C815   H1409   1.111   1_455 S
C815   H1410   1.107   1_455 S
C816   C896    1.533   .     S
C816   C818    1.531   .     S
C816   H1039   1.106   .     S
C816   H1038   1.109   .     S
C817   C845    1.416   .     A
C817   C834    1.533   .     S
C818   H1037   1.111   .     S
C819   H1044   1.110   .     S
C819   C820    1.532   .     S
C819   C907    1.532   .     S
C819   H1043   1.105   .     S
C820   H1042   1.111   .     S
C820   H280    1.107   1_565 S
C820   H281    1.111   1_565 S
C821   C918    1.532   .     S
C821   C822    1.532   .     S
C821   H1050   1.110   .     S
C821   H1049   1.105   .     S
C822   H1048   1.111   .     S
C822   H1047   1.111   .     S
C822   H1045   1.107   .     S
C823   H1055   1.106   .     S
C823   C824    1.532   .     S
C823   H1054   1.109   .     S
C824   H1051   1.111   .     S
C824   H1053   1.111   .     S
C824   H1052   1.107   .     S
C825   H934    1.106   .     S
C825   H933    1.109   .     S
C825   C826    1.531   .     S
C826   H1056   1.111   .     S
C826   H931    1.107   .     S
C826   H932    1.111   .     S
C827   H938    1.105   .     S
C827   H939    1.110   .     S
C827   C829    1.532   .     S
C828   C836    1.532   .     S
C828   C1226   1.415   .     A
C829   H935    1.107   .     S
C829   H937    1.111   .     S
C829   H936    1.111   .     S
C830   H945    1.110   .     S
C830   H944    1.105   .     S
C830   C831    1.532   .     S
C831   H943    1.111   .     S
C831   H940    1.107   .     S
C831   H942    1.111   .     S
C832   C833    1.531   .     S
C832   H950    1.106   .     S
C832   H949    1.109   .     S
C833   H946    1.111   .     S
C833   H948    1.111   .     S
C833   H947    1.107   .     S
C834   H956    1.106   .     S
C834   H955    1.109   .     S
C834   C835    1.531   .     S
C835   H951    1.111   .     S
C835   H954    1.111   .     S
C835   H953    1.107   .     S
C836   H961    1.110   .     S
C836   C837    1.532   .     S
C836   H960    1.105   .     S
C837   H958    1.111   .     S
C837   H957    1.107   .     S
C837   H959    1.111   .     S
C838   C867    1.458   .     S
C838   C1254   1.415   1_455 S
C839   C868    1.460   .     S
C839   C1221   1.416   1_455 A
C839   C885    1.416   .     S
C840   C896    1.416   .     A
C840   C865    1.460   .     S
C841   C1219   1.416   .     A
C842   C863    1.415   .     A
C842   C866    1.458   .     S
C843   C871    1.458   .     S
C843   C918    1.415   .     S
C844   C872    1.460   .     S
C845   C869    1.460   .     S
C845   C1153   1.416   1_455 S
C846   C870    1.458   .     S
C846   C1208   1.415   1_455 A
C847   C853    1.416   .     A
C847   O1105   1.381   .     S
C847   C926    1.415   .     A
C848   O1106   1.383   .     S
C848   C851    1.416   .     A
C848   C927    1.411   .     A
C849   C855    1.416   .     A
C849   C928    1.411   .     A
C849   O1107   1.383   .     S
C850   C854    1.416   .     A
C850   O1108   1.381   .     S
C851   O1109   1.381   .     S
C852   C80     1.416   1_565 S
C853   O1110   1.383   .     S
C854   O1111   1.383   .     S
C855   O1113   1.381   .     S
C856   O1114   1.381   .     S
C856   C861    1.416   1_556 S
C857   O1115   1.383   .     S
C857   C860    1.416   1_554 S
C858   O1116   1.383   .     S
C858   C864    1.416   1_556 S
C859   O1117   1.381   .     S
C859   C862    1.416   1_554 S
C860   O1118   1.381   .     S
C860   C857    1.416   1_556 S
C861   O1119   1.383   .     S
C861   C856    1.416   1_554 S
C862   O1120   1.383   .     S
C862   C859    1.416   1_556 S
C864   O1121   1.381   .     S
C864   C858    1.416   1_554 S
C865   O1124   1.279   .     A
C866   O1112   1.278   .     S
C867   O1122   1.278   .     A
C867   O1439   1.278   1_455 S
C868   O1503   1.279   1_455 A
C868   O1060   1.279   .     S
C869   O1065   1.279   .     A
C869   O1061   1.279   .     A
C870   O1066   1.278   .     A
C870   O1062   1.278   .     S
C871   O1063   1.278   .     S
C871   O1067   1.278   .     S
C872   O1064   1.279   .     S
C872   O1069   1.279   .     S
C873   O1070   1.281   .     A
C873   O1098   1.281   .     A
C874   C926    1.414   .     A
C874   C1218   1.415   .     S
C875   O1071   1.281   .     A
C875   O1099   1.281   .     A
C876   O1072   1.281   .     A
C876   O1096   1.281   .     A
C877   O1097   1.281   .     A
C877   O1073   1.281   .     A
C878   O1074   1.281   .     A
C878   O1103   1.281   .     A
C879   O1104   1.281   .     A
C879   O1075   1.281   .     A
C880   O1076   1.281   .     A
C880   O1100   1.281   .     A
C881   O1077   1.281   .     A
C881   O1102   1.281   .     A
C882   O1089   1.281   .     A
C882   O1078   1.281   .     A
C883   O1091   1.281   .     A
C883   O1080   1.281   .     A
C884   O1081   1.281   .     A
C884   O1087   1.281   .     A
C885   C927    1.413   .     A
C886   O1082   1.281   .     A
C886   O1088   1.281   .     A
C887   O1083   1.281   .     A
C887   O1094   1.281   .     A
C888   O1095   1.281   .     A
C888   O1084   1.281   .     A
C889   O1092   1.281   .     A
C889   O1085   1.281   .     A
C890   O1093   1.281   .     A
C890   O1086   1.281   .     A
C891   H929    1.083   .     S
C891   C908    1.386   .     A
C892   H969    1.083   .     S
C892   C906    1.386   .     A
C893   C905    1.386   .     A
C893   H980    1.083   .     S
C894   C904    1.386   .     A
C894   H991    1.083   .     S
C895   C903    1.386   .     A
C895   H1002   1.083   .     S
C896   C928    1.413   .     A
C897   C902    1.386   .     A
C897   H1013   1.083   .     S
C898   C901    1.386   .     A
C898   H1024   1.083   .     S
C899   C900    1.386   .     A
C899   H1035   1.083   .     S
C900   H1046   1.083   .     S
C901   H930    1.083   .     S
C902   H941    1.083   .     S
C903   H952    1.083   .     S
C904   H962    1.083   .     S
C905   H963    1.083   .     S
C906   H964    1.083   .     S
C907   C82     1.415   1_565 S
C908   H965    1.083   .     S
C909   H966    1.083   .     S
C909   C925    1.386   .     A
C910   C924    1.386   .     A
C910   H967    1.083   .     S
C911   H968    1.083   .     S
C911   C923    1.386   .     A
C912   H970    1.083   .     S
C912   C922    1.386   .     A
C913   C921    1.386   .     A
C913   H971    1.083   .     S
C914   H972    1.083   .     S
C914   C920    1.386   .     A
C915   C919    1.386   .     A
C915   H973    1.083   .     S
C916   C917    1.386   .     A
C916   H974    1.083   .     S
C917   H975    1.083   .     S
C919   H976    1.083   .     S
C920   H977    1.083   .     S
C921   H978    1.083   .     S
C922   H979    1.083   .     S
C923   H981    1.083   .     S
C924   H982    1.083   .     S
C925   H983    1.083   .     S
C926   C1174   1.414   .     S
H984   O1105   0.991   .     S
H985   O1106   0.990   .     S
H986   O1107   0.990   .     S
H987   O1108   0.991   .     S
H988   O1109   0.991   .     S
H989   O1110   0.990   .     S
H990   O1111   0.990   .     S
H992   O1113   0.991   .     S
H993   O1114   0.991   .     S
H994   O1115   0.990   .     S
H995   O1116   0.990   .     S
H996   O1117   0.991   .     S
H997   O1118   0.991   .     S
H998   O1119   0.990   .     S
H999   O1120   0.990   .     S
H1000  O1121   0.991   .     S
H1001  C1184   1.107   .     S
H1003  C1184   1.111   .     S
H1007  C1187   1.111   1_455 S
H1008  C1187   1.107   1_455 S
H1018  C51     1.107   1_565 S
H1019  C51     1.111   1_565 S
H1023  C1193   1.107   1_455 S
H1025  C1193   1.111   1_455 S
H1029  C1195   1.111   .     S
H1030  C1195   1.107   .     S
H1034  C58     1.111   1_565 S
H1036  C58     1.107   1_565 S
O1057  Zn1125  1.947   .     S
O1057  Zn1128  1.947   .     S
O1057  Zn1136  1.948   .     S
O1058  C106    1.278   1_565 A
O1058  Zn1127  1.947   .     S
O1059  Zn1130  1.947   .     S
O1059  C1247   1.278   .     S
O1060  Zn1129  1.947   .     S
O1061  Zn1139  1.947   .     S
O1062  Zn1138  1.947   .     S
O1063  Zn1133  1.947   .     S
O1064  Zn1125  1.947   .     S
O1065  Zn1135  1.947   .     S
O1066  Zn1134  1.947   .     S
O1067  Zn1137  1.947   .     S
O1068  Zn1137  1.948   .     S
O1068  Zn1133  1.947   .     S
O1068  Zn1131  1.948   .     S
O1069  Zn1136  1.947   .     S
O1070  Zn1128  1.937   .     S
O1071  Zn1127  1.937   .     S
O1072  Zn1130  1.937   .     S
O1073  Zn1129  1.937   .     S
O1074  Zn1132  1.937   .     S
O1075  Zn1131  1.937   .     S
O1076  Zn1126  1.937   .     S
O1077  Zn1140  1.937   .     S
O1078  Zn1127  1.937   .     S
O1079  Zn1126  1.947   .     S
O1079  Zn1134  1.947   .     S
O1079  Zn1138  1.948   .     S
O1079  Zn1510  1.948   1_455 S
O1080  Zn1128  1.937   .     S
O1081  Zn1140  1.937   .     S
O1082  Zn1126  1.937   .     S
O1083  Zn1131  1.937   .     S
O1084  Zn1132  1.937   .     S
O1085  Zn1129  1.937   .     S
O1086  Zn1130  1.937   .     S
O1087  Zn1515  1.937   .     S
O1088  Zn1134  1.937   .     S
O1089  Zn377   1.937   1_565 S
O1090  Zn1135  1.947   .     S
O1090  Zn1520  1.947   1_455 S
O1090  Zn1129  1.948   .     S
O1090  Zn1139  1.948   .     S
O1091  Zn1136  1.937   .     S
O1092  Zn1139  1.937   .     S
O1093  Zn1518  1.937   .     S
O1094  Zn1133  1.937   .     S
O1095  Zn365   1.937   1_565 S
O1096  Zn1514  1.937   .     S
O1097  Zn1135  1.937   .     S
O1098  Zn1125  1.937   .     S
O1099  Zn373   1.937   1_565 S
O1100  Zn1138  1.937   .     S
O1101  Zn1132  1.947   .     S
O1101  C105    1.279   1_565 S
O1102  Zn1519  1.937   .     S
O1103  Zn376   1.937   1_565 S
O1104  Zn1137  1.937   .     S
O1112  Zn1131  1.947   .     S
O1122  Zn1126  1.947   .     S
O1123  Zn1140  1.947   .     S
O1123  C1248   1.279   .     A
O1124  Zn1128  1.947   .     S
Zn1127 O308    1.947   1_565 S
Zn1130 O1459   1.948   .     S
Zn1132 O297    1.948   1_565 S
Zn1134 O1476   1.937   1_455 S
Zn1135 O1467   1.937   1_455 S
Zn1138 O1473   1.937   1_455 S
Zn1139 O1482   1.937   1_455 S
Zn1140 O1470   1.947   .     S
C1141  C1183   1.532   .     S
C1141  C1218   1.415   .     A
C1141  C1144   1.414   .     A
C1142  C1154   1.413   .     A
C1142  C1203   1.533   .     S
C1142  C464    1.416   1_565 S
C1143  C1287   1.414   .     A
C1143  C1230   1.415   .     A
C1143  C418    1.414   1_565 S
C1144  C1174   1.414   .     A
C1144  C1231   1.415   .     A
C1145  C1221   1.413   .     A
C1145  C1233   1.411   .     A
C1145  C796    1.412   1_655 S
C1146  C1234   1.411   .     A
C1146  C1232   1.413   .     A
C1146  C417    1.412   1_565 S
C1147  C1243   1.414   .     A
C1147  C1178   1.414   .     A
C1147  C1235   1.415   .     A
C1148  C1175   1.414   .     A
C1148  C1236   1.415   .     A
C1148  C1179   1.414   .     A
C1149  C1186   1.413   .     A
C1149  C1237   1.411   .     A
C1150  C1181   1.412   .     A
C1150  C1238   1.411   .     A
C1150  C1197   1.413   .     A
C1151  C1239   1.415   .     A
C1151  C1208   1.414   .     A
C1151  C802    1.414   1_655 S
C1152  C1298   1.414   .     A
C1152  C1240   1.415   .     A
C1153  C1155   1.413   .     A
C1153  C1205   1.533   .     S
C1153  C845    1.416   1_655 S
C1154  C1241   1.411   .     A
C1154  C1180   1.412   .     A
C1155  C1242   1.411   .     A
C1155  C801    1.412   1_655 S
C1156  C1244   1.415   .     A
C1156  C1164   1.414   .     A
C1156  C1182   1.414   .     A
C1157  C1288   1.402   .     A
C1157  C1260   1.455   .     S
C1157  C1290   1.402   .     A
C1158  C1261   1.455   .     S
C1158  C1289   1.402   .     A
C1158  C1286   1.402   .     A
C1159  C1253   1.456   .     S
C1159  C1285   1.402   .     A
C1159  C1292   1.402   .     A
C1160  C1284   1.402   .     A
C1160  C1291   1.402   .     A
C1160  C1255   1.456   .     S
C1161  C1256   1.455   .     S
C1161  C1283   1.402   .     A
C1161  C1294   1.402   .     A
C1162  C1293   1.402   .     A
C1162  C1257   1.455   .     S
C1162  C1282   1.402   .     A
C1163  C1258   1.456   .     S
C1163  C1281   1.402   .     A
C1163  C1296   1.402   .     A
C1164  C1207   1.532   .     S
C1164  C1226   1.415   .     S
C1165  C1259   1.456   .     S
C1165  C1280   1.402   .     A
C1165  C1295   1.402   .     A
C1166  C1279   1.402   .     A
C1166  C1299   1.402   .     A
C1166  C1269   1.456   .     S
C1167  C1278   1.402   .     A
C1167  C1270   1.456   .     S
C1167  C1297   1.402   .     A
C1168  C1277   1.402   .     A
C1168  C1262   1.455   .     S
C1168  C1301   1.402   .     A
C1169  C1275   1.402   .     A
C1169  C1300   1.402   .     A
C1169  C1263   1.455   .     S
C1170  C1274   1.402   .     A
C1170  C1303   1.402   .     A
C1170  C1264   1.456   .     S
C1171  C1302   1.402   .     A
C1171  C1273   1.402   .     A
C1171  C1266   1.456   .     S
C1172  C1267   1.455   .     S
C1172  C1305   1.402   .     A
C1172  C1272   1.402   .     A
C1173  C1268   1.455   .     S
C1173  C1304   1.402   .     A
C1173  C1271   1.402   .     A
C1174  C1176   1.405   .     A
C1175  C463    1.415   1_565 A
C1175  C1210   1.532   .     S
C1176  C1307   1.412   .     A
C1177  C1308   1.412   .     A
C1177  C1178   1.405   .     A
C1179  C392    1.414   1_565 S
C1179  C1180   1.405   1_556 S
C1180  C389    1.412   1_565 S
C1180  C1179   1.405   1_554 S
C1181  C1182   1.405   1_556 S
C1182  C1181   1.405   1_554 S
C1183  H1386   1.110   .     S
C1183  C1184   1.532   .     S
C1183  H1385   1.105   .     S
C1184  H1384   1.111   .     S
C1185  C1187   1.531   .     S
C1185  C1221   1.533   .     S
C1185  H1391   1.106   .     S
C1185  H1390   1.109   .     S
C1186  C1212   1.533   .     S
C1186  C1224   1.416   .     A
C1187  H1389   1.111   .     S
C1187  H1007   1.111   1_655 S
C1187  H1008   1.107   1_655 S
C1188  C1232   1.533   .     S
C1188  H1397   1.106   .     S
C1188  C1189   1.531   .     S
C1188  H1396   1.109   .     S
C1189  H1395   1.111   .     S
C1189  H632    1.111   1_565 S
C1189  H634    1.107   1_565 S
C1190  H1401   1.105   .     S
C1190  C1191   1.532   .     S
C1190  H1402   1.110   .     S
C1190  C1243   1.532   .     S
C1191  H1400   1.111   .     S
C1192  C1193   1.532   .     S
C1192  C1254   1.532   .     S
C1192  H1407   1.105   .     S
C1192  H1408   1.110   .     S
C1193  H1406   1.111   .     S
C1193  H1023   1.107   1_655 S
C1193  H1025   1.111   1_655 S
C1194  C1265   1.533   .     S
C1194  H1412   1.109   .     S
C1194  C1195   1.531   .     S
C1194  H1413   1.106   .     S
C1195  H1411   1.111   .     S
C1196  C1276   1.533   .     S
C1196  C1198   1.531   .     S
C1196  H1419   1.106   .     S
C1196  H1418   1.109   .     S
C1197  C1225   1.416   .     A
C1197  C1214   1.533   .     S
C1198  H1417   1.111   .     S
C1199  H1424   1.110   .     S
C1199  C1200   1.532   .     S
C1199  C1287   1.532   .     S
C1199  H1423   1.105   .     S
C1200  H1422   1.111   .     S
C1200  H660    1.107   1_565 S
C1200  H661    1.111   1_565 S
C1201  C1298   1.532   .     S
C1201  C1202   1.532   .     S
C1201  H1430   1.110   .     S
C1201  H1429   1.105   .     S
C1202  H1428   1.111   .     S
C1202  H1427   1.111   .     S
C1202  H1425   1.107   .     S
C1203  H1435   1.106   .     S
C1203  C1204   1.532   .     S
C1203  H1434   1.109   .     S
C1204  H1431   1.111   .     S
C1204  H1433   1.111   .     S
C1204  H1432   1.107   .     S
C1205  H1314   1.106   .     S
C1205  H1313   1.109   .     S
C1205  C1206   1.531   .     S
C1206  H1436   1.111   .     S
C1206  H1311   1.107   .     S
C1206  H1312   1.111   .     S
C1207  H1318   1.105   .     S
C1207  H1319   1.110   .     S
C1207  C1209   1.532   .     S
C1208  C1216   1.532   .     S
C1208  C846    1.415   1_655 A
C1209  H1315   1.107   .     S
C1209  H1317   1.111   .     S
C1209  H1316   1.111   .     S
C1210  H1325   1.110   .     S
C1210  H1324   1.105   .     S
C1210  C1211   1.532   .     S
C1211  H1323   1.111   .     S
C1211  H1320   1.107   .     S
C1211  H1322   1.111   .     S
C1212  C1213   1.531   .     S
C1212  H1330   1.106   .     S
C1212  H1329   1.109   .     S
C1213  H1326   1.111   .     S
C1213  H1328   1.111   .     S
C1213  H1327   1.107   .     S
C1214  H1336   1.106   .     S
C1214  H1335   1.109   .     S
C1214  C1215   1.531   .     S
C1215  H1331   1.111   .     S
C1215  H1334   1.111   .     S
C1215  H1333   1.107   .     S
C1216  H1341   1.110   .     S
C1216  C1217   1.532   .     S
C1216  H1340   1.105   .     S
C1217  H1338   1.111   .     S
C1217  H1337   1.107   .     S
C1217  H1339   1.111   .     S
C1218  C1247   1.458   .     S
C1219  C1248   1.460   .     S
C1219  C1265   1.416   .     S
C1220  C1276   1.416   .     A
C1220  C1245   1.460   .     S
C1221  C839    1.416   1_655 A
C1222  C1243   1.415   .     A
C1222  C1246   1.458   .     S
C1223  C1251   1.458   .     S
C1223  C1298   1.415   .     S
C1224  C1252   1.460   .     S
C1225  C1249   1.460   .     S
C1226  C1250   1.458   .     S
C1227  C1233   1.416   .     A
C1227  O1485   1.381   .     S
C1227  C1306   1.415   .     A
C1228  O1486   1.383   .     S
C1228  C1231   1.416   .     A
C1228  C1307   1.411   .     A
C1229  C1235   1.416   .     A
C1229  C1308   1.411   .     A
C1229  O1487   1.383   .     S
C1230  C1234   1.416   .     A
C1230  O1488   1.381   .     S
C1231  O1489   1.381   .     S
C1232  C460    1.416   1_565 S
C1233  O1490   1.383   .     S
C1234  O1491   1.383   .     S
C1235  O1493   1.381   .     S
C1236  O1494   1.381   .     S
C1236  C1241   1.416   1_556 S
C1237  O1495   1.383   .     S
C1237  C1240   1.416   1_554 S
C1238  O1496   1.383   .     S
C1238  C1244   1.416   1_556 S
C1239  O1497   1.381   .     S
C1239  C1242   1.416   1_554 S
C1240  O1498   1.381   .     S
C1240  C1237   1.416   1_556 S
C1241  O1499   1.383   .     S
C1241  C1236   1.416   1_554 S
C1242  O1500   1.383   .     S
C1242  C1239   1.416   1_556 S
C1244  O1501   1.381   .     S
C1244  C1238   1.416   1_554 S
C1245  O1504   1.279   .     A
C1246  O1492   1.278   .     S
C1247  O1502   1.278   .     A
C1248  O1440   1.279   .     S
C1249  O1445   1.279   .     A
C1249  O1441   1.279   .     A
C1250  O1446   1.278   .     A
C1250  O1442   1.278   .     S
C1251  O1443   1.278   .     S
C1251  O1447   1.278   .     S
C1252  O1444   1.279   .     S
C1252  O1449   1.279   .     S
C1253  O1450   1.281   .     A
C1253  O1478   1.281   .     A
C1254  C1306   1.414   .     A
C1254  C838    1.415   1_655 S
C1255  O1451   1.281   .     A
C1255  O1479   1.281   .     A
C1256  O1452   1.281   .     A
C1256  O1476   1.281   .     A
C1257  O1477   1.281   .     A
C1257  O1453   1.281   .     A
C1258  O1454   1.281   .     A
C1258  O1483   1.281   .     A
C1259  O1484   1.281   .     A
C1259  O1455   1.281   .     A
C1260  O1456   1.281   .     A
C1260  O1480   1.281   .     A
C1261  O1457   1.281   .     A
C1261  O1482   1.281   .     A
C1262  O1469   1.281   .     A
C1262  O1458   1.281   .     A
C1263  O1471   1.281   .     A
C1263  O1460   1.281   .     A
C1264  O1461   1.281   .     A
C1264  O1467   1.281   .     A
C1265  C1307   1.413   .     A
C1266  O1462   1.281   .     A
C1266  O1468   1.281   .     A
C1267  O1463   1.281   .     A
C1267  O1474   1.281   .     A
C1268  O1475   1.281   .     A
C1268  O1464   1.281   .     A
C1269  O1472   1.281   .     A
C1269  O1465   1.281   .     A
C1270  O1473   1.281   .     A
C1270  O1466   1.281   .     A
C1271  H1309   1.083   .     S
C1271  C1288   1.386   .     A
C1272  H1349   1.083   .     S
C1272  C1286   1.386   .     A
C1273  C1285   1.386   .     A
C1273  H1360   1.083   .     S
C1274  C1284   1.386   .     A
C1274  H1371   1.083   .     S
C1275  C1283   1.386   .     A
C1275  H1382   1.083   .     S
C1276  C1308   1.413   .     A
C1277  C1282   1.386   .     A
C1277  H1393   1.083   .     S
C1278  C1281   1.386   .     A
C1278  H1404   1.083   .     S
C1279  C1280   1.386   .     A
C1279  H1415   1.083   .     S
C1280  H1426   1.083   .     S
C1281  H1310   1.083   .     S
C1282  H1321   1.083   .     S
C1283  H1332   1.083   .     S
C1284  H1342   1.083   .     S
C1285  H1343   1.083   .     S
C1286  H1344   1.083   .     S
C1287  C462    1.415   1_565 S
C1288  H1345   1.083   .     S
C1289  H1346   1.083   .     S
C1289  C1305   1.386   .     A
C1290  C1304   1.386   .     A
C1290  H1347   1.083   .     S
C1291  H1348   1.083   .     S
C1291  C1303   1.386   .     A
C1292  H1350   1.083   .     S
C1292  C1302   1.386   .     A
C1293  C1301   1.386   .     A
C1293  H1351   1.083   .     S
C1294  H1352   1.083   .     S
C1294  C1300   1.386   .     A
C1295  C1299   1.386   .     A
C1295  H1353   1.083   .     S
C1296  C1297   1.386   .     A
C1296  H1354   1.083   .     S
C1297  H1355   1.083   .     S
C1299  H1356   1.083   .     S
C1300  H1357   1.083   .     S
C1301  H1358   1.083   .     S
C1302  H1359   1.083   .     S
C1303  H1361   1.083   .     S
C1304  H1362   1.083   .     S
C1305  H1363   1.083   .     S
C1306  C794    1.414   1_655 S
H1364  O1485   0.991   .     S
H1365  O1486   0.990   .     S
H1366  O1487   0.990   .     S
H1367  O1488   0.991   .     S
H1368  O1489   0.991   .     S
H1369  O1490   0.990   .     S
H1370  O1491   0.990   .     S
H1372  O1493   0.991   .     S
H1373  O1494   0.991   .     S
H1374  O1495   0.990   .     S
H1375  O1496   0.990   .     S
H1376  O1497   0.991   .     S
H1377  O1498   0.991   .     S
H1378  O1499   0.990   .     S
H1379  O1500   0.990   .     S
H1380  O1501   0.991   .     S
H1381  C804    1.107   1_655 S
H1383  C804    1.111   1_655 S
H1398  C431    1.107   1_565 S
H1399  C431    1.111   1_565 S
H1409  C815    1.111   1_655 S
H1410  C815    1.107   1_655 S
H1414  C438    1.111   1_565 S
H1416  C438    1.107   1_565 S
O1437  Zn1505  1.947   .     S
O1437  Zn1508  1.947   .     S
O1437  Zn1516  1.948   .     S
O1438  C486    1.278   1_565 A
O1438  Zn1507  1.947   .     S
O1439  Zn1510  1.947   .     S
O1439  C867    1.278   1_655 S
O1440  Zn1509  1.947   .     S
O1441  Zn1519  1.947   .     S
O1442  Zn1518  1.947   .     S
O1443  Zn1513  1.947   .     S
O1444  Zn1505  1.947   .     S
O1445  Zn1515  1.947   .     S
O1446  Zn1514  1.947   .     S
O1447  Zn1517  1.947   .     S
O1448  Zn1517  1.948   .     S
O1448  Zn1513  1.947   .     S
O1448  Zn1511  1.948   .     S
O1449  Zn1516  1.947   .     S
O1450  Zn1508  1.937   .     S
O1451  Zn1507  1.937   .     S
O1452  Zn1510  1.937   .     S
O1453  Zn1509  1.937   .     S
O1454  Zn1512  1.937   .     S
O1455  Zn1511  1.937   .     S
O1456  Zn1506  1.937   .     S
O1457  Zn1520  1.937   .     S
O1458  Zn1507  1.937   .     S
O1459  Zn1506  1.947   .     S
O1459  Zn1514  1.947   .     S
O1459  Zn1518  1.948   .     S
O1460  Zn1508  1.937   .     S
O1461  Zn1520  1.937   .     S
O1462  Zn1506  1.937   .     S
O1463  Zn1511  1.937   .     S
O1464  Zn1512  1.937   .     S
O1465  Zn1509  1.937   .     S
O1466  Zn1510  1.937   .     S
O1467  Zn1135  1.937   1_655 S
O1468  Zn1514  1.937   .     S
O1469  Zn757   1.937   1_565 S
O1470  Zn1515  1.947   .     S
O1470  Zn1509  1.948   .     S
O1470  Zn1519  1.948   .     S
O1471  Zn1516  1.937   .     S
O1472  Zn1519  1.937   .     S
O1473  Zn1138  1.937   1_655 S
O1474  Zn1513  1.937   .     S
O1475  Zn745   1.937   1_565 S
O1476  Zn1134  1.937   1_655 S
O1477  Zn1515  1.937   .     S
O1478  Zn1505  1.937   .     S
O1479  Zn753   1.937   1_565 S
O1480  Zn1518  1.937   .     S
O1481  Zn1512  1.947   .     S
O1481  C485    1.279   1_565 S
O1482  Zn1139  1.937   1_655 S
O1483  Zn756   1.937   1_565 S
O1484  Zn1517  1.937   .     S
O1492  Zn1511  1.947   .     S
O1502  Zn1506  1.947   .     S
O1503  Zn1520  1.947   .     S
O1503  C868    1.279   1_655 A
O1504  Zn1508  1.947   .     S
Zn1507 O688    1.947   1_565 S
Zn1510 O1079   1.948   1_655 S
Zn1512 O677    1.948   1_565 S
Zn1520 O1090   1.947   1_655 S
