data_str_m1_o10_o18_pcu_sym.170
_audit_creation_date              2020-01-03
_audit_creation_method            'Materials Studio'
_symmetry_space_group_name_H-M    'P1'
_symmetry_Int_Tables_number       1
_symmetry_cell_setting            triclinic
loop_
_symmetry_equiv_pos_as_xyz
  x,y,z
_cell_length_a                    32.6890
_cell_length_b                    32.6424
_cell_length_c                    35.5244
_cell_angle_alpha                 99.1049
_cell_angle_beta                  72.6710
_cell_angle_gamma                 98.8320
loop_
_atom_site_label
_atom_site_type_symbol
_atom_site_fract_x
_atom_site_fract_y
_atom_site_fract_z
_atom_site_U_iso_or_equiv
_atom_site_adp_type
_atom_site_occupancy
C1     C     0.05281   0.16010   0.25868   0.00000  Uiso   1.00
C2     C     0.21747   0.16423   0.46171   0.00000  Uiso   1.00
C3     C     0.23916   0.14291   0.47968   0.00000  Uiso   1.00
C4     C     0.28105   0.17310   0.24106   0.00000  Uiso   1.00
C5     C     0.21791   0.13262   0.01866   0.00000  Uiso   1.00
C6     C     0.18478   0.15687   0.04255   0.00000  Uiso   1.00
C7     C     0.23050   0.10169   0.03570   0.00000  Uiso   1.00
C8     C     0.22386   0.10672   0.07745   0.00000  Uiso   1.00
C9     C     0.17503   0.15839   0.08392   0.00000  Uiso   1.00
C10    C     0.32715   0.17491   0.23756   0.00000  Uiso   1.00
C11    C     0.00745   0.15747   0.26374   0.00000  Uiso   1.00
C12    C     0.11531   0.23610   0.42040   0.00000  Uiso   1.00
C13    C     0.18206   0.32311   0.24162   0.00000  Uiso   1.00
C14    C     0.14850   0.01234   0.26129   0.00000  Uiso   1.00
C15    C     0.15474   0.05648   0.25936   0.00000  Uiso   1.00
C16    C     0.17687   0.27784   0.24187   0.00000  Uiso   1.00
C17    C     0.18858   0.14465   0.14392   0.00000  Uiso   1.00
C18    C     0.14568   0.18866   0.35663   0.00000  Uiso   1.00
C19    C     0.13844   0.20159   0.40053   0.00000  Uiso   1.00
C20    C     0.19662   0.13639   0.10096   0.00000  Uiso   1.00
C21    C     0.10319   0.24418   0.46255   0.00000  Uiso   1.00
C22    C     0.09962   0.27220   0.05265   0.00000  Uiso   1.00
C23    C     0.15379   0.17911   0.42330   0.00000  Uiso   1.00
C24    C     0.12150   0.29081   0.08552   0.00000  Uiso   1.00
C25    C     0.10920   0.00122   0.10318   0.00000  Uiso   1.00
C26    C     0.24497   0.06144   0.01038   0.00000  Uiso   1.00
C27    C     0.21137   0.02365   0.02158   0.00000  Uiso   1.00
C28    C     0.22701   0.31667   0.49693   0.00000  Uiso   1.00
C29    C     0.02483   0.19622   0.20418   0.00000  Uiso   1.00
C30    C     0.31128   0.13567   0.29902   0.00000  Uiso   1.00
C31    C     0.00087   0.11925   0.32470   0.00000  Uiso   1.00
C32    C     0.30155   0.09635   0.35724   0.00000  Uiso   1.00
C33    C     0.22644   0.00982   0.21950   0.00000  Uiso   1.00
C34    C     0.15283   0.19508   0.46299   0.00000  Uiso   1.00
C35    C     0.25787   0.01508   0.24499   0.00000  Uiso   1.00
C36    C     0.30210   0.03591   0.22380   0.00000  Uiso   1.00
C37    C     0.10254   0.32600   0.28047   0.00000  Uiso   1.00
C38    C     0.06674   0.02171   0.29281   0.00000  Uiso   1.00
C39    C     0.02325   0.33124   0.31176   0.00000  Uiso   1.00
C40    C     0.24707   0.08278   0.09683   0.00000  Uiso   1.00
C41    C     0.28847   0.10871   0.10275   0.00000  Uiso   1.00
C42    C     0.31020   0.08626   0.12482   0.00000  Uiso   1.00
C43    C     0.28686   0.13874   0.45921   0.00000  Uiso   1.00
C44    C     0.31600   0.15836   0.48571   0.00000  Uiso   1.00
C45    C     0.12456   0.22547   0.48438   0.00000  Uiso   1.00
C46    C     0.02980   0.15254   0.46460   0.00000  Uiso   1.00
C47    C     0.06192   0.26518   0.48227   0.00000  Uiso   1.00
C48    C     0.06819   0.31299   0.48157   0.00000  Uiso   1.00
C49    C     0.03426   0.00113   0.01523   0.00000  Uiso   1.00
C50    C     0.10126   0.26286   0.39766   0.00000  Uiso   1.00
C51    C     0.16110   0.13456   0.40981   0.00000  Uiso   1.00
C52    C     0.17755   0.17868   0.48261   0.00000  Uiso   1.00
C53    C     0.16427   0.18019   0.02412   0.00000  Uiso   1.00
C54    C     0.13234   0.20610   0.04541   0.00000  Uiso   1.00
C55    C     0.11821   0.23371   0.02663   0.00000  Uiso   1.00
H56    H     0.15261   0.17835   0.10406   0.00000  Uiso   1.00
H57    H     0.06477   0.26430   0.06724   0.00000  Uiso   1.00
H58    H     0.23385   0.31905   0.46475   0.00000  Uiso   1.00
H59    H     0.25670   0.31034   0.00305   0.00000  Uiso   1.00
H60    H     0.20178   0.29005   0.00463   0.00000  Uiso   1.00
H61    H     0.20412   0.02007   0.05346   0.00000  Uiso   1.00
H62    H     0.18080   0.02839   0.01600   0.00000  Uiso   1.00
H63    H     0.24738   0.06255   0.47892   0.00000  Uiso   1.00
H64    H     0.27716   0.05652   0.01227   0.00000  Uiso   1.00
H65    H     0.07936   0.23477   0.18519   0.00000  Uiso   1.00
H66    H     0.27890   0.11788   0.37696   0.00000  Uiso   1.00
H67    H     0.12029   0.20804   0.07713   0.00000  Uiso   1.00
H68    H     0.28261   0.06977   0.34412   0.00000  Uiso   1.00
H69    H     0.31871   0.08421   0.37508   0.00000  Uiso   1.00
H70    H     0.02362   0.09722   0.30590   0.00000  Uiso   1.00
H71    H     0.01919   0.14565   0.33880   0.00000  Uiso   1.00
H72    H     0.28957   0.15809   0.31898   0.00000  Uiso   1.00
H73    H     0.29207   0.10818   0.28741   0.00000  Uiso   1.00
H74    H     0.31605   0.01705   0.19515   0.00000  Uiso   1.00
H75    H     0.29942   0.06775   0.21812   0.00000  Uiso   1.00
H76    H     0.32418   0.03859   0.24276   0.00000  Uiso   1.00
H77    H     0.24481   0.03453   0.27354   0.00000  Uiso   1.00
H78    H     0.23281   0.17160   0.43170   0.00000  Uiso   1.00
H79    H     0.26175   0.31736   0.25174   0.00000  Uiso   1.00
H80    H     0.23935   0.32325   0.19119   0.00000  Uiso   1.00
H81    H     0.22492   0.04048   0.21049   0.00000  Uiso   1.00
H82    H     0.01595   0.30345   0.29133   0.00000  Uiso   1.00
H83    H     0.02341   0.32107   0.34009   0.00000  Uiso   1.00
H84    H     0.33068   0.01831   0.31796   0.00000  Uiso   1.00
H85    H     0.07403   0.04829   0.31447   0.00000  Uiso   1.00
H86    H     0.06410   0.03396   0.26627   0.00000  Uiso   1.00
H87    H     0.09323   0.30035   0.25891   0.00000  Uiso   1.00
H88    H     0.10260   0.31328   0.30770   0.00000  Uiso   1.00
H89    H     0.11956   0.02278   0.07999   0.00000  Uiso   1.00
H90    H     0.28824   0.08106   0.15464   0.00000  Uiso   1.00
H91    H     0.31892   0.05573   0.10779   0.00000  Uiso   1.00
H92    H     0.00673   0.10565   0.12861   0.00000  Uiso   1.00
H93    H     0.31128   0.11427   0.07333   0.00000  Uiso   1.00
H94    H     0.28117   0.13947   0.12000   0.00000  Uiso   1.00
H95    H     0.22531   0.07427   0.12580   0.00000  Uiso   1.00
H96    H     0.25613   0.05289   0.07897   0.00000  Uiso   1.00
H97    H     0.03380   0.11881   0.45641   0.00000  Uiso   1.00
H98    H     0.04111   0.16850   0.43734   0.00000  Uiso   1.00
H99    H     0.04991   0.16595   0.48477   0.00000  Uiso   1.00
H100   H     0.07374   0.00014   0.11644   0.00000  Uiso   1.00
H101   H     0.31265   0.19225   0.49361   0.00000  Uiso   1.00
H102   H     0.30683   0.14374   0.01358   0.00000  Uiso   1.00
H103   H     0.29295   0.10608   0.44816   0.00000  Uiso   1.00
H104   H     0.29775   0.15533   0.43230   0.00000  Uiso   1.00
H105   H     0.00137   0.32179   0.01313   0.00000  Uiso   1.00
H106   H     0.03720   0.32972   0.04454   0.00000  Uiso   1.00
H107   H     0.03888   0.03519   0.01307   0.00000  Uiso   1.00
H108   H     0.10089   0.32668   0.48346   0.00000  Uiso   1.00
H109   H     0.06502   0.32033   0.45320   0.00000  Uiso   1.00
H110   H     0.03727   0.25159   0.46661   0.00000  Uiso   1.00
H111   H     0.12532   0.01362   0.12677   0.00000  Uiso   1.00
H112   H     0.04607   0.25628   0.01231   0.00000  Uiso   1.00
H113   H     0.05512   0.27357   0.37453   0.00000  Uiso   1.00
H114   H     0.13775   0.07423   0.41513   0.00000  Uiso   1.00
H115   H     0.11118   0.27098   0.11013   0.00000  Uiso   1.00
H116   H     0.15707   0.29234   0.07345   0.00000  Uiso   1.00
H117   H     0.10448   0.29714   0.03377   0.00000  Uiso   1.00
O118   O     0.16667   0.16667   0.25000   0.00000  Uiso   1.00
O119   O     0.15693   0.12393   0.16625   0.00000  Uiso   1.00
O120   O     0.12687   0.20646   0.33749   0.00000  Uiso   1.00
O121   O     0.21088   0.17493   0.15877   0.00000  Uiso   1.00
O122   O     0.17198   0.16135   0.33749   0.00000  Uiso   1.00
O123   O     0.01796   0.19147   0.17166   0.00000  Uiso   1.00
O124   O     0.06118   0.22222   0.21006   0.00000  Uiso   1.00
O125   O     0.12548   0.29301   0.38467   0.00000  Uiso   1.00
O126   O     0.06080   0.25317   0.39064   0.00000  Uiso   1.00
O127   O     0.19500   0.12524   0.38613   0.00000  Uiso   1.00
O128   O     0.12925   0.10332   0.42584   0.00000  Uiso   1.00
O129   O     0.17849   0.08101   0.27821   0.00000  Uiso   1.00
O130   O     0.14581   0.26136   0.26767   0.00000  Uiso   1.00
O131   O     0.07452   0.13251   0.23607   0.00000  Uiso   1.00
O132   O     0.26785   0.19179   0.21805   0.00000  Uiso   1.00
O133   O     0.06990   0.18960   0.27820   0.00000  Uiso   1.00
O134   O     0.25440   0.15277   0.26768   0.00000  Uiso   1.00
O135   O     0.13800   0.06903   0.23607   0.00000  Uiso   1.00
O136   O     0.20437   0.25527   0.21805   0.00000  Uiso   1.00
Zn137  Zn    0.19244   0.14090   0.28278   0.00000  Uiso   1.00
Zn138  Zn    0.13459   0.12378   0.22258   0.00000  Uiso   1.00
Zn139  Zn    0.21166   0.19664   0.21188   0.00000  Uiso   1.00
Zn140  Zn    0.12798   0.20535   0.28277   0.00000  Uiso   1.00
C141   C     0.38614   0.16010   0.25868   0.00000  Uiso   1.00
C142   C     0.55080   0.16423   0.46171   0.00000  Uiso   1.00
C143   C     0.57250   0.14291   0.47968   0.00000  Uiso   1.00
C144   C     0.61438   0.17310   0.24106   0.00000  Uiso   1.00
C145   C     0.55124   0.13262   0.01866   0.00000  Uiso   1.00
C146   C     0.51811   0.15687   0.04255   0.00000  Uiso   1.00
C147   C     0.56383   0.10169   0.03570   0.00000  Uiso   1.00
C148   C     0.55719   0.10672   0.07745   0.00000  Uiso   1.00
C149   C     0.50836   0.15839   0.08392   0.00000  Uiso   1.00
C150   C     0.66049   0.17491   0.23756   0.00000  Uiso   1.00
C151   C     0.34078   0.15747   0.26374   0.00000  Uiso   1.00
C152   C     0.44864   0.23610   0.42040   0.00000  Uiso   1.00
C153   C     0.51540   0.32311   0.24162   0.00000  Uiso   1.00
C154   C     0.48183   0.01234   0.26129   0.00000  Uiso   1.00
C155   C     0.48807   0.05648   0.25936   0.00000  Uiso   1.00
C156   C     0.51020   0.27784   0.24187   0.00000  Uiso   1.00
C157   C     0.52191   0.14465   0.14392   0.00000  Uiso   1.00
C158   C     0.47901   0.18866   0.35663   0.00000  Uiso   1.00
C159   C     0.47177   0.20159   0.40053   0.00000  Uiso   1.00
C160   C     0.52995   0.13639   0.10096   0.00000  Uiso   1.00
C161   C     0.43652   0.24418   0.46255   0.00000  Uiso   1.00
C162   C     0.43295   0.27220   0.05265   0.00000  Uiso   1.00
C163   C     0.48713   0.17911   0.42330   0.00000  Uiso   1.00
C164   C     0.45483   0.29081   0.08552   0.00000  Uiso   1.00
C165   C     0.44254   0.00122   0.10318   0.00000  Uiso   1.00
C166   C     0.57831   0.06144   0.01038   0.00000  Uiso   1.00
C167   C     0.54471   0.02365   0.02158   0.00000  Uiso   1.00
C168   C     0.56034   0.31667   0.49693   0.00000  Uiso   1.00
C169   C     0.35816   0.19622   0.20418   0.00000  Uiso   1.00
C170   C     0.64461   0.13567   0.29902   0.00000  Uiso   1.00
C171   C     0.33420   0.11925   0.32470   0.00000  Uiso   1.00
C172   C     0.63489   0.09635   0.35724   0.00000  Uiso   1.00
C173   C     0.55977   0.00982   0.21950   0.00000  Uiso   1.00
C174   C     0.48616   0.19508   0.46299   0.00000  Uiso   1.00
C175   C     0.59120   0.01508   0.24499   0.00000  Uiso   1.00
C176   C     0.63543   0.03591   0.22380   0.00000  Uiso   1.00
C177   C     0.43587   0.32600   0.28047   0.00000  Uiso   1.00
C178   C     0.40007   0.02171   0.29281   0.00000  Uiso   1.00
C179   C     0.35658   0.33124   0.31176   0.00000  Uiso   1.00
C180   C     0.58040   0.08278   0.09683   0.00000  Uiso   1.00
C181   C     0.62180   0.10871   0.10275   0.00000  Uiso   1.00
C182   C     0.64354   0.08626   0.12482   0.00000  Uiso   1.00
C183   C     0.62020   0.13874   0.45921   0.00000  Uiso   1.00
C184   C     0.64933   0.15836   0.48571   0.00000  Uiso   1.00
C185   C     0.45790   0.22547   0.48438   0.00000  Uiso   1.00
C186   C     0.36313   0.15254   0.46460   0.00000  Uiso   1.00
C187   C     0.39525   0.26518   0.48227   0.00000  Uiso   1.00
C188   C     0.40153   0.31299   0.48157   0.00000  Uiso   1.00
C189   C     0.36760   0.00113   0.01523   0.00000  Uiso   1.00
C190   C     0.43460   0.26286   0.39766   0.00000  Uiso   1.00
C191   C     0.49444   0.13456   0.40981   0.00000  Uiso   1.00
C192   C     0.51088   0.17868   0.48261   0.00000  Uiso   1.00
C193   C     0.49761   0.18019   0.02412   0.00000  Uiso   1.00
C194   C     0.46568   0.20610   0.04541   0.00000  Uiso   1.00
C195   C     0.45155   0.23371   0.02663   0.00000  Uiso   1.00
H196   H     0.48594   0.17835   0.10406   0.00000  Uiso   1.00
H197   H     0.39810   0.26430   0.06724   0.00000  Uiso   1.00
H198   H     0.56718   0.31905   0.46475   0.00000  Uiso   1.00
H199   H     0.59003   0.31034   0.00305   0.00000  Uiso   1.00
H200   H     0.53511   0.29005   0.00463   0.00000  Uiso   1.00
H201   H     0.53745   0.02007   0.05346   0.00000  Uiso   1.00
H202   H     0.51413   0.02839   0.01600   0.00000  Uiso   1.00
H203   H     0.58072   0.06255   0.47892   0.00000  Uiso   1.00
H204   H     0.61049   0.05652   0.01227   0.00000  Uiso   1.00
H205   H     0.41270   0.23477   0.18519   0.00000  Uiso   1.00
H206   H     0.61223   0.11788   0.37696   0.00000  Uiso   1.00
H207   H     0.45363   0.20804   0.07713   0.00000  Uiso   1.00
H208   H     0.61594   0.06977   0.34412   0.00000  Uiso   1.00
H209   H     0.65205   0.08421   0.37508   0.00000  Uiso   1.00
H210   H     0.35695   0.09722   0.30590   0.00000  Uiso   1.00
H211   H     0.35253   0.14565   0.33880   0.00000  Uiso   1.00
H212   H     0.62290   0.15809   0.31898   0.00000  Uiso   1.00
H213   H     0.62540   0.10818   0.28741   0.00000  Uiso   1.00
H214   H     0.64938   0.01705   0.19515   0.00000  Uiso   1.00
H215   H     0.63275   0.06775   0.21812   0.00000  Uiso   1.00
H216   H     0.65751   0.03859   0.24276   0.00000  Uiso   1.00
H217   H     0.57814   0.03453   0.27354   0.00000  Uiso   1.00
H218   H     0.56615   0.17160   0.43170   0.00000  Uiso   1.00
H219   H     0.59508   0.31736   0.25174   0.00000  Uiso   1.00
H220   H     0.57269   0.32325   0.19119   0.00000  Uiso   1.00
H221   H     0.55825   0.04048   0.21049   0.00000  Uiso   1.00
H222   H     0.34928   0.30345   0.29133   0.00000  Uiso   1.00
H223   H     0.35675   0.32107   0.34009   0.00000  Uiso   1.00
H224   H     0.66401   0.01831   0.31796   0.00000  Uiso   1.00
H225   H     0.40737   0.04829   0.31447   0.00000  Uiso   1.00
H226   H     0.39744   0.03396   0.26627   0.00000  Uiso   1.00
H227   H     0.42656   0.30035   0.25891   0.00000  Uiso   1.00
H228   H     0.43593   0.31328   0.30770   0.00000  Uiso   1.00
H229   H     0.45290   0.02278   0.07999   0.00000  Uiso   1.00
H230   H     0.62157   0.08106   0.15464   0.00000  Uiso   1.00
H231   H     0.65225   0.05573   0.10779   0.00000  Uiso   1.00
H232   H     0.34007   0.10565   0.12861   0.00000  Uiso   1.00
H233   H     0.64461   0.11427   0.07333   0.00000  Uiso   1.00
H234   H     0.61451   0.13947   0.12000   0.00000  Uiso   1.00
H235   H     0.55864   0.07427   0.12580   0.00000  Uiso   1.00
H236   H     0.58946   0.05289   0.07897   0.00000  Uiso   1.00
H237   H     0.36713   0.11881   0.45641   0.00000  Uiso   1.00
H238   H     0.37444   0.16850   0.43734   0.00000  Uiso   1.00
H239   H     0.38324   0.16595   0.48477   0.00000  Uiso   1.00
H240   H     0.40707   0.00014   0.11644   0.00000  Uiso   1.00
H241   H     0.64598   0.19225   0.49361   0.00000  Uiso   1.00
H242   H     0.64016   0.14374   0.01358   0.00000  Uiso   1.00
H243   H     0.62628   0.10608   0.44816   0.00000  Uiso   1.00
H244   H     0.63109   0.15533   0.43230   0.00000  Uiso   1.00
H245   H     0.33471   0.32179   0.01313   0.00000  Uiso   1.00
H246   H     0.37053   0.32972   0.04454   0.00000  Uiso   1.00
H247   H     0.37221   0.03519   0.01307   0.00000  Uiso   1.00
H248   H     0.43423   0.32668   0.48346   0.00000  Uiso   1.00
H249   H     0.39836   0.32033   0.45320   0.00000  Uiso   1.00
H250   H     0.37060   0.25159   0.46661   0.00000  Uiso   1.00
H251   H     0.45865   0.01362   0.12677   0.00000  Uiso   1.00
H252   H     0.37941   0.25628   0.01231   0.00000  Uiso   1.00
H253   H     0.38845   0.27357   0.37453   0.00000  Uiso   1.00
H254   H     0.47108   0.07423   0.41513   0.00000  Uiso   1.00
H255   H     0.44451   0.27098   0.11013   0.00000  Uiso   1.00
H256   H     0.49041   0.29234   0.07345   0.00000  Uiso   1.00
H257   H     0.43781   0.29714   0.03377   0.00000  Uiso   1.00
O258   O     0.50000   0.16667   0.25000   0.00000  Uiso   1.00
O259   O     0.49027   0.12393   0.16625   0.00000  Uiso   1.00
O260   O     0.46020   0.20646   0.33749   0.00000  Uiso   1.00
O261   O     0.54421   0.17493   0.15877   0.00000  Uiso   1.00
O262   O     0.50532   0.16135   0.33749   0.00000  Uiso   1.00
O263   O     0.35129   0.19147   0.17166   0.00000  Uiso   1.00
O264   O     0.39451   0.22222   0.21006   0.00000  Uiso   1.00
O265   O     0.45881   0.29301   0.38467   0.00000  Uiso   1.00
O266   O     0.39414   0.25317   0.39064   0.00000  Uiso   1.00
O267   O     0.52834   0.12524   0.38613   0.00000  Uiso   1.00
O268   O     0.46258   0.10332   0.42584   0.00000  Uiso   1.00
O269   O     0.51182   0.08101   0.27821   0.00000  Uiso   1.00
O270   O     0.47914   0.26136   0.26767   0.00000  Uiso   1.00
O271   O     0.40785   0.13251   0.23607   0.00000  Uiso   1.00
O272   O     0.60119   0.19179   0.21805   0.00000  Uiso   1.00
O273   O     0.40323   0.18960   0.27820   0.00000  Uiso   1.00
O274   O     0.58773   0.15277   0.26768   0.00000  Uiso   1.00
O275   O     0.47133   0.06903   0.23607   0.00000  Uiso   1.00
O276   O     0.53771   0.25527   0.21805   0.00000  Uiso   1.00
Zn277  Zn    0.52577   0.14090   0.28278   0.00000  Uiso   1.00
Zn278  Zn    0.46792   0.12378   0.22258   0.00000  Uiso   1.00
Zn279  Zn    0.54500   0.19664   0.21188   0.00000  Uiso   1.00
Zn280  Zn    0.46131   0.20535   0.28277   0.00000  Uiso   1.00
C281   C     0.71948   0.16010   0.25868   0.00000  Uiso   1.00
C282   C     0.88413   0.16423   0.46171   0.00000  Uiso   1.00
C283   C     0.90583   0.14291   0.47968   0.00000  Uiso   1.00
C284   C     0.94772   0.17310   0.24106   0.00000  Uiso   1.00
C285   C     0.88458   0.13262   0.01866   0.00000  Uiso   1.00
C286   C     0.85144   0.15687   0.04255   0.00000  Uiso   1.00
C287   C     0.89716   0.10169   0.03570   0.00000  Uiso   1.00
C288   C     0.89052   0.10672   0.07745   0.00000  Uiso   1.00
C289   C     0.84170   0.15839   0.08392   0.00000  Uiso   1.00
C290   C     0.99382   0.17491   0.23756   0.00000  Uiso   1.00
C291   C     0.67411   0.15747   0.26374   0.00000  Uiso   1.00
C292   C     0.78197   0.23610   0.42040   0.00000  Uiso   1.00
C293   C     0.84873   0.32311   0.24162   0.00000  Uiso   1.00
C294   C     0.81517   0.01234   0.26129   0.00000  Uiso   1.00
C295   C     0.82141   0.05648   0.25936   0.00000  Uiso   1.00
C296   C     0.84353   0.27784   0.24187   0.00000  Uiso   1.00
C297   C     0.85525   0.14465   0.14392   0.00000  Uiso   1.00
C298   C     0.81235   0.18866   0.35663   0.00000  Uiso   1.00
C299   C     0.80511   0.20159   0.40053   0.00000  Uiso   1.00
C300   C     0.86329   0.13639   0.10096   0.00000  Uiso   1.00
C301   C     0.76986   0.24418   0.46255   0.00000  Uiso   1.00
C302   C     0.76629   0.27220   0.05265   0.00000  Uiso   1.00
C303   C     0.82046   0.17911   0.42330   0.00000  Uiso   1.00
C304   C     0.78817   0.29081   0.08552   0.00000  Uiso   1.00
C305   C     0.77587   0.00122   0.10318   0.00000  Uiso   1.00
C306   C     0.91164   0.06144   0.01038   0.00000  Uiso   1.00
C307   C     0.87804   0.02365   0.02158   0.00000  Uiso   1.00
C308   C     0.89367   0.31667   0.49693   0.00000  Uiso   1.00
C309   C     0.69150   0.19622   0.20418   0.00000  Uiso   1.00
C310   C     0.97795   0.13567   0.29902   0.00000  Uiso   1.00
C311   C     0.66754   0.11925   0.32470   0.00000  Uiso   1.00
C312   C     0.96822   0.09635   0.35724   0.00000  Uiso   1.00
C313   C     0.89310   0.00982   0.21950   0.00000  Uiso   1.00
C314   C     0.81949   0.19508   0.46299   0.00000  Uiso   1.00
C315   C     0.92454   0.01508   0.24499   0.00000  Uiso   1.00
C316   C     0.96876   0.03591   0.22380   0.00000  Uiso   1.00
C317   C     0.76921   0.32600   0.28047   0.00000  Uiso   1.00
C318   C     0.73340   0.02171   0.29281   0.00000  Uiso   1.00
C319   C     0.68991   0.33124   0.31176   0.00000  Uiso   1.00
C320   C     0.91373   0.08278   0.09683   0.00000  Uiso   1.00
C321   C     0.95513   0.10871   0.10275   0.00000  Uiso   1.00
C322   C     0.97687   0.08626   0.12482   0.00000  Uiso   1.00
C323   C     0.95353   0.13874   0.45921   0.00000  Uiso   1.00
C324   C     0.98267   0.15836   0.48571   0.00000  Uiso   1.00
C325   C     0.79123   0.22547   0.48438   0.00000  Uiso   1.00
C326   C     0.69646   0.15254   0.46460   0.00000  Uiso   1.00
C327   C     0.72858   0.26518   0.48227   0.00000  Uiso   1.00
C328   C     0.73486   0.31299   0.48157   0.00000  Uiso   1.00
C329   C     0.70093   0.00113   0.01523   0.00000  Uiso   1.00
C330   C     0.76793   0.26286   0.39766   0.00000  Uiso   1.00
C331   C     0.82777   0.13456   0.40981   0.00000  Uiso   1.00
C332   C     0.84421   0.17868   0.48261   0.00000  Uiso   1.00
C333   C     0.83094   0.18019   0.02412   0.00000  Uiso   1.00
C334   C     0.79901   0.20610   0.04541   0.00000  Uiso   1.00
C335   C     0.78488   0.23371   0.02663   0.00000  Uiso   1.00
H336   H     0.81928   0.17835   0.10406   0.00000  Uiso   1.00
H337   H     0.73143   0.26430   0.06724   0.00000  Uiso   1.00
H338   H     0.90051   0.31905   0.46475   0.00000  Uiso   1.00
H339   H     0.92336   0.31034   0.00305   0.00000  Uiso   1.00
H340   H     0.86844   0.29005   0.00463   0.00000  Uiso   1.00
H341   H     0.87079   0.02007   0.05346   0.00000  Uiso   1.00
H342   H     0.84747   0.02839   0.01600   0.00000  Uiso   1.00
H343   H     0.91405   0.06255   0.47892   0.00000  Uiso   1.00
H344   H     0.94383   0.05652   0.01227   0.00000  Uiso   1.00
H345   H     0.74603   0.23477   0.18519   0.00000  Uiso   1.00
H346   H     0.94556   0.11788   0.37696   0.00000  Uiso   1.00
H347   H     0.78696   0.20804   0.07713   0.00000  Uiso   1.00
H348   H     0.94927   0.06977   0.34412   0.00000  Uiso   1.00
H349   H     0.98538   0.08421   0.37508   0.00000  Uiso   1.00
H350   H     0.69028   0.09722   0.30590   0.00000  Uiso   1.00
H351   H     0.68586   0.14565   0.33880   0.00000  Uiso   1.00
H352   H     0.95623   0.15809   0.31898   0.00000  Uiso   1.00
H353   H     0.95873   0.10818   0.28741   0.00000  Uiso   1.00
H354   H     0.98272   0.01705   0.19515   0.00000  Uiso   1.00
H355   H     0.96609   0.06775   0.21812   0.00000  Uiso   1.00
H356   H     0.99085   0.03859   0.24276   0.00000  Uiso   1.00
H357   H     0.91147   0.03453   0.27354   0.00000  Uiso   1.00
H358   H     0.89948   0.17160   0.43170   0.00000  Uiso   1.00
H359   H     0.92842   0.31736   0.25174   0.00000  Uiso   1.00
H360   H     0.90602   0.32325   0.19119   0.00000  Uiso   1.00
H361   H     0.89159   0.04048   0.21049   0.00000  Uiso   1.00
H362   H     0.68262   0.30345   0.29133   0.00000  Uiso   1.00
H363   H     0.69008   0.32107   0.34009   0.00000  Uiso   1.00
H364   H     0.99735   0.01831   0.31796   0.00000  Uiso   1.00
H365   H     0.74070   0.04829   0.31447   0.00000  Uiso   1.00
H366   H     0.73077   0.03396   0.26627   0.00000  Uiso   1.00
H367   H     0.75990   0.30035   0.25891   0.00000  Uiso   1.00
H368   H     0.76926   0.31328   0.30770   0.00000  Uiso   1.00
H369   H     0.78623   0.02278   0.07999   0.00000  Uiso   1.00
H370   H     0.95491   0.08106   0.15464   0.00000  Uiso   1.00
H371   H     0.98559   0.05573   0.10779   0.00000  Uiso   1.00
H372   H     0.67340   0.10565   0.12861   0.00000  Uiso   1.00
H373   H     0.97795   0.11427   0.07333   0.00000  Uiso   1.00
H374   H     0.94784   0.13947   0.12000   0.00000  Uiso   1.00
H375   H     0.89198   0.07427   0.12580   0.00000  Uiso   1.00
H376   H     0.92279   0.05289   0.07897   0.00000  Uiso   1.00
H377   H     0.70046   0.11881   0.45641   0.00000  Uiso   1.00
H378   H     0.70777   0.16850   0.43734   0.00000  Uiso   1.00
H379   H     0.71657   0.16595   0.48477   0.00000  Uiso   1.00
H380   H     0.74041   0.00014   0.11644   0.00000  Uiso   1.00
H381   H     0.97931   0.19225   0.49361   0.00000  Uiso   1.00
H382   H     0.97350   0.14374   0.01358   0.00000  Uiso   1.00
H383   H     0.95962   0.10608   0.44816   0.00000  Uiso   1.00
H384   H     0.96442   0.15533   0.43230   0.00000  Uiso   1.00
H385   H     0.66804   0.32179   0.01313   0.00000  Uiso   1.00
H386   H     0.70387   0.32972   0.04454   0.00000  Uiso   1.00
H387   H     0.70554   0.03519   0.01307   0.00000  Uiso   1.00
H388   H     0.76756   0.32668   0.48346   0.00000  Uiso   1.00
H389   H     0.73169   0.32033   0.45320   0.00000  Uiso   1.00
H390   H     0.70394   0.25159   0.46661   0.00000  Uiso   1.00
H391   H     0.79199   0.01362   0.12677   0.00000  Uiso   1.00
H392   H     0.71274   0.25628   0.01231   0.00000  Uiso   1.00
H393   H     0.72179   0.27357   0.37453   0.00000  Uiso   1.00
H394   H     0.80442   0.07423   0.41513   0.00000  Uiso   1.00
H395   H     0.77785   0.27098   0.11013   0.00000  Uiso   1.00
H396   H     0.82374   0.29234   0.07345   0.00000  Uiso   1.00
H397   H     0.77115   0.29714   0.03377   0.00000  Uiso   1.00
O398   O     0.83333   0.16667   0.25000   0.00000  Uiso   1.00
O399   O     0.82360   0.12393   0.16625   0.00000  Uiso   1.00
O400   O     0.79354   0.20646   0.33749   0.00000  Uiso   1.00
O401   O     0.87755   0.17493   0.15877   0.00000  Uiso   1.00
O402   O     0.83865   0.16135   0.33749   0.00000  Uiso   1.00
O403   O     0.68463   0.19147   0.17166   0.00000  Uiso   1.00
O404   O     0.72785   0.22222   0.21006   0.00000  Uiso   1.00
O405   O     0.79214   0.29301   0.38467   0.00000  Uiso   1.00
O406   O     0.72747   0.25317   0.39064   0.00000  Uiso   1.00
O407   O     0.86167   0.12524   0.38613   0.00000  Uiso   1.00
O408   O     0.79592   0.10332   0.42584   0.00000  Uiso   1.00
O409   O     0.84515   0.08101   0.27821   0.00000  Uiso   1.00
O410   O     0.81247   0.26136   0.26767   0.00000  Uiso   1.00
O411   O     0.74119   0.13251   0.23607   0.00000  Uiso   1.00
O412   O     0.93452   0.19179   0.21805   0.00000  Uiso   1.00
O413   O     0.73656   0.18960   0.27820   0.00000  Uiso   1.00
O414   O     0.92106   0.15277   0.26768   0.00000  Uiso   1.00
O415   O     0.80467   0.06903   0.23607   0.00000  Uiso   1.00
O416   O     0.87104   0.25527   0.21805   0.00000  Uiso   1.00
Zn417  Zn    0.85910   0.14090   0.28278   0.00000  Uiso   1.00
Zn418  Zn    0.80125   0.12378   0.22258   0.00000  Uiso   1.00
Zn419  Zn    0.87833   0.19664   0.21188   0.00000  Uiso   1.00
Zn420  Zn    0.79465   0.20535   0.28277   0.00000  Uiso   1.00
C421   C     0.05281   0.49343   0.25868   0.00000  Uiso   1.00
C422   C     0.21747   0.49756   0.46171   0.00000  Uiso   1.00
C423   C     0.23916   0.47625   0.47968   0.00000  Uiso   1.00
C424   C     0.28105   0.50644   0.24106   0.00000  Uiso   1.00
C425   C     0.21791   0.46595   0.01866   0.00000  Uiso   1.00
C426   C     0.18478   0.49021   0.04255   0.00000  Uiso   1.00
C427   C     0.23050   0.43502   0.03570   0.00000  Uiso   1.00
C428   C     0.22386   0.44005   0.07745   0.00000  Uiso   1.00
C429   C     0.17503   0.49173   0.08392   0.00000  Uiso   1.00
C430   C     0.32715   0.50825   0.23756   0.00000  Uiso   1.00
C431   C     0.00745   0.49080   0.26374   0.00000  Uiso   1.00
C432   C     0.11531   0.56944   0.42040   0.00000  Uiso   1.00
C433   C     0.18206   0.65644   0.24162   0.00000  Uiso   1.00
C434   C     0.14850   0.34567   0.26129   0.00000  Uiso   1.00
C435   C     0.15474   0.38981   0.25936   0.00000  Uiso   1.00
C436   C     0.17687   0.61117   0.24187   0.00000  Uiso   1.00
C437   C     0.18858   0.47798   0.14392   0.00000  Uiso   1.00
C438   C     0.14568   0.52199   0.35663   0.00000  Uiso   1.00
C439   C     0.13844   0.53492   0.40053   0.00000  Uiso   1.00
C440   C     0.19662   0.46972   0.10096   0.00000  Uiso   1.00
C441   C     0.10319   0.57752   0.46255   0.00000  Uiso   1.00
C442   C     0.09962   0.60553   0.05265   0.00000  Uiso   1.00
C443   C     0.15379   0.51244   0.42330   0.00000  Uiso   1.00
C444   C     0.12150   0.62414   0.08552   0.00000  Uiso   1.00
C445   C     0.10920   0.33456   0.10318   0.00000  Uiso   1.00
C446   C     0.24497   0.39477   0.01038   0.00000  Uiso   1.00
C447   C     0.21137   0.35699   0.02158   0.00000  Uiso   1.00
C448   C     0.22701   0.65001   0.49693   0.00000  Uiso   1.00
C449   C     0.02483   0.52955   0.20418   0.00000  Uiso   1.00
C450   C     0.31128   0.46901   0.29902   0.00000  Uiso   1.00
C451   C     0.00087   0.45258   0.32470   0.00000  Uiso   1.00
C452   C     0.30155   0.42968   0.35724   0.00000  Uiso   1.00
C453   C     0.22644   0.34316   0.21950   0.00000  Uiso   1.00
C454   C     0.15283   0.52842   0.46299   0.00000  Uiso   1.00
C455   C     0.25787   0.34842   0.24499   0.00000  Uiso   1.00
C456   C     0.30210   0.36924   0.22380   0.00000  Uiso   1.00
C457   C     0.10254   0.65934   0.28047   0.00000  Uiso   1.00
C458   C     0.06674   0.35504   0.29281   0.00000  Uiso   1.00
C459   C     0.02325   0.66457   0.31176   0.00000  Uiso   1.00
C460   C     0.24707   0.41611   0.09683   0.00000  Uiso   1.00
C461   C     0.28847   0.44205   0.10275   0.00000  Uiso   1.00
C462   C     0.31020   0.41960   0.12482   0.00000  Uiso   1.00
C463   C     0.28686   0.47208   0.45921   0.00000  Uiso   1.00
C464   C     0.31600   0.49169   0.48571   0.00000  Uiso   1.00
C465   C     0.12456   0.55880   0.48438   0.00000  Uiso   1.00
C466   C     0.02980   0.48587   0.46460   0.00000  Uiso   1.00
C467   C     0.06192   0.59851   0.48227   0.00000  Uiso   1.00
C468   C     0.06819   0.64632   0.48157   0.00000  Uiso   1.00
C469   C     0.03426   0.33446   0.01523   0.00000  Uiso   1.00
C470   C     0.10126   0.59620   0.39766   0.00000  Uiso   1.00
C471   C     0.16110   0.46789   0.40981   0.00000  Uiso   1.00
C472   C     0.17755   0.51201   0.48261   0.00000  Uiso   1.00
C473   C     0.16427   0.51352   0.02412   0.00000  Uiso   1.00
C474   C     0.13234   0.53944   0.04541   0.00000  Uiso   1.00
C475   C     0.11821   0.56704   0.02663   0.00000  Uiso   1.00
H476   H     0.15261   0.51168   0.10406   0.00000  Uiso   1.00
H477   H     0.06477   0.59764   0.06724   0.00000  Uiso   1.00
H478   H     0.23385   0.65238   0.46475   0.00000  Uiso   1.00
H479   H     0.25670   0.64367   0.00305   0.00000  Uiso   1.00
H480   H     0.20178   0.62339   0.00463   0.00000  Uiso   1.00
H481   H     0.20412   0.35340   0.05346   0.00000  Uiso   1.00
H482   H     0.18080   0.36173   0.01600   0.00000  Uiso   1.00
H483   H     0.24738   0.39588   0.47892   0.00000  Uiso   1.00
H484   H     0.27716   0.38985   0.01227   0.00000  Uiso   1.00
H485   H     0.07936   0.56810   0.18519   0.00000  Uiso   1.00
H486   H     0.27890   0.45122   0.37696   0.00000  Uiso   1.00
H487   H     0.12029   0.54137   0.07713   0.00000  Uiso   1.00
H488   H     0.28261   0.40310   0.34412   0.00000  Uiso   1.00
H489   H     0.31871   0.41754   0.37508   0.00000  Uiso   1.00
H490   H     0.02362   0.43055   0.30590   0.00000  Uiso   1.00
H491   H     0.01919   0.47898   0.33880   0.00000  Uiso   1.00
H492   H     0.28957   0.49143   0.31898   0.00000  Uiso   1.00
H493   H     0.29207   0.44151   0.28741   0.00000  Uiso   1.00
H494   H     0.31605   0.35038   0.19515   0.00000  Uiso   1.00
H495   H     0.29942   0.40108   0.21812   0.00000  Uiso   1.00
H496   H     0.32418   0.37192   0.24276   0.00000  Uiso   1.00
H497   H     0.24481   0.36786   0.27354   0.00000  Uiso   1.00
H498   H     0.23281   0.50493   0.43170   0.00000  Uiso   1.00
H499   H     0.26175   0.65069   0.25174   0.00000  Uiso   1.00
H500   H     0.23935   0.65658   0.19119   0.00000  Uiso   1.00
H501   H     0.22492   0.37382   0.21049   0.00000  Uiso   1.00
H502   H     0.01595   0.63678   0.29133   0.00000  Uiso   1.00
H503   H     0.02341   0.65440   0.34009   0.00000  Uiso   1.00
H504   H     0.33068   0.35164   0.31796   0.00000  Uiso   1.00
H505   H     0.07403   0.38162   0.31447   0.00000  Uiso   1.00
H506   H     0.06410   0.36729   0.26627   0.00000  Uiso   1.00
H507   H     0.09323   0.63369   0.25891   0.00000  Uiso   1.00
H508   H     0.10260   0.64662   0.30770   0.00000  Uiso   1.00
H509   H     0.11956   0.35612   0.07999   0.00000  Uiso   1.00
H510   H     0.28824   0.41439   0.15464   0.00000  Uiso   1.00
H511   H     0.31892   0.38906   0.10779   0.00000  Uiso   1.00
H512   H     0.00673   0.43898   0.12861   0.00000  Uiso   1.00
H513   H     0.31128   0.44761   0.07333   0.00000  Uiso   1.00
H514   H     0.28117   0.47281   0.12000   0.00000  Uiso   1.00
H515   H     0.22531   0.40761   0.12580   0.00000  Uiso   1.00
H516   H     0.25613   0.38623   0.07897   0.00000  Uiso   1.00
H517   H     0.03380   0.45214   0.45641   0.00000  Uiso   1.00
H518   H     0.04111   0.50183   0.43734   0.00000  Uiso   1.00
H519   H     0.04991   0.49928   0.48477   0.00000  Uiso   1.00
H520   H     0.07374   0.33347   0.11644   0.00000  Uiso   1.00
H521   H     0.31265   0.52558   0.49361   0.00000  Uiso   1.00
H522   H     0.30683   0.47707   0.01358   0.00000  Uiso   1.00
H523   H     0.29295   0.43941   0.44816   0.00000  Uiso   1.00
H524   H     0.29775   0.48866   0.43230   0.00000  Uiso   1.00
H525   H     0.00137   0.65513   0.01313   0.00000  Uiso   1.00
H526   H     0.03720   0.66305   0.04454   0.00000  Uiso   1.00
H527   H     0.03888   0.36853   0.01307   0.00000  Uiso   1.00
H528   H     0.10089   0.66002   0.48346   0.00000  Uiso   1.00
H529   H     0.06502   0.65367   0.45320   0.00000  Uiso   1.00
H530   H     0.03727   0.58492   0.46661   0.00000  Uiso   1.00
H531   H     0.12532   0.34695   0.12677   0.00000  Uiso   1.00
H532   H     0.04607   0.58961   0.01231   0.00000  Uiso   1.00
H533   H     0.05512   0.60690   0.37453   0.00000  Uiso   1.00
H534   H     0.13775   0.40756   0.41513   0.00000  Uiso   1.00
H535   H     0.11118   0.60431   0.11013   0.00000  Uiso   1.00
H536   H     0.15707   0.62567   0.07345   0.00000  Uiso   1.00
H537   H     0.10448   0.63047   0.03377   0.00000  Uiso   1.00
O538   O     0.16667   0.50000   0.25000   0.00000  Uiso   1.00
O539   O     0.15693   0.45726   0.16625   0.00000  Uiso   1.00
O540   O     0.12687   0.53979   0.33749   0.00000  Uiso   1.00
O541   O     0.21088   0.50826   0.15877   0.00000  Uiso   1.00
O542   O     0.17198   0.49468   0.33749   0.00000  Uiso   1.00
O543   O     0.01796   0.52480   0.17166   0.00000  Uiso   1.00
O544   O     0.06118   0.55556   0.21006   0.00000  Uiso   1.00
O545   O     0.12548   0.62634   0.38467   0.00000  Uiso   1.00
O546   O     0.06080   0.58650   0.39064   0.00000  Uiso   1.00
O547   O     0.19500   0.45857   0.38613   0.00000  Uiso   1.00
O548   O     0.12925   0.43666   0.42584   0.00000  Uiso   1.00
O549   O     0.17849   0.41434   0.27821   0.00000  Uiso   1.00
O550   O     0.14581   0.59469   0.26767   0.00000  Uiso   1.00
O551   O     0.07452   0.46584   0.23607   0.00000  Uiso   1.00
O552   O     0.26785   0.52512   0.21805   0.00000  Uiso   1.00
O553   O     0.06990   0.52293   0.27820   0.00000  Uiso   1.00
O554   O     0.25440   0.48610   0.26768   0.00000  Uiso   1.00
O555   O     0.13800   0.40236   0.23607   0.00000  Uiso   1.00
O556   O     0.20437   0.58860   0.21805   0.00000  Uiso   1.00
Zn557  Zn    0.19244   0.47423   0.28278   0.00000  Uiso   1.00
Zn558  Zn    0.13459   0.45711   0.22258   0.00000  Uiso   1.00
Zn559  Zn    0.21166   0.52997   0.21188   0.00000  Uiso   1.00
Zn560  Zn    0.12798   0.53868   0.28277   0.00000  Uiso   1.00
C561   C     0.38614   0.49343   0.25868   0.00000  Uiso   1.00
C562   C     0.55080   0.49756   0.46171   0.00000  Uiso   1.00
C563   C     0.57250   0.47625   0.47968   0.00000  Uiso   1.00
C564   C     0.61438   0.50644   0.24106   0.00000  Uiso   1.00
C565   C     0.55124   0.46595   0.01866   0.00000  Uiso   1.00
C566   C     0.51811   0.49021   0.04255   0.00000  Uiso   1.00
C567   C     0.56383   0.43502   0.03570   0.00000  Uiso   1.00
C568   C     0.55719   0.44005   0.07745   0.00000  Uiso   1.00
C569   C     0.50836   0.49173   0.08392   0.00000  Uiso   1.00
C570   C     0.66049   0.50825   0.23756   0.00000  Uiso   1.00
C571   C     0.34078   0.49080   0.26374   0.00000  Uiso   1.00
C572   C     0.44864   0.56944   0.42040   0.00000  Uiso   1.00
C573   C     0.51540   0.65644   0.24162   0.00000  Uiso   1.00
C574   C     0.48183   0.34567   0.26129   0.00000  Uiso   1.00
C575   C     0.48807   0.38981   0.25936   0.00000  Uiso   1.00
C576   C     0.51020   0.61117   0.24187   0.00000  Uiso   1.00
C577   C     0.52191   0.47798   0.14392   0.00000  Uiso   1.00
C578   C     0.47901   0.52199   0.35663   0.00000  Uiso   1.00
C579   C     0.47177   0.53492   0.40053   0.00000  Uiso   1.00
C580   C     0.52995   0.46972   0.10096   0.00000  Uiso   1.00
C581   C     0.43652   0.57752   0.46255   0.00000  Uiso   1.00
C582   C     0.43295   0.60553   0.05265   0.00000  Uiso   1.00
C583   C     0.48713   0.51244   0.42330   0.00000  Uiso   1.00
C584   C     0.45483   0.62414   0.08552   0.00000  Uiso   1.00
C585   C     0.44254   0.33456   0.10318   0.00000  Uiso   1.00
C586   C     0.57831   0.39477   0.01038   0.00000  Uiso   1.00
C587   C     0.54471   0.35699   0.02158   0.00000  Uiso   1.00
C588   C     0.56034   0.65001   0.49693   0.00000  Uiso   1.00
C589   C     0.35816   0.52955   0.20418   0.00000  Uiso   1.00
C590   C     0.64461   0.46901   0.29902   0.00000  Uiso   1.00
C591   C     0.33420   0.45258   0.32470   0.00000  Uiso   1.00
C592   C     0.63489   0.42968   0.35724   0.00000  Uiso   1.00
C593   C     0.55977   0.34316   0.21950   0.00000  Uiso   1.00
C594   C     0.48616   0.52842   0.46299   0.00000  Uiso   1.00
C595   C     0.59120   0.34842   0.24499   0.00000  Uiso   1.00
C596   C     0.63543   0.36924   0.22380   0.00000  Uiso   1.00
C597   C     0.43587   0.65934   0.28047   0.00000  Uiso   1.00
C598   C     0.40007   0.35504   0.29281   0.00000  Uiso   1.00
C599   C     0.35658   0.66457   0.31176   0.00000  Uiso   1.00
C600   C     0.58040   0.41611   0.09683   0.00000  Uiso   1.00
C601   C     0.62180   0.44205   0.10275   0.00000  Uiso   1.00
C602   C     0.64354   0.41960   0.12482   0.00000  Uiso   1.00
C603   C     0.62020   0.47208   0.45921   0.00000  Uiso   1.00
C604   C     0.64933   0.49169   0.48571   0.00000  Uiso   1.00
C605   C     0.45790   0.55880   0.48438   0.00000  Uiso   1.00
C606   C     0.36313   0.48587   0.46460   0.00000  Uiso   1.00
C607   C     0.39525   0.59851   0.48227   0.00000  Uiso   1.00
C608   C     0.40153   0.64632   0.48157   0.00000  Uiso   1.00
C609   C     0.36760   0.33446   0.01523   0.00000  Uiso   1.00
C610   C     0.43460   0.59620   0.39766   0.00000  Uiso   1.00
C611   C     0.49444   0.46789   0.40981   0.00000  Uiso   1.00
C612   C     0.51088   0.51201   0.48261   0.00000  Uiso   1.00
C613   C     0.49761   0.51352   0.02412   0.00000  Uiso   1.00
C614   C     0.46568   0.53944   0.04541   0.00000  Uiso   1.00
C615   C     0.45155   0.56704   0.02663   0.00000  Uiso   1.00
H616   H     0.48594   0.51168   0.10406   0.00000  Uiso   1.00
H617   H     0.39810   0.59764   0.06724   0.00000  Uiso   1.00
H618   H     0.56718   0.65238   0.46475   0.00000  Uiso   1.00
H619   H     0.59003   0.64367   0.00305   0.00000  Uiso   1.00
H620   H     0.53511   0.62339   0.00463   0.00000  Uiso   1.00
H621   H     0.53745   0.35340   0.05346   0.00000  Uiso   1.00
H622   H     0.51413   0.36173   0.01600   0.00000  Uiso   1.00
H623   H     0.58072   0.39588   0.47892   0.00000  Uiso   1.00
H624   H     0.61049   0.38985   0.01227   0.00000  Uiso   1.00
H625   H     0.41270   0.56810   0.18519   0.00000  Uiso   1.00
H626   H     0.61223   0.45122   0.37696   0.00000  Uiso   1.00
H627   H     0.45363   0.54137   0.07713   0.00000  Uiso   1.00
H628   H     0.61594   0.40310   0.34412   0.00000  Uiso   1.00
H629   H     0.65205   0.41754   0.37508   0.00000  Uiso   1.00
H630   H     0.35695   0.43055   0.30590   0.00000  Uiso   1.00
H631   H     0.35253   0.47898   0.33880   0.00000  Uiso   1.00
H632   H     0.62290   0.49143   0.31898   0.00000  Uiso   1.00
H633   H     0.62540   0.44151   0.28741   0.00000  Uiso   1.00
H634   H     0.64938   0.35038   0.19515   0.00000  Uiso   1.00
H635   H     0.63275   0.40108   0.21812   0.00000  Uiso   1.00
H636   H     0.65751   0.37192   0.24276   0.00000  Uiso   1.00
H637   H     0.57814   0.36786   0.27354   0.00000  Uiso   1.00
H638   H     0.56615   0.50493   0.43170   0.00000  Uiso   1.00
H639   H     0.59508   0.65069   0.25174   0.00000  Uiso   1.00
H640   H     0.57269   0.65658   0.19119   0.00000  Uiso   1.00
H641   H     0.55825   0.37382   0.21049   0.00000  Uiso   1.00
H642   H     0.34928   0.63678   0.29133   0.00000  Uiso   1.00
H643   H     0.35675   0.65440   0.34009   0.00000  Uiso   1.00
H644   H     0.66401   0.35164   0.31796   0.00000  Uiso   1.00
H645   H     0.40737   0.38162   0.31447   0.00000  Uiso   1.00
H646   H     0.39744   0.36729   0.26627   0.00000  Uiso   1.00
H647   H     0.42656   0.63369   0.25891   0.00000  Uiso   1.00
H648   H     0.43593   0.64662   0.30770   0.00000  Uiso   1.00
H649   H     0.45290   0.35612   0.07999   0.00000  Uiso   1.00
H650   H     0.62157   0.41439   0.15464   0.00000  Uiso   1.00
H651   H     0.65225   0.38906   0.10779   0.00000  Uiso   1.00
H652   H     0.34007   0.43898   0.12861   0.00000  Uiso   1.00
H653   H     0.64461   0.44761   0.07333   0.00000  Uiso   1.00
H654   H     0.61451   0.47281   0.12000   0.00000  Uiso   1.00
H655   H     0.55864   0.40761   0.12580   0.00000  Uiso   1.00
H656   H     0.58946   0.38623   0.07897   0.00000  Uiso   1.00
H657   H     0.36713   0.45214   0.45641   0.00000  Uiso   1.00
H658   H     0.37444   0.50183   0.43734   0.00000  Uiso   1.00
H659   H     0.38324   0.49928   0.48477   0.00000  Uiso   1.00
H660   H     0.40707   0.33347   0.11644   0.00000  Uiso   1.00
H661   H     0.64598   0.52558   0.49361   0.00000  Uiso   1.00
H662   H     0.64016   0.47707   0.01358   0.00000  Uiso   1.00
H663   H     0.62628   0.43941   0.44816   0.00000  Uiso   1.00
H664   H     0.63109   0.48866   0.43230   0.00000  Uiso   1.00
H665   H     0.33471   0.65513   0.01313   0.00000  Uiso   1.00
H666   H     0.37053   0.66305   0.04454   0.00000  Uiso   1.00
H667   H     0.37221   0.36853   0.01307   0.00000  Uiso   1.00
H668   H     0.43423   0.66002   0.48346   0.00000  Uiso   1.00
H669   H     0.39836   0.65367   0.45320   0.00000  Uiso   1.00
H670   H     0.37060   0.58492   0.46661   0.00000  Uiso   1.00
H671   H     0.45865   0.34695   0.12677   0.00000  Uiso   1.00
H672   H     0.37941   0.58961   0.01231   0.00000  Uiso   1.00
H673   H     0.38845   0.60690   0.37453   0.00000  Uiso   1.00
H674   H     0.47108   0.40756   0.41513   0.00000  Uiso   1.00
H675   H     0.44451   0.60431   0.11013   0.00000  Uiso   1.00
H676   H     0.49041   0.62567   0.07345   0.00000  Uiso   1.00
H677   H     0.43781   0.63047   0.03377   0.00000  Uiso   1.00
O678   O     0.50000   0.50000   0.25000   0.00000  Uiso   1.00
O679   O     0.49027   0.45726   0.16625   0.00000  Uiso   1.00
O680   O     0.46020   0.53979   0.33749   0.00000  Uiso   1.00
O681   O     0.54421   0.50826   0.15877   0.00000  Uiso   1.00
O682   O     0.50532   0.49468   0.33749   0.00000  Uiso   1.00
O683   O     0.35129   0.52480   0.17166   0.00000  Uiso   1.00
O684   O     0.39451   0.55556   0.21006   0.00000  Uiso   1.00
O685   O     0.45881   0.62634   0.38467   0.00000  Uiso   1.00
O686   O     0.39414   0.58650   0.39064   0.00000  Uiso   1.00
O687   O     0.52834   0.45857   0.38613   0.00000  Uiso   1.00
O688   O     0.46258   0.43666   0.42584   0.00000  Uiso   1.00
O689   O     0.51182   0.41434   0.27821   0.00000  Uiso   1.00
O690   O     0.47914   0.59469   0.26767   0.00000  Uiso   1.00
O691   O     0.40785   0.46584   0.23607   0.00000  Uiso   1.00
O692   O     0.60119   0.52512   0.21805   0.00000  Uiso   1.00
O693   O     0.40323   0.52293   0.27820   0.00000  Uiso   1.00
O694   O     0.58773   0.48610   0.26768   0.00000  Uiso   1.00
O695   O     0.47133   0.40236   0.23607   0.00000  Uiso   1.00
O696   O     0.53771   0.58860   0.21805   0.00000  Uiso   1.00
Zn697  Zn    0.52577   0.47423   0.28278   0.00000  Uiso   1.00
Zn698  Zn    0.46792   0.45711   0.22258   0.00000  Uiso   1.00
Zn699  Zn    0.54500   0.52997   0.21188   0.00000  Uiso   1.00
Zn700  Zn    0.46131   0.53868   0.28277   0.00000  Uiso   1.00
C701   C     0.71948   0.49343   0.25868   0.00000  Uiso   1.00
C702   C     0.88413   0.49756   0.46171   0.00000  Uiso   1.00
C703   C     0.90583   0.47625   0.47968   0.00000  Uiso   1.00
C704   C     0.94772   0.50644   0.24106   0.00000  Uiso   1.00
C705   C     0.88458   0.46595   0.01866   0.00000  Uiso   1.00
C706   C     0.85144   0.49021   0.04255   0.00000  Uiso   1.00
C707   C     0.89716   0.43502   0.03570   0.00000  Uiso   1.00
C708   C     0.89052   0.44005   0.07745   0.00000  Uiso   1.00
C709   C     0.84170   0.49173   0.08392   0.00000  Uiso   1.00
C710   C     0.99382   0.50825   0.23756   0.00000  Uiso   1.00
C711   C     0.67411   0.49080   0.26374   0.00000  Uiso   1.00
C712   C     0.78197   0.56944   0.42040   0.00000  Uiso   1.00
C713   C     0.84873   0.65644   0.24162   0.00000  Uiso   1.00
C714   C     0.81517   0.34567   0.26129   0.00000  Uiso   1.00
C715   C     0.82141   0.38981   0.25936   0.00000  Uiso   1.00
C716   C     0.84353   0.61117   0.24187   0.00000  Uiso   1.00
C717   C     0.85525   0.47798   0.14392   0.00000  Uiso   1.00
C718   C     0.81235   0.52199   0.35663   0.00000  Uiso   1.00
C719   C     0.80511   0.53492   0.40053   0.00000  Uiso   1.00
C720   C     0.86329   0.46972   0.10096   0.00000  Uiso   1.00
C721   C     0.76986   0.57752   0.46255   0.00000  Uiso   1.00
C722   C     0.76629   0.60553   0.05265   0.00000  Uiso   1.00
C723   C     0.82046   0.51244   0.42330   0.00000  Uiso   1.00
C724   C     0.78817   0.62414   0.08552   0.00000  Uiso   1.00
C725   C     0.77587   0.33456   0.10318   0.00000  Uiso   1.00
C726   C     0.91164   0.39477   0.01038   0.00000  Uiso   1.00
C727   C     0.87804   0.35699   0.02158   0.00000  Uiso   1.00
C728   C     0.89367   0.65001   0.49693   0.00000  Uiso   1.00
C729   C     0.69150   0.52955   0.20418   0.00000  Uiso   1.00
C730   C     0.97795   0.46901   0.29902   0.00000  Uiso   1.00
C731   C     0.66754   0.45258   0.32470   0.00000  Uiso   1.00
C732   C     0.96822   0.42968   0.35724   0.00000  Uiso   1.00
C733   C     0.89310   0.34316   0.21950   0.00000  Uiso   1.00
C734   C     0.81949   0.52842   0.46299   0.00000  Uiso   1.00
C735   C     0.92454   0.34842   0.24499   0.00000  Uiso   1.00
C736   C     0.96876   0.36924   0.22380   0.00000  Uiso   1.00
C737   C     0.76921   0.65934   0.28047   0.00000  Uiso   1.00
C738   C     0.73340   0.35504   0.29281   0.00000  Uiso   1.00
C739   C     0.68991   0.66457   0.31176   0.00000  Uiso   1.00
C740   C     0.91373   0.41611   0.09683   0.00000  Uiso   1.00
C741   C     0.95513   0.44205   0.10275   0.00000  Uiso   1.00
C742   C     0.97687   0.41960   0.12482   0.00000  Uiso   1.00
C743   C     0.95353   0.47208   0.45921   0.00000  Uiso   1.00
C744   C     0.98267   0.49169   0.48571   0.00000  Uiso   1.00
C745   C     0.79123   0.55880   0.48438   0.00000  Uiso   1.00
C746   C     0.69646   0.48587   0.46460   0.00000  Uiso   1.00
C747   C     0.72858   0.59851   0.48227   0.00000  Uiso   1.00
C748   C     0.73486   0.64632   0.48157   0.00000  Uiso   1.00
C749   C     0.70093   0.33446   0.01523   0.00000  Uiso   1.00
C750   C     0.76793   0.59620   0.39766   0.00000  Uiso   1.00
C751   C     0.82777   0.46789   0.40981   0.00000  Uiso   1.00
C752   C     0.84421   0.51201   0.48261   0.00000  Uiso   1.00
C753   C     0.83094   0.51352   0.02412   0.00000  Uiso   1.00
C754   C     0.79901   0.53944   0.04541   0.00000  Uiso   1.00
C755   C     0.78488   0.56704   0.02663   0.00000  Uiso   1.00
H756   H     0.81928   0.51168   0.10406   0.00000  Uiso   1.00
H757   H     0.73143   0.59764   0.06724   0.00000  Uiso   1.00
H758   H     0.90051   0.65238   0.46475   0.00000  Uiso   1.00
H759   H     0.92336   0.64367   0.00305   0.00000  Uiso   1.00
H760   H     0.86844   0.62339   0.00463   0.00000  Uiso   1.00
H761   H     0.87079   0.35340   0.05346   0.00000  Uiso   1.00
H762   H     0.84747   0.36173   0.01600   0.00000  Uiso   1.00
H763   H     0.91405   0.39588   0.47892   0.00000  Uiso   1.00
H764   H     0.94383   0.38985   0.01227   0.00000  Uiso   1.00
H765   H     0.74603   0.56810   0.18519   0.00000  Uiso   1.00
H766   H     0.94556   0.45122   0.37696   0.00000  Uiso   1.00
H767   H     0.78696   0.54137   0.07713   0.00000  Uiso   1.00
H768   H     0.94927   0.40310   0.34412   0.00000  Uiso   1.00
H769   H     0.98538   0.41754   0.37508   0.00000  Uiso   1.00
H770   H     0.69028   0.43055   0.30590   0.00000  Uiso   1.00
H771   H     0.68586   0.47898   0.33880   0.00000  Uiso   1.00
H772   H     0.95623   0.49143   0.31898   0.00000  Uiso   1.00
H773   H     0.95873   0.44151   0.28741   0.00000  Uiso   1.00
H774   H     0.98272   0.35038   0.19515   0.00000  Uiso   1.00
H775   H     0.96609   0.40108   0.21812   0.00000  Uiso   1.00
H776   H     0.99085   0.37192   0.24276   0.00000  Uiso   1.00
H777   H     0.91147   0.36786   0.27354   0.00000  Uiso   1.00
H778   H     0.89948   0.50493   0.43170   0.00000  Uiso   1.00
H779   H     0.92842   0.65069   0.25174   0.00000  Uiso   1.00
H780   H     0.90602   0.65658   0.19119   0.00000  Uiso   1.00
H781   H     0.89159   0.37382   0.21049   0.00000  Uiso   1.00
H782   H     0.68262   0.63678   0.29133   0.00000  Uiso   1.00
H783   H     0.69008   0.65440   0.34009   0.00000  Uiso   1.00
H784   H     0.99735   0.35164   0.31796   0.00000  Uiso   1.00
H785   H     0.74070   0.38162   0.31447   0.00000  Uiso   1.00
H786   H     0.73077   0.36729   0.26627   0.00000  Uiso   1.00
H787   H     0.75990   0.63369   0.25891   0.00000  Uiso   1.00
H788   H     0.76926   0.64662   0.30770   0.00000  Uiso   1.00
H789   H     0.78623   0.35612   0.07999   0.00000  Uiso   1.00
H790   H     0.95491   0.41439   0.15464   0.00000  Uiso   1.00
H791   H     0.98559   0.38906   0.10779   0.00000  Uiso   1.00
H792   H     0.67340   0.43898   0.12861   0.00000  Uiso   1.00
H793   H     0.97795   0.44761   0.07333   0.00000  Uiso   1.00
H794   H     0.94784   0.47281   0.12000   0.00000  Uiso   1.00
H795   H     0.89198   0.40761   0.12580   0.00000  Uiso   1.00
H796   H     0.92279   0.38623   0.07897   0.00000  Uiso   1.00
H797   H     0.70046   0.45214   0.45641   0.00000  Uiso   1.00
H798   H     0.70777   0.50183   0.43734   0.00000  Uiso   1.00
H799   H     0.71657   0.49928   0.48477   0.00000  Uiso   1.00
H800   H     0.74041   0.33347   0.11644   0.00000  Uiso   1.00
H801   H     0.97931   0.52558   0.49361   0.00000  Uiso   1.00
H802   H     0.97350   0.47707   0.01358   0.00000  Uiso   1.00
H803   H     0.95962   0.43941   0.44816   0.00000  Uiso   1.00
H804   H     0.96442   0.48866   0.43230   0.00000  Uiso   1.00
H805   H     0.66804   0.65513   0.01313   0.00000  Uiso   1.00
H806   H     0.70387   0.66305   0.04454   0.00000  Uiso   1.00
H807   H     0.70554   0.36853   0.01307   0.00000  Uiso   1.00
H808   H     0.76756   0.66002   0.48346   0.00000  Uiso   1.00
H809   H     0.73169   0.65367   0.45320   0.00000  Uiso   1.00
H810   H     0.70394   0.58492   0.46661   0.00000  Uiso   1.00
H811   H     0.79199   0.34695   0.12677   0.00000  Uiso   1.00
H812   H     0.71274   0.58961   0.01231   0.00000  Uiso   1.00
H813   H     0.72179   0.60690   0.37453   0.00000  Uiso   1.00
H814   H     0.80442   0.40756   0.41513   0.00000  Uiso   1.00
H815   H     0.77785   0.60431   0.11013   0.00000  Uiso   1.00
H816   H     0.82374   0.62567   0.07345   0.00000  Uiso   1.00
H817   H     0.77115   0.63047   0.03377   0.00000  Uiso   1.00
O818   O     0.83333   0.50000   0.25000   0.00000  Uiso   1.00
O819   O     0.82360   0.45726   0.16625   0.00000  Uiso   1.00
O820   O     0.79354   0.53979   0.33749   0.00000  Uiso   1.00
O821   O     0.87755   0.50826   0.15877   0.00000  Uiso   1.00
O822   O     0.83865   0.49468   0.33749   0.00000  Uiso   1.00
O823   O     0.68463   0.52480   0.17166   0.00000  Uiso   1.00
O824   O     0.72785   0.55556   0.21006   0.00000  Uiso   1.00
O825   O     0.79214   0.62634   0.38467   0.00000  Uiso   1.00
O826   O     0.72747   0.58650   0.39064   0.00000  Uiso   1.00
O827   O     0.86167   0.45857   0.38613   0.00000  Uiso   1.00
O828   O     0.79592   0.43666   0.42584   0.00000  Uiso   1.00
O829   O     0.84515   0.41434   0.27821   0.00000  Uiso   1.00
O830   O     0.81247   0.59469   0.26767   0.00000  Uiso   1.00
O831   O     0.74119   0.46584   0.23607   0.00000  Uiso   1.00
O832   O     0.93452   0.52512   0.21805   0.00000  Uiso   1.00
O833   O     0.73656   0.52293   0.27820   0.00000  Uiso   1.00
O834   O     0.92106   0.48610   0.26768   0.00000  Uiso   1.00
O835   O     0.80467   0.40236   0.23607   0.00000  Uiso   1.00
O836   O     0.87104   0.58860   0.21805   0.00000  Uiso   1.00
Zn837  Zn    0.85910   0.47423   0.28278   0.00000  Uiso   1.00
Zn838  Zn    0.80125   0.45711   0.22258   0.00000  Uiso   1.00
Zn839  Zn    0.87833   0.52997   0.21188   0.00000  Uiso   1.00
Zn840  Zn    0.79465   0.53868   0.28277   0.00000  Uiso   1.00
C841   C     0.05281   0.82677   0.25868   0.00000  Uiso   1.00
C842   C     0.21747   0.83089   0.46171   0.00000  Uiso   1.00
C843   C     0.23916   0.80958   0.47968   0.00000  Uiso   1.00
C844   C     0.28105   0.83977   0.24106   0.00000  Uiso   1.00
C845   C     0.21791   0.79929   0.01866   0.00000  Uiso   1.00
C846   C     0.18478   0.82354   0.04255   0.00000  Uiso   1.00
C847   C     0.23050   0.76835   0.03570   0.00000  Uiso   1.00
C848   C     0.22386   0.77338   0.07745   0.00000  Uiso   1.00
C849   C     0.17503   0.82506   0.08392   0.00000  Uiso   1.00
C850   C     0.32715   0.84158   0.23756   0.00000  Uiso   1.00
C851   C     0.00745   0.82414   0.26374   0.00000  Uiso   1.00
C852   C     0.11531   0.90277   0.42040   0.00000  Uiso   1.00
C853   C     0.18206   0.98978   0.24162   0.00000  Uiso   1.00
C854   C     0.14850   0.67901   0.26129   0.00000  Uiso   1.00
C855   C     0.15474   0.72314   0.25936   0.00000  Uiso   1.00
C856   C     0.17687   0.94450   0.24187   0.00000  Uiso   1.00
C857   C     0.18858   0.81132   0.14392   0.00000  Uiso   1.00
C858   C     0.14568   0.85532   0.35663   0.00000  Uiso   1.00
C859   C     0.13844   0.86825   0.40053   0.00000  Uiso   1.00
C860   C     0.19662   0.80305   0.10096   0.00000  Uiso   1.00
C861   C     0.10319   0.91085   0.46255   0.00000  Uiso   1.00
C862   C     0.09962   0.93887   0.05265   0.00000  Uiso   1.00
C863   C     0.15379   0.84577   0.42330   0.00000  Uiso   1.00
C864   C     0.12150   0.95748   0.08552   0.00000  Uiso   1.00
C865   C     0.10920   0.66789   0.10318   0.00000  Uiso   1.00
C866   C     0.24497   0.72810   0.01038   0.00000  Uiso   1.00
C867   C     0.21137   0.69032   0.02158   0.00000  Uiso   1.00
C868   C     0.22701   0.98334   0.49693   0.00000  Uiso   1.00
C869   C     0.02483   0.86289   0.20418   0.00000  Uiso   1.00
C870   C     0.31128   0.80234   0.29902   0.00000  Uiso   1.00
C871   C     0.00087   0.78591   0.32470   0.00000  Uiso   1.00
C872   C     0.30155   0.76302   0.35724   0.00000  Uiso   1.00
C873   C     0.22644   0.67649   0.21950   0.00000  Uiso   1.00
C874   C     0.15283   0.86175   0.46299   0.00000  Uiso   1.00
C875   C     0.25787   0.68175   0.24499   0.00000  Uiso   1.00
C876   C     0.30210   0.70257   0.22380   0.00000  Uiso   1.00
C877   C     0.10254   0.99267   0.28047   0.00000  Uiso   1.00
C878   C     0.06674   0.68837   0.29281   0.00000  Uiso   1.00
C879   C     0.02325   0.99791   0.31176   0.00000  Uiso   1.00
C880   C     0.24707   0.74945   0.09683   0.00000  Uiso   1.00
C881   C     0.28847   0.77538   0.10275   0.00000  Uiso   1.00
C882   C     0.31020   0.75293   0.12482   0.00000  Uiso   1.00
C883   C     0.28686   0.80541   0.45921   0.00000  Uiso   1.00
C884   C     0.31600   0.82502   0.48571   0.00000  Uiso   1.00
C885   C     0.12456   0.89214   0.48438   0.00000  Uiso   1.00
C886   C     0.02980   0.81920   0.46460   0.00000  Uiso   1.00
C887   C     0.06192   0.93184   0.48227   0.00000  Uiso   1.00
C888   C     0.06819   0.97965   0.48157   0.00000  Uiso   1.00
C889   C     0.03426   0.66780   0.01523   0.00000  Uiso   1.00
C890   C     0.10126   0.92953   0.39766   0.00000  Uiso   1.00
C891   C     0.16110   0.80122   0.40981   0.00000  Uiso   1.00
C892   C     0.17755   0.84535   0.48261   0.00000  Uiso   1.00
C893   C     0.16427   0.84685   0.02412   0.00000  Uiso   1.00
C894   C     0.13234   0.87277   0.04541   0.00000  Uiso   1.00
C895   C     0.11821   0.90037   0.02663   0.00000  Uiso   1.00
H896   H     0.15261   0.84502   0.10406   0.00000  Uiso   1.00
H897   H     0.06477   0.93097   0.06724   0.00000  Uiso   1.00
H898   H     0.23385   0.98572   0.46475   0.00000  Uiso   1.00
H899   H     0.25670   0.97701   0.00305   0.00000  Uiso   1.00
H900   H     0.20178   0.95672   0.00463   0.00000  Uiso   1.00
H901   H     0.20412   0.68673   0.05346   0.00000  Uiso   1.00
H902   H     0.18080   0.69506   0.01600   0.00000  Uiso   1.00
H903   H     0.24738   0.72922   0.47892   0.00000  Uiso   1.00
H904   H     0.27716   0.72319   0.01227   0.00000  Uiso   1.00
H905   H     0.07936   0.90144   0.18519   0.00000  Uiso   1.00
H906   H     0.27890   0.78455   0.37696   0.00000  Uiso   1.00
H907   H     0.12029   0.87471   0.07713   0.00000  Uiso   1.00
H908   H     0.28261   0.73643   0.34412   0.00000  Uiso   1.00
H909   H     0.31871   0.75088   0.37508   0.00000  Uiso   1.00
H910   H     0.02362   0.76389   0.30590   0.00000  Uiso   1.00
H911   H     0.01919   0.81232   0.33880   0.00000  Uiso   1.00
H912   H     0.28957   0.82476   0.31898   0.00000  Uiso   1.00
H913   H     0.29207   0.77485   0.28741   0.00000  Uiso   1.00
H914   H     0.31605   0.68371   0.19515   0.00000  Uiso   1.00
H915   H     0.29942   0.73441   0.21812   0.00000  Uiso   1.00
H916   H     0.32418   0.70525   0.24276   0.00000  Uiso   1.00
H917   H     0.24481   0.70120   0.27354   0.00000  Uiso   1.00
H918   H     0.23281   0.83827   0.43170   0.00000  Uiso   1.00
H919   H     0.26175   0.98402   0.25174   0.00000  Uiso   1.00
H920   H     0.23935   0.98992   0.19119   0.00000  Uiso   1.00
H921   H     0.22492   0.70715   0.21049   0.00000  Uiso   1.00
H922   H     0.01595   0.97011   0.29133   0.00000  Uiso   1.00
H923   H     0.02341   0.98774   0.34009   0.00000  Uiso   1.00
H924   H     0.33068   0.68497   0.31796   0.00000  Uiso   1.00
H925   H     0.07403   0.71495   0.31447   0.00000  Uiso   1.00
H926   H     0.06410   0.70062   0.26627   0.00000  Uiso   1.00
H927   H     0.09323   0.96702   0.25891   0.00000  Uiso   1.00
H928   H     0.10260   0.97995   0.30770   0.00000  Uiso   1.00
H929   H     0.11956   0.68945   0.07999   0.00000  Uiso   1.00
H930   H     0.28824   0.74772   0.15464   0.00000  Uiso   1.00
H931   H     0.31892   0.72239   0.10779   0.00000  Uiso   1.00
H932   H     0.00673   0.77231   0.12861   0.00000  Uiso   1.00
H933   H     0.31128   0.78094   0.07333   0.00000  Uiso   1.00
H934   H     0.28117   0.80614   0.12000   0.00000  Uiso   1.00
H935   H     0.22531   0.74094   0.12580   0.00000  Uiso   1.00
H936   H     0.25613   0.71956   0.07897   0.00000  Uiso   1.00
H937   H     0.03380   0.78548   0.45641   0.00000  Uiso   1.00
H938   H     0.04111   0.83517   0.43734   0.00000  Uiso   1.00
H939   H     0.04991   0.83262   0.48477   0.00000  Uiso   1.00
H940   H     0.07374   0.66680   0.11644   0.00000  Uiso   1.00
H941   H     0.31265   0.85892   0.49361   0.00000  Uiso   1.00
H942   H     0.30683   0.81041   0.01358   0.00000  Uiso   1.00
H943   H     0.29295   0.77274   0.44816   0.00000  Uiso   1.00
H944   H     0.29775   0.82199   0.43230   0.00000  Uiso   1.00
H945   H     0.00137   0.98846   0.01313   0.00000  Uiso   1.00
H946   H     0.03720   0.99639   0.04454   0.00000  Uiso   1.00
H947   H     0.03888   0.70186   0.01307   0.00000  Uiso   1.00
H948   H     0.10089   0.99335   0.48346   0.00000  Uiso   1.00
H949   H     0.06502   0.98700   0.45320   0.00000  Uiso   1.00
H950   H     0.03727   0.91826   0.46661   0.00000  Uiso   1.00
H951   H     0.12532   0.68028   0.12677   0.00000  Uiso   1.00
H952   H     0.04607   0.92295   0.01231   0.00000  Uiso   1.00
H953   H     0.05512   0.94023   0.37453   0.00000  Uiso   1.00
H954   H     0.13775   0.74089   0.41513   0.00000  Uiso   1.00
H955   H     0.11118   0.93765   0.11013   0.00000  Uiso   1.00
H956   H     0.15707   0.95900   0.07345   0.00000  Uiso   1.00
H957   H     0.10448   0.96381   0.03377   0.00000  Uiso   1.00
O958   O     0.16667   0.83333   0.25000   0.00000  Uiso   1.00
O959   O     0.15693   0.79060   0.16625   0.00000  Uiso   1.00
O960   O     0.12687   0.87313   0.33749   0.00000  Uiso   1.00
O961   O     0.21088   0.84159   0.15877   0.00000  Uiso   1.00
O962   O     0.17198   0.82802   0.33749   0.00000  Uiso   1.00
O963   O     0.01796   0.85814   0.17166   0.00000  Uiso   1.00
O964   O     0.06118   0.88889   0.21006   0.00000  Uiso   1.00
O965   O     0.12548   0.95967   0.38467   0.00000  Uiso   1.00
O966   O     0.06080   0.91983   0.39064   0.00000  Uiso   1.00
O967   O     0.19500   0.79191   0.38613   0.00000  Uiso   1.00
O968   O     0.12925   0.76999   0.42584   0.00000  Uiso   1.00
O969   O     0.17849   0.74768   0.27821   0.00000  Uiso   1.00
O970   O     0.14581   0.92803   0.26767   0.00000  Uiso   1.00
O971   O     0.07452   0.79917   0.23607   0.00000  Uiso   1.00
O972   O     0.26785   0.85845   0.21805   0.00000  Uiso   1.00
O973   O     0.06990   0.85627   0.27820   0.00000  Uiso   1.00
O974   O     0.25440   0.81944   0.26768   0.00000  Uiso   1.00
O975   O     0.13800   0.73570   0.23607   0.00000  Uiso   1.00
O976   O     0.20437   0.92193   0.21805   0.00000  Uiso   1.00
Zn977  Zn    0.19244   0.80756   0.28278   0.00000  Uiso   1.00
Zn978  Zn    0.13459   0.79044   0.22258   0.00000  Uiso   1.00
Zn979  Zn    0.21166   0.86331   0.21188   0.00000  Uiso   1.00
Zn980  Zn    0.12798   0.87202   0.28277   0.00000  Uiso   1.00
C981   C     0.38614   0.82677   0.25868   0.00000  Uiso   1.00
C982   C     0.55080   0.83089   0.46171   0.00000  Uiso   1.00
C983   C     0.57250   0.80958   0.47968   0.00000  Uiso   1.00
C984   C     0.61438   0.83977   0.24106   0.00000  Uiso   1.00
C985   C     0.55124   0.79929   0.01866   0.00000  Uiso   1.00
C986   C     0.51811   0.82354   0.04255   0.00000  Uiso   1.00
C987   C     0.56383   0.76835   0.03570   0.00000  Uiso   1.00
C988   C     0.55719   0.77338   0.07745   0.00000  Uiso   1.00
C989   C     0.50836   0.82506   0.08392   0.00000  Uiso   1.00
C990   C     0.66049   0.84158   0.23756   0.00000  Uiso   1.00
C991   C     0.34078   0.82414   0.26374   0.00000  Uiso   1.00
C992   C     0.44864   0.90277   0.42040   0.00000  Uiso   1.00
C993   C     0.51540   0.98978   0.24162   0.00000  Uiso   1.00
C994   C     0.48183   0.67901   0.26129   0.00000  Uiso   1.00
C995   C     0.48807   0.72314   0.25936   0.00000  Uiso   1.00
C996   C     0.51020   0.94450   0.24187   0.00000  Uiso   1.00
C997   C     0.52191   0.81132   0.14392   0.00000  Uiso   1.00
C998   C     0.47901   0.85532   0.35663   0.00000  Uiso   1.00
C999   C     0.47177   0.86825   0.40053   0.00000  Uiso   1.00
C1000  C     0.52995   0.80305   0.10096   0.00000  Uiso   1.00
C1001  C     0.43652   0.91085   0.46255   0.00000  Uiso   1.00
C1002  C     0.43295   0.93887   0.05265   0.00000  Uiso   1.00
C1003  C     0.48713   0.84577   0.42330   0.00000  Uiso   1.00
C1004  C     0.45483   0.95748   0.08552   0.00000  Uiso   1.00
C1005  C     0.44254   0.66789   0.10318   0.00000  Uiso   1.00
C1006  C     0.57831   0.72810   0.01038   0.00000  Uiso   1.00
C1007  C     0.54471   0.69032   0.02158   0.00000  Uiso   1.00
C1008  C     0.56034   0.98334   0.49693   0.00000  Uiso   1.00
C1009  C     0.35816   0.86289   0.20418   0.00000  Uiso   1.00
C1010  C     0.64461   0.80234   0.29902   0.00000  Uiso   1.00
C1011  C     0.33420   0.78591   0.32470   0.00000  Uiso   1.00
C1012  C     0.63489   0.76302   0.35724   0.00000  Uiso   1.00
C1013  C     0.55977   0.67649   0.21950   0.00000  Uiso   1.00
C1014  C     0.48616   0.86175   0.46299   0.00000  Uiso   1.00
C1015  C     0.59120   0.68175   0.24499   0.00000  Uiso   1.00
C1016  C     0.63543   0.70257   0.22380   0.00000  Uiso   1.00
C1017  C     0.43587   0.99267   0.28047   0.00000  Uiso   1.00
C1018  C     0.40007   0.68837   0.29281   0.00000  Uiso   1.00
C1019  C     0.35658   0.99791   0.31176   0.00000  Uiso   1.00
C1020  C     0.58040   0.74945   0.09683   0.00000  Uiso   1.00
C1021  C     0.62180   0.77538   0.10275   0.00000  Uiso   1.00
C1022  C     0.64354   0.75293   0.12482   0.00000  Uiso   1.00
C1023  C     0.62020   0.80541   0.45921   0.00000  Uiso   1.00
C1024  C     0.64933   0.82502   0.48571   0.00000  Uiso   1.00
C1025  C     0.45790   0.89214   0.48438   0.00000  Uiso   1.00
C1026  C     0.36313   0.81920   0.46460   0.00000  Uiso   1.00
C1027  C     0.39525   0.93184   0.48227   0.00000  Uiso   1.00
C1028  C     0.40153   0.97965   0.48157   0.00000  Uiso   1.00
C1029  C     0.36760   0.66780   0.01523   0.00000  Uiso   1.00
C1030  C     0.43460   0.92953   0.39766   0.00000  Uiso   1.00
C1031  C     0.49444   0.80122   0.40981   0.00000  Uiso   1.00
C1032  C     0.51088   0.84535   0.48261   0.00000  Uiso   1.00
C1033  C     0.49761   0.84685   0.02412   0.00000  Uiso   1.00
C1034  C     0.46568   0.87277   0.04541   0.00000  Uiso   1.00
C1035  C     0.45155   0.90037   0.02663   0.00000  Uiso   1.00
H1036  H     0.48594   0.84502   0.10406   0.00000  Uiso   1.00
H1037  H     0.39810   0.93097   0.06724   0.00000  Uiso   1.00
H1038  H     0.56718   0.98572   0.46475   0.00000  Uiso   1.00
H1039  H     0.59003   0.97701   0.00305   0.00000  Uiso   1.00
H1040  H     0.53511   0.95672   0.00463   0.00000  Uiso   1.00
H1041  H     0.53745   0.68673   0.05346   0.00000  Uiso   1.00
H1042  H     0.51413   0.69506   0.01600   0.00000  Uiso   1.00
H1043  H     0.58072   0.72922   0.47892   0.00000  Uiso   1.00
H1044  H     0.61049   0.72319   0.01227   0.00000  Uiso   1.00
H1045  H     0.41270   0.90144   0.18519   0.00000  Uiso   1.00
H1046  H     0.61223   0.78455   0.37696   0.00000  Uiso   1.00
H1047  H     0.45363   0.87471   0.07713   0.00000  Uiso   1.00
H1048  H     0.61594   0.73643   0.34412   0.00000  Uiso   1.00
H1049  H     0.65205   0.75088   0.37508   0.00000  Uiso   1.00
H1050  H     0.35695   0.76389   0.30590   0.00000  Uiso   1.00
H1051  H     0.35253   0.81232   0.33880   0.00000  Uiso   1.00
H1052  H     0.62290   0.82476   0.31898   0.00000  Uiso   1.00
H1053  H     0.62540   0.77485   0.28741   0.00000  Uiso   1.00
H1054  H     0.64938   0.68371   0.19515   0.00000  Uiso   1.00
H1055  H     0.63275   0.73441   0.21812   0.00000  Uiso   1.00
H1056  H     0.65751   0.70525   0.24276   0.00000  Uiso   1.00
H1057  H     0.57814   0.70120   0.27354   0.00000  Uiso   1.00
H1058  H     0.56615   0.83827   0.43170   0.00000  Uiso   1.00
H1059  H     0.59508   0.98402   0.25174   0.00000  Uiso   1.00
H1060  H     0.57269   0.98992   0.19119   0.00000  Uiso   1.00
H1061  H     0.55825   0.70715   0.21049   0.00000  Uiso   1.00
H1062  H     0.34928   0.97011   0.29133   0.00000  Uiso   1.00
H1063  H     0.35675   0.98774   0.34009   0.00000  Uiso   1.00
H1064  H     0.66401   0.68497   0.31796   0.00000  Uiso   1.00
H1065  H     0.40737   0.71495   0.31447   0.00000  Uiso   1.00
H1066  H     0.39744   0.70062   0.26627   0.00000  Uiso   1.00
H1067  H     0.42656   0.96702   0.25891   0.00000  Uiso   1.00
H1068  H     0.43593   0.97995   0.30770   0.00000  Uiso   1.00
H1069  H     0.45290   0.68945   0.07999   0.00000  Uiso   1.00
H1070  H     0.62157   0.74772   0.15464   0.00000  Uiso   1.00
H1071  H     0.65225   0.72239   0.10779   0.00000  Uiso   1.00
H1072  H     0.34007   0.77231   0.12861   0.00000  Uiso   1.00
H1073  H     0.64461   0.78094   0.07333   0.00000  Uiso   1.00
H1074  H     0.61451   0.80614   0.12000   0.00000  Uiso   1.00
H1075  H     0.55864   0.74094   0.12580   0.00000  Uiso   1.00
H1076  H     0.58946   0.71956   0.07897   0.00000  Uiso   1.00
H1077  H     0.36713   0.78548   0.45641   0.00000  Uiso   1.00
H1078  H     0.37444   0.83517   0.43734   0.00000  Uiso   1.00
H1079  H     0.38324   0.83262   0.48477   0.00000  Uiso   1.00
H1080  H     0.40707   0.66680   0.11644   0.00000  Uiso   1.00
H1081  H     0.64598   0.85892   0.49361   0.00000  Uiso   1.00
H1082  H     0.64016   0.81041   0.01358   0.00000  Uiso   1.00
H1083  H     0.62628   0.77274   0.44816   0.00000  Uiso   1.00
H1084  H     0.63109   0.82199   0.43230   0.00000  Uiso   1.00
H1085  H     0.33471   0.98846   0.01313   0.00000  Uiso   1.00
H1086  H     0.37053   0.99639   0.04454   0.00000  Uiso   1.00
H1087  H     0.37221   0.70186   0.01307   0.00000  Uiso   1.00
H1088  H     0.43423   0.99335   0.48346   0.00000  Uiso   1.00
H1089  H     0.39836   0.98700   0.45320   0.00000  Uiso   1.00
H1090  H     0.37060   0.91826   0.46661   0.00000  Uiso   1.00
H1091  H     0.45865   0.68028   0.12677   0.00000  Uiso   1.00
H1092  H     0.37941   0.92295   0.01231   0.00000  Uiso   1.00
H1093  H     0.38845   0.94023   0.37453   0.00000  Uiso   1.00
H1094  H     0.47108   0.74089   0.41513   0.00000  Uiso   1.00
H1095  H     0.44451   0.93765   0.11013   0.00000  Uiso   1.00
H1096  H     0.49041   0.95900   0.07345   0.00000  Uiso   1.00
H1097  H     0.43781   0.96381   0.03377   0.00000  Uiso   1.00
O1098  O     0.50000   0.83333   0.25000   0.00000  Uiso   1.00
O1099  O     0.49027   0.79060   0.16625   0.00000  Uiso   1.00
O1100  O     0.46020   0.87313   0.33749   0.00000  Uiso   1.00
O1101  O     0.54421   0.84159   0.15877   0.00000  Uiso   1.00
O1102  O     0.50532   0.82802   0.33749   0.00000  Uiso   1.00
O1103  O     0.35129   0.85814   0.17166   0.00000  Uiso   1.00
O1104  O     0.39451   0.88889   0.21006   0.00000  Uiso   1.00
O1105  O     0.45881   0.95967   0.38467   0.00000  Uiso   1.00
O1106  O     0.39414   0.91983   0.39064   0.00000  Uiso   1.00
O1107  O     0.52834   0.79191   0.38613   0.00000  Uiso   1.00
O1108  O     0.46258   0.76999   0.42584   0.00000  Uiso   1.00
O1109  O     0.51182   0.74768   0.27821   0.00000  Uiso   1.00
O1110  O     0.47914   0.92803   0.26767   0.00000  Uiso   1.00
O1111  O     0.40785   0.79917   0.23607   0.00000  Uiso   1.00
O1112  O     0.60119   0.85845   0.21805   0.00000  Uiso   1.00
O1113  O     0.40323   0.85627   0.27820   0.00000  Uiso   1.00
O1114  O     0.58773   0.81944   0.26768   0.00000  Uiso   1.00
O1115  O     0.47133   0.73570   0.23607   0.00000  Uiso   1.00
O1116  O     0.53771   0.92193   0.21805   0.00000  Uiso   1.00
Zn1117 Zn    0.52577   0.80756   0.28278   0.00000  Uiso   1.00
Zn1118 Zn    0.46792   0.79044   0.22258   0.00000  Uiso   1.00
Zn1119 Zn    0.54500   0.86331   0.21188   0.00000  Uiso   1.00
Zn1120 Zn    0.46131   0.87202   0.28277   0.00000  Uiso   1.00
C1121  C     0.71948   0.82677   0.25868   0.00000  Uiso   1.00
C1122  C     0.88413   0.83089   0.46171   0.00000  Uiso   1.00
C1123  C     0.90583   0.80958   0.47968   0.00000  Uiso   1.00
C1124  C     0.94772   0.83977   0.24106   0.00000  Uiso   1.00
C1125  C     0.88458   0.79929   0.01866   0.00000  Uiso   1.00
C1126  C     0.85144   0.82354   0.04255   0.00000  Uiso   1.00
C1127  C     0.89716   0.76835   0.03570   0.00000  Uiso   1.00
C1128  C     0.89052   0.77338   0.07745   0.00000  Uiso   1.00
C1129  C     0.84170   0.82506   0.08392   0.00000  Uiso   1.00
C1130  C     0.99382   0.84158   0.23756   0.00000  Uiso   1.00
C1131  C     0.67411   0.82414   0.26374   0.00000  Uiso   1.00
C1132  C     0.78197   0.90277   0.42040   0.00000  Uiso   1.00
C1133  C     0.84873   0.98978   0.24162   0.00000  Uiso   1.00
C1134  C     0.81517   0.67901   0.26129   0.00000  Uiso   1.00
C1135  C     0.82141   0.72314   0.25936   0.00000  Uiso   1.00
C1136  C     0.84353   0.94450   0.24187   0.00000  Uiso   1.00
C1137  C     0.85525   0.81132   0.14392   0.00000  Uiso   1.00
C1138  C     0.81235   0.85532   0.35663   0.00000  Uiso   1.00
C1139  C     0.80511   0.86825   0.40053   0.00000  Uiso   1.00
C1140  C     0.86329   0.80305   0.10096   0.00000  Uiso   1.00
C1141  C     0.76986   0.91085   0.46255   0.00000  Uiso   1.00
C1142  C     0.76629   0.93887   0.05265   0.00000  Uiso   1.00
C1143  C     0.82046   0.84577   0.42330   0.00000  Uiso   1.00
C1144  C     0.78817   0.95748   0.08552   0.00000  Uiso   1.00
C1145  C     0.77587   0.66789   0.10318   0.00000  Uiso   1.00
C1146  C     0.91164   0.72810   0.01038   0.00000  Uiso   1.00
C1147  C     0.87804   0.69032   0.02158   0.00000  Uiso   1.00
C1148  C     0.89367   0.98334   0.49693   0.00000  Uiso   1.00
C1149  C     0.69150   0.86289   0.20418   0.00000  Uiso   1.00
C1150  C     0.97795   0.80234   0.29902   0.00000  Uiso   1.00
C1151  C     0.66754   0.78591   0.32470   0.00000  Uiso   1.00
C1152  C     0.96822   0.76302   0.35724   0.00000  Uiso   1.00
C1153  C     0.89310   0.67649   0.21950   0.00000  Uiso   1.00
C1154  C     0.81949   0.86175   0.46299   0.00000  Uiso   1.00
C1155  C     0.92454   0.68175   0.24499   0.00000  Uiso   1.00
C1156  C     0.96876   0.70257   0.22380   0.00000  Uiso   1.00
C1157  C     0.76921   0.99267   0.28047   0.00000  Uiso   1.00
C1158  C     0.73340   0.68837   0.29281   0.00000  Uiso   1.00
C1159  C     0.68991   0.99791   0.31176   0.00000  Uiso   1.00
C1160  C     0.91373   0.74945   0.09683   0.00000  Uiso   1.00
C1161  C     0.95513   0.77538   0.10275   0.00000  Uiso   1.00
C1162  C     0.97687   0.75293   0.12482   0.00000  Uiso   1.00
C1163  C     0.95353   0.80541   0.45921   0.00000  Uiso   1.00
C1164  C     0.98267   0.82502   0.48571   0.00000  Uiso   1.00
C1165  C     0.79123   0.89214   0.48438   0.00000  Uiso   1.00
C1166  C     0.69646   0.81920   0.46460   0.00000  Uiso   1.00
C1167  C     0.72858   0.93184   0.48227   0.00000  Uiso   1.00
C1168  C     0.73486   0.97965   0.48157   0.00000  Uiso   1.00
C1169  C     0.70093   0.66780   0.01523   0.00000  Uiso   1.00
C1170  C     0.76793   0.92953   0.39766   0.00000  Uiso   1.00
C1171  C     0.82777   0.80122   0.40981   0.00000  Uiso   1.00
C1172  C     0.84421   0.84535   0.48261   0.00000  Uiso   1.00
C1173  C     0.83094   0.84685   0.02412   0.00000  Uiso   1.00
C1174  C     0.79901   0.87277   0.04541   0.00000  Uiso   1.00
C1175  C     0.78488   0.90037   0.02663   0.00000  Uiso   1.00
H1176  H     0.81928   0.84502   0.10406   0.00000  Uiso   1.00
H1177  H     0.73143   0.93097   0.06724   0.00000  Uiso   1.00
H1178  H     0.90051   0.98572   0.46475   0.00000  Uiso   1.00
H1179  H     0.92336   0.97701   0.00305   0.00000  Uiso   1.00
H1180  H     0.86844   0.95672   0.00463   0.00000  Uiso   1.00
H1181  H     0.87079   0.68673   0.05346   0.00000  Uiso   1.00
H1182  H     0.84747   0.69506   0.01600   0.00000  Uiso   1.00
H1183  H     0.91405   0.72922   0.47892   0.00000  Uiso   1.00
H1184  H     0.94383   0.72319   0.01227   0.00000  Uiso   1.00
H1185  H     0.74603   0.90144   0.18519   0.00000  Uiso   1.00
H1186  H     0.94556   0.78455   0.37696   0.00000  Uiso   1.00
H1187  H     0.78696   0.87471   0.07713   0.00000  Uiso   1.00
H1188  H     0.94927   0.73643   0.34412   0.00000  Uiso   1.00
H1189  H     0.98538   0.75088   0.37508   0.00000  Uiso   1.00
H1190  H     0.69028   0.76389   0.30590   0.00000  Uiso   1.00
H1191  H     0.68586   0.81232   0.33880   0.00000  Uiso   1.00
H1192  H     0.95623   0.82476   0.31898   0.00000  Uiso   1.00
H1193  H     0.95873   0.77485   0.28741   0.00000  Uiso   1.00
H1194  H     0.98272   0.68371   0.19515   0.00000  Uiso   1.00
H1195  H     0.96609   0.73441   0.21812   0.00000  Uiso   1.00
H1196  H     0.99085   0.70525   0.24276   0.00000  Uiso   1.00
H1197  H     0.91147   0.70120   0.27354   0.00000  Uiso   1.00
H1198  H     0.89948   0.83827   0.43170   0.00000  Uiso   1.00
H1199  H     0.92842   0.98402   0.25174   0.00000  Uiso   1.00
H1200  H     0.90602   0.98992   0.19119   0.00000  Uiso   1.00
H1201  H     0.89159   0.70715   0.21049   0.00000  Uiso   1.00
H1202  H     0.68262   0.97011   0.29133   0.00000  Uiso   1.00
H1203  H     0.69008   0.98774   0.34009   0.00000  Uiso   1.00
H1204  H     0.99735   0.68497   0.31796   0.00000  Uiso   1.00
H1205  H     0.74070   0.71495   0.31447   0.00000  Uiso   1.00
H1206  H     0.73077   0.70062   0.26627   0.00000  Uiso   1.00
H1207  H     0.75990   0.96702   0.25891   0.00000  Uiso   1.00
H1208  H     0.76926   0.97995   0.30770   0.00000  Uiso   1.00
H1209  H     0.78623   0.68945   0.07999   0.00000  Uiso   1.00
H1210  H     0.95491   0.74772   0.15464   0.00000  Uiso   1.00
H1211  H     0.98559   0.72239   0.10779   0.00000  Uiso   1.00
H1212  H     0.67340   0.77231   0.12861   0.00000  Uiso   1.00
H1213  H     0.97795   0.78094   0.07333   0.00000  Uiso   1.00
H1214  H     0.94784   0.80614   0.12000   0.00000  Uiso   1.00
H1215  H     0.89198   0.74094   0.12580   0.00000  Uiso   1.00
H1216  H     0.92279   0.71956   0.07897   0.00000  Uiso   1.00
H1217  H     0.70046   0.78548   0.45641   0.00000  Uiso   1.00
H1218  H     0.70777   0.83517   0.43734   0.00000  Uiso   1.00
H1219  H     0.71657   0.83262   0.48477   0.00000  Uiso   1.00
H1220  H     0.74041   0.66680   0.11644   0.00000  Uiso   1.00
H1221  H     0.97931   0.85892   0.49361   0.00000  Uiso   1.00
H1222  H     0.97350   0.81041   0.01358   0.00000  Uiso   1.00
H1223  H     0.95962   0.77274   0.44816   0.00000  Uiso   1.00
H1224  H     0.96442   0.82199   0.43230   0.00000  Uiso   1.00
H1225  H     0.66804   0.98846   0.01313   0.00000  Uiso   1.00
H1226  H     0.70387   0.99639   0.04454   0.00000  Uiso   1.00
H1227  H     0.70554   0.70186   0.01307   0.00000  Uiso   1.00
H1228  H     0.76756   0.99335   0.48346   0.00000  Uiso   1.00
H1229  H     0.73169   0.98700   0.45320   0.00000  Uiso   1.00
H1230  H     0.70394   0.91826   0.46661   0.00000  Uiso   1.00
H1231  H     0.79199   0.68028   0.12677   0.00000  Uiso   1.00
H1232  H     0.71274   0.92295   0.01231   0.00000  Uiso   1.00
H1233  H     0.72179   0.94023   0.37453   0.00000  Uiso   1.00
H1234  H     0.80442   0.74089   0.41513   0.00000  Uiso   1.00
H1235  H     0.77785   0.93765   0.11013   0.00000  Uiso   1.00
H1236  H     0.82374   0.95900   0.07345   0.00000  Uiso   1.00
H1237  H     0.77115   0.96381   0.03377   0.00000  Uiso   1.00
O1238  O     0.83333   0.83333   0.25000   0.00000  Uiso   1.00
O1239  O     0.82360   0.79060   0.16625   0.00000  Uiso   1.00
O1240  O     0.79354   0.87313   0.33749   0.00000  Uiso   1.00
O1241  O     0.87755   0.84159   0.15877   0.00000  Uiso   1.00
O1242  O     0.83865   0.82802   0.33749   0.00000  Uiso   1.00
O1243  O     0.68463   0.85814   0.17166   0.00000  Uiso   1.00
O1244  O     0.72785   0.88889   0.21006   0.00000  Uiso   1.00
O1245  O     0.79214   0.95967   0.38467   0.00000  Uiso   1.00
O1246  O     0.72747   0.91983   0.39064   0.00000  Uiso   1.00
O1247  O     0.86167   0.79191   0.38613   0.00000  Uiso   1.00
O1248  O     0.79592   0.76999   0.42584   0.00000  Uiso   1.00
O1249  O     0.84515   0.74768   0.27821   0.00000  Uiso   1.00
O1250  O     0.81247   0.92803   0.26767   0.00000  Uiso   1.00
O1251  O     0.74119   0.79917   0.23607   0.00000  Uiso   1.00
O1252  O     0.93452   0.85845   0.21805   0.00000  Uiso   1.00
O1253  O     0.73656   0.85627   0.27820   0.00000  Uiso   1.00
O1254  O     0.92106   0.81944   0.26768   0.00000  Uiso   1.00
O1255  O     0.80467   0.73570   0.23607   0.00000  Uiso   1.00
O1256  O     0.87104   0.92193   0.21805   0.00000  Uiso   1.00
Zn1257 Zn    0.85910   0.80756   0.28278   0.00000  Uiso   1.00
Zn1258 Zn    0.80125   0.79044   0.22258   0.00000  Uiso   1.00
Zn1259 Zn    0.87833   0.86331   0.21188   0.00000  Uiso   1.00
Zn1260 Zn    0.79465   0.87202   0.28277   0.00000  Uiso   1.00
C1261  C     0.05281   0.16010   0.75868   0.00000  Uiso   1.00
C1262  C     0.21747   0.16423   0.96171   0.00000  Uiso   1.00
C1263  C     0.23916   0.14291   0.97968   0.00000  Uiso   1.00
C1264  C     0.28105   0.17310   0.74106   0.00000  Uiso   1.00
C1265  C     0.21791   0.13262   0.51866   0.00000  Uiso   1.00
C1266  C     0.18478   0.15687   0.54255   0.00000  Uiso   1.00
C1267  C     0.23050   0.10169   0.53570   0.00000  Uiso   1.00
C1268  C     0.22386   0.10672   0.57745   0.00000  Uiso   1.00
C1269  C     0.17503   0.15839   0.58392   0.00000  Uiso   1.00
C1270  C     0.32715   0.17491   0.73756   0.00000  Uiso   1.00
C1271  C     0.00745   0.15747   0.76374   0.00000  Uiso   1.00
C1272  C     0.11531   0.23610   0.92040   0.00000  Uiso   1.00
C1273  C     0.18206   0.32311   0.74162   0.00000  Uiso   1.00
C1274  C     0.14850   0.01234   0.76129   0.00000  Uiso   1.00
C1275  C     0.15474   0.05648   0.75936   0.00000  Uiso   1.00
C1276  C     0.17687   0.27784   0.74187   0.00000  Uiso   1.00
C1277  C     0.18858   0.14465   0.64392   0.00000  Uiso   1.00
C1278  C     0.14568   0.18866   0.85663   0.00000  Uiso   1.00
C1279  C     0.13844   0.20159   0.90053   0.00000  Uiso   1.00
C1280  C     0.19662   0.13639   0.60096   0.00000  Uiso   1.00
C1281  C     0.10319   0.24418   0.96255   0.00000  Uiso   1.00
C1282  C     0.09962   0.27220   0.55265   0.00000  Uiso   1.00
C1283  C     0.15379   0.17911   0.92330   0.00000  Uiso   1.00
C1284  C     0.12150   0.29081   0.58552   0.00000  Uiso   1.00
C1285  C     0.10920   0.00122   0.60318   0.00000  Uiso   1.00
C1286  C     0.24497   0.06144   0.51038   0.00000  Uiso   1.00
C1287  C     0.21137   0.02365   0.52158   0.00000  Uiso   1.00
C1288  C     0.22701   0.31667   0.99693   0.00000  Uiso   1.00
C1289  C     0.02483   0.19622   0.70418   0.00000  Uiso   1.00
C1290  C     0.31128   0.13567   0.79902   0.00000  Uiso   1.00
C1291  C     0.00087   0.11925   0.82470   0.00000  Uiso   1.00
C1292  C     0.30155   0.09635   0.85724   0.00000  Uiso   1.00
C1293  C     0.22644   0.00982   0.71950   0.00000  Uiso   1.00
C1294  C     0.15283   0.19508   0.96299   0.00000  Uiso   1.00
C1295  C     0.25787   0.01508   0.74499   0.00000  Uiso   1.00
C1296  C     0.30210   0.03591   0.72380   0.00000  Uiso   1.00
C1297  C     0.10254   0.32600   0.78047   0.00000  Uiso   1.00
C1298  C     0.06674   0.02171   0.79281   0.00000  Uiso   1.00
C1299  C     0.02325   0.33124   0.81176   0.00000  Uiso   1.00
C1300  C     0.24707   0.08278   0.59683   0.00000  Uiso   1.00
C1301  C     0.28847   0.10871   0.60275   0.00000  Uiso   1.00
C1302  C     0.31020   0.08626   0.62482   0.00000  Uiso   1.00
C1303  C     0.28686   0.13874   0.95921   0.00000  Uiso   1.00
C1304  C     0.31600   0.15836   0.98571   0.00000  Uiso   1.00
C1305  C     0.12456   0.22547   0.98438   0.00000  Uiso   1.00
C1306  C     0.02980   0.15254   0.96460   0.00000  Uiso   1.00
C1307  C     0.06192   0.26518   0.98227   0.00000  Uiso   1.00
C1308  C     0.06819   0.31299   0.98157   0.00000  Uiso   1.00
C1309  C     0.03426   0.00113   0.51523   0.00000  Uiso   1.00
C1310  C     0.10126   0.26286   0.89766   0.00000  Uiso   1.00
C1311  C     0.16110   0.13456   0.90981   0.00000  Uiso   1.00
C1312  C     0.17755   0.17868   0.98261   0.00000  Uiso   1.00
C1313  C     0.16427   0.18019   0.52412   0.00000  Uiso   1.00
C1314  C     0.13234   0.20610   0.54541   0.00000  Uiso   1.00
C1315  C     0.11821   0.23371   0.52663   0.00000  Uiso   1.00
H1316  H     0.15261   0.17835   0.60406   0.00000  Uiso   1.00
H1317  H     0.06477   0.26430   0.56724   0.00000  Uiso   1.00
H1318  H     0.23385   0.31905   0.96475   0.00000  Uiso   1.00
H1319  H     0.25670   0.31034   0.50305   0.00000  Uiso   1.00
H1320  H     0.20178   0.29005   0.50463   0.00000  Uiso   1.00
H1321  H     0.20412   0.02007   0.55346   0.00000  Uiso   1.00
H1322  H     0.18080   0.02839   0.51600   0.00000  Uiso   1.00
H1323  H     0.24738   0.06255   0.97892   0.00000  Uiso   1.00
H1324  H     0.27716   0.05652   0.51227   0.00000  Uiso   1.00
H1325  H     0.07936   0.23477   0.68519   0.00000  Uiso   1.00
H1326  H     0.27890   0.11788   0.87696   0.00000  Uiso   1.00
H1327  H     0.12029   0.20804   0.57713   0.00000  Uiso   1.00
H1328  H     0.28261   0.06977   0.84412   0.00000  Uiso   1.00
H1329  H     0.31871   0.08421   0.87508   0.00000  Uiso   1.00
H1330  H     0.02362   0.09722   0.80590   0.00000  Uiso   1.00
H1331  H     0.01919   0.14565   0.83880   0.00000  Uiso   1.00
H1332  H     0.28957   0.15809   0.81898   0.00000  Uiso   1.00
H1333  H     0.29207   0.10818   0.78741   0.00000  Uiso   1.00
H1334  H     0.31605   0.01705   0.69515   0.00000  Uiso   1.00
H1335  H     0.29942   0.06775   0.71812   0.00000  Uiso   1.00
H1336  H     0.32418   0.03859   0.74276   0.00000  Uiso   1.00
H1337  H     0.24481   0.03453   0.77354   0.00000  Uiso   1.00
H1338  H     0.23281   0.17160   0.93170   0.00000  Uiso   1.00
H1339  H     0.26175   0.31736   0.75174   0.00000  Uiso   1.00
H1340  H     0.23935   0.32325   0.69119   0.00000  Uiso   1.00
H1341  H     0.22492   0.04048   0.71049   0.00000  Uiso   1.00
H1342  H     0.01595   0.30345   0.79133   0.00000  Uiso   1.00
H1343  H     0.02341   0.32107   0.84009   0.00000  Uiso   1.00
H1344  H     0.33068   0.01831   0.81796   0.00000  Uiso   1.00
H1345  H     0.07403   0.04829   0.81447   0.00000  Uiso   1.00
H1346  H     0.06410   0.03396   0.76627   0.00000  Uiso   1.00
H1347  H     0.09323   0.30035   0.75891   0.00000  Uiso   1.00
H1348  H     0.10260   0.31328   0.80770   0.00000  Uiso   1.00
H1349  H     0.11956   0.02278   0.57999   0.00000  Uiso   1.00
H1350  H     0.28824   0.08106   0.65464   0.00000  Uiso   1.00
H1351  H     0.31892   0.05573   0.60779   0.00000  Uiso   1.00
H1352  H     0.00673   0.10565   0.62861   0.00000  Uiso   1.00
H1353  H     0.31128   0.11427   0.57333   0.00000  Uiso   1.00
H1354  H     0.28117   0.13947   0.62000   0.00000  Uiso   1.00
H1355  H     0.22531   0.07427   0.62580   0.00000  Uiso   1.00
H1356  H     0.25613   0.05289   0.57897   0.00000  Uiso   1.00
H1357  H     0.03380   0.11881   0.95641   0.00000  Uiso   1.00
H1358  H     0.04111   0.16850   0.93734   0.00000  Uiso   1.00
H1359  H     0.04991   0.16595   0.98477   0.00000  Uiso   1.00
H1360  H     0.07374   0.00014   0.61644   0.00000  Uiso   1.00
H1361  H     0.31265   0.19225   0.99361   0.00000  Uiso   1.00
H1362  H     0.30683   0.14374   0.51358   0.00000  Uiso   1.00
H1363  H     0.29295   0.10608   0.94816   0.00000  Uiso   1.00
H1364  H     0.29775   0.15533   0.93230   0.00000  Uiso   1.00
H1365  H     0.00137   0.32179   0.51313   0.00000  Uiso   1.00
H1366  H     0.03720   0.32972   0.54454   0.00000  Uiso   1.00
H1367  H     0.03888   0.03519   0.51307   0.00000  Uiso   1.00
H1368  H     0.10089   0.32668   0.98346   0.00000  Uiso   1.00
H1369  H     0.06502   0.32033   0.95320   0.00000  Uiso   1.00
H1370  H     0.03727   0.25159   0.96661   0.00000  Uiso   1.00
H1371  H     0.12532   0.01362   0.62677   0.00000  Uiso   1.00
H1372  H     0.04607   0.25628   0.51231   0.00000  Uiso   1.00
H1373  H     0.05512   0.27357   0.87453   0.00000  Uiso   1.00
H1374  H     0.13775   0.07423   0.91513   0.00000  Uiso   1.00
H1375  H     0.11118   0.27098   0.61013   0.00000  Uiso   1.00
H1376  H     0.15707   0.29234   0.57345   0.00000  Uiso   1.00
H1377  H     0.10448   0.29714   0.53377   0.00000  Uiso   1.00
O1378  O     0.16667   0.16667   0.75000   0.00000  Uiso   1.00
O1379  O     0.15693   0.12393   0.66625   0.00000  Uiso   1.00
O1380  O     0.12687   0.20646   0.83749   0.00000  Uiso   1.00
O1381  O     0.21088   0.17493   0.65877   0.00000  Uiso   1.00
O1382  O     0.17198   0.16135   0.83749   0.00000  Uiso   1.00
O1383  O     0.01796   0.19147   0.67166   0.00000  Uiso   1.00
O1384  O     0.06118   0.22222   0.71006   0.00000  Uiso   1.00
O1385  O     0.12548   0.29301   0.88467   0.00000  Uiso   1.00
O1386  O     0.06080   0.25317   0.89064   0.00000  Uiso   1.00
O1387  O     0.19500   0.12524   0.88613   0.00000  Uiso   1.00
O1388  O     0.12925   0.10332   0.92584   0.00000  Uiso   1.00
O1389  O     0.17849   0.08101   0.77821   0.00000  Uiso   1.00
O1390  O     0.14581   0.26136   0.76767   0.00000  Uiso   1.00
O1391  O     0.07452   0.13251   0.73607   0.00000  Uiso   1.00
O1392  O     0.26785   0.19179   0.71805   0.00000  Uiso   1.00
O1393  O     0.06990   0.18960   0.77820   0.00000  Uiso   1.00
O1394  O     0.25440   0.15277   0.76768   0.00000  Uiso   1.00
O1395  O     0.13800   0.06903   0.73607   0.00000  Uiso   1.00
O1396  O     0.20437   0.25527   0.71805   0.00000  Uiso   1.00
Zn1397 Zn    0.19244   0.14090   0.78278   0.00000  Uiso   1.00
Zn1398 Zn    0.13459   0.12378   0.72258   0.00000  Uiso   1.00
Zn1399 Zn    0.21166   0.19664   0.71188   0.00000  Uiso   1.00
Zn1400 Zn    0.12798   0.20535   0.78277   0.00000  Uiso   1.00
C1401  C     0.38614   0.16010   0.75868   0.00000  Uiso   1.00
C1402  C     0.55080   0.16423   0.96171   0.00000  Uiso   1.00
C1403  C     0.57250   0.14291   0.97968   0.00000  Uiso   1.00
C1404  C     0.61438   0.17310   0.74106   0.00000  Uiso   1.00
C1405  C     0.55124   0.13262   0.51866   0.00000  Uiso   1.00
C1406  C     0.51811   0.15687   0.54255   0.00000  Uiso   1.00
C1407  C     0.56383   0.10169   0.53570   0.00000  Uiso   1.00
C1408  C     0.55719   0.10672   0.57745   0.00000  Uiso   1.00
C1409  C     0.50836   0.15839   0.58392   0.00000  Uiso   1.00
C1410  C     0.66049   0.17491   0.73756   0.00000  Uiso   1.00
C1411  C     0.34078   0.15747   0.76374   0.00000  Uiso   1.00
C1412  C     0.44864   0.23610   0.92040   0.00000  Uiso   1.00
C1413  C     0.51540   0.32311   0.74162   0.00000  Uiso   1.00
C1414  C     0.48183   0.01234   0.76129   0.00000  Uiso   1.00
C1415  C     0.48807   0.05648   0.75936   0.00000  Uiso   1.00
C1416  C     0.51020   0.27784   0.74187   0.00000  Uiso   1.00
C1417  C     0.52191   0.14465   0.64392   0.00000  Uiso   1.00
C1418  C     0.47901   0.18866   0.85663   0.00000  Uiso   1.00
C1419  C     0.47177   0.20159   0.90053   0.00000  Uiso   1.00
C1420  C     0.52995   0.13639   0.60096   0.00000  Uiso   1.00
C1421  C     0.43652   0.24418   0.96255   0.00000  Uiso   1.00
C1422  C     0.43295   0.27220   0.55265   0.00000  Uiso   1.00
C1423  C     0.48713   0.17911   0.92330   0.00000  Uiso   1.00
C1424  C     0.45483   0.29081   0.58552   0.00000  Uiso   1.00
C1425  C     0.44254   0.00122   0.60318   0.00000  Uiso   1.00
C1426  C     0.57831   0.06144   0.51038   0.00000  Uiso   1.00
C1427  C     0.54471   0.02365   0.52158   0.00000  Uiso   1.00
C1428  C     0.56034   0.31667   0.99693   0.00000  Uiso   1.00
C1429  C     0.35816   0.19622   0.70418   0.00000  Uiso   1.00
C1430  C     0.64461   0.13567   0.79902   0.00000  Uiso   1.00
C1431  C     0.33420   0.11925   0.82470   0.00000  Uiso   1.00
C1432  C     0.63489   0.09635   0.85724   0.00000  Uiso   1.00
C1433  C     0.55977   0.00982   0.71950   0.00000  Uiso   1.00
C1434  C     0.48616   0.19508   0.96299   0.00000  Uiso   1.00
C1435  C     0.59120   0.01508   0.74499   0.00000  Uiso   1.00
C1436  C     0.63543   0.03591   0.72380   0.00000  Uiso   1.00
C1437  C     0.43587   0.32600   0.78047   0.00000  Uiso   1.00
C1438  C     0.40007   0.02171   0.79281   0.00000  Uiso   1.00
C1439  C     0.35658   0.33124   0.81176   0.00000  Uiso   1.00
C1440  C     0.58040   0.08278   0.59683   0.00000  Uiso   1.00
C1441  C     0.62180   0.10871   0.60275   0.00000  Uiso   1.00
C1442  C     0.64354   0.08626   0.62482   0.00000  Uiso   1.00
C1443  C     0.62020   0.13874   0.95921   0.00000  Uiso   1.00
C1444  C     0.64933   0.15836   0.98571   0.00000  Uiso   1.00
C1445  C     0.45790   0.22547   0.98438   0.00000  Uiso   1.00
C1446  C     0.36313   0.15254   0.96460   0.00000  Uiso   1.00
C1447  C     0.39525   0.26518   0.98227   0.00000  Uiso   1.00
C1448  C     0.40153   0.31299   0.98157   0.00000  Uiso   1.00
C1449  C     0.36760   0.00113   0.51523   0.00000  Uiso   1.00
C1450  C     0.43460   0.26286   0.89766   0.00000  Uiso   1.00
C1451  C     0.49444   0.13456   0.90981   0.00000  Uiso   1.00
C1452  C     0.51088   0.17868   0.98261   0.00000  Uiso   1.00
C1453  C     0.49761   0.18019   0.52412   0.00000  Uiso   1.00
C1454  C     0.46568   0.20610   0.54541   0.00000  Uiso   1.00
C1455  C     0.45155   0.23371   0.52663   0.00000  Uiso   1.00
H1456  H     0.48594   0.17835   0.60406   0.00000  Uiso   1.00
H1457  H     0.39810   0.26430   0.56724   0.00000  Uiso   1.00
H1458  H     0.56718   0.31905   0.96475   0.00000  Uiso   1.00
H1459  H     0.59003   0.31034   0.50305   0.00000  Uiso   1.00
H1460  H     0.53511   0.29005   0.50463   0.00000  Uiso   1.00
H1461  H     0.53745   0.02007   0.55346   0.00000  Uiso   1.00
H1462  H     0.51413   0.02839   0.51600   0.00000  Uiso   1.00
H1463  H     0.58072   0.06255   0.97892   0.00000  Uiso   1.00
H1464  H     0.61049   0.05652   0.51227   0.00000  Uiso   1.00
H1465  H     0.41270   0.23477   0.68519   0.00000  Uiso   1.00
H1466  H     0.61223   0.11788   0.87696   0.00000  Uiso   1.00
H1467  H     0.45363   0.20804   0.57713   0.00000  Uiso   1.00
H1468  H     0.61594   0.06977   0.84412   0.00000  Uiso   1.00
H1469  H     0.65205   0.08421   0.87508   0.00000  Uiso   1.00
H1470  H     0.35695   0.09722   0.80590   0.00000  Uiso   1.00
H1471  H     0.35253   0.14565   0.83880   0.00000  Uiso   1.00
H1472  H     0.62290   0.15809   0.81898   0.00000  Uiso   1.00
H1473  H     0.62540   0.10818   0.78741   0.00000  Uiso   1.00
H1474  H     0.64938   0.01705   0.69515   0.00000  Uiso   1.00
H1475  H     0.63275   0.06775   0.71812   0.00000  Uiso   1.00
H1476  H     0.65751   0.03859   0.74276   0.00000  Uiso   1.00
H1477  H     0.57814   0.03453   0.77354   0.00000  Uiso   1.00
H1478  H     0.56615   0.17160   0.93170   0.00000  Uiso   1.00
H1479  H     0.59508   0.31736   0.75174   0.00000  Uiso   1.00
H1480  H     0.57269   0.32325   0.69119   0.00000  Uiso   1.00
H1481  H     0.55825   0.04048   0.71049   0.00000  Uiso   1.00
H1482  H     0.34928   0.30345   0.79133   0.00000  Uiso   1.00
H1483  H     0.35675   0.32107   0.84009   0.00000  Uiso   1.00
H1484  H     0.66401   0.01831   0.81796   0.00000  Uiso   1.00
H1485  H     0.40737   0.04829   0.81447   0.00000  Uiso   1.00
H1486  H     0.39744   0.03396   0.76627   0.00000  Uiso   1.00
H1487  H     0.42656   0.30035   0.75891   0.00000  Uiso   1.00
H1488  H     0.43593   0.31328   0.80770   0.00000  Uiso   1.00
H1489  H     0.45290   0.02278   0.57999   0.00000  Uiso   1.00
H1490  H     0.62157   0.08106   0.65464   0.00000  Uiso   1.00
H1491  H     0.65225   0.05573   0.60779   0.00000  Uiso   1.00
H1492  H     0.34007   0.10565   0.62861   0.00000  Uiso   1.00
H1493  H     0.64461   0.11427   0.57333   0.00000  Uiso   1.00
H1494  H     0.61451   0.13947   0.62000   0.00000  Uiso   1.00
H1495  H     0.55864   0.07427   0.62580   0.00000  Uiso   1.00
H1496  H     0.58946   0.05289   0.57897   0.00000  Uiso   1.00
H1497  H     0.36713   0.11881   0.95641   0.00000  Uiso   1.00
H1498  H     0.37444   0.16850   0.93734   0.00000  Uiso   1.00
H1499  H     0.38324   0.16595   0.98477   0.00000  Uiso   1.00
H1500  H     0.40707   0.00014   0.61644   0.00000  Uiso   1.00
H1501  H     0.64598   0.19225   0.99361   0.00000  Uiso   1.00
H1502  H     0.64016   0.14374   0.51358   0.00000  Uiso   1.00
H1503  H     0.62628   0.10608   0.94816   0.00000  Uiso   1.00
H1504  H     0.63109   0.15533   0.93230   0.00000  Uiso   1.00
H1505  H     0.33471   0.32179   0.51313   0.00000  Uiso   1.00
H1506  H     0.37053   0.32972   0.54454   0.00000  Uiso   1.00
H1507  H     0.37221   0.03519   0.51307   0.00000  Uiso   1.00
H1508  H     0.43423   0.32668   0.98346   0.00000  Uiso   1.00
H1509  H     0.39836   0.32033   0.95320   0.00000  Uiso   1.00
H1510  H     0.37060   0.25159   0.96661   0.00000  Uiso   1.00
H1511  H     0.45865   0.01362   0.62677   0.00000  Uiso   1.00
H1512  H     0.37941   0.25628   0.51231   0.00000  Uiso   1.00
H1513  H     0.38845   0.27357   0.87453   0.00000  Uiso   1.00
H1514  H     0.47108   0.07423   0.91513   0.00000  Uiso   1.00
H1515  H     0.44451   0.27098   0.61013   0.00000  Uiso   1.00
H1516  H     0.49041   0.29234   0.57345   0.00000  Uiso   1.00
H1517  H     0.43781   0.29714   0.53377   0.00000  Uiso   1.00
O1518  O     0.50000   0.16667   0.75000   0.00000  Uiso   1.00
O1519  O     0.49027   0.12393   0.66625   0.00000  Uiso   1.00
O1520  O     0.46020   0.20646   0.83749   0.00000  Uiso   1.00
O1521  O     0.54421   0.17493   0.65877   0.00000  Uiso   1.00
O1522  O     0.50532   0.16135   0.83749   0.00000  Uiso   1.00
O1523  O     0.35129   0.19147   0.67166   0.00000  Uiso   1.00
O1524  O     0.39451   0.22222   0.71006   0.00000  Uiso   1.00
O1525  O     0.45881   0.29301   0.88467   0.00000  Uiso   1.00
O1526  O     0.39414   0.25317   0.89064   0.00000  Uiso   1.00
O1527  O     0.52834   0.12524   0.88613   0.00000  Uiso   1.00
O1528  O     0.46258   0.10332   0.92584   0.00000  Uiso   1.00
O1529  O     0.51182   0.08101   0.77821   0.00000  Uiso   1.00
O1530  O     0.47914   0.26136   0.76767   0.00000  Uiso   1.00
O1531  O     0.40785   0.13251   0.73607   0.00000  Uiso   1.00
O1532  O     0.60119   0.19179   0.71805   0.00000  Uiso   1.00
O1533  O     0.40323   0.18960   0.77820   0.00000  Uiso   1.00
O1534  O     0.58773   0.15277   0.76768   0.00000  Uiso   1.00
O1535  O     0.47133   0.06903   0.73607   0.00000  Uiso   1.00
O1536  O     0.53771   0.25527   0.71805   0.00000  Uiso   1.00
Zn1537 Zn    0.52577   0.14090   0.78278   0.00000  Uiso   1.00
Zn1538 Zn    0.46792   0.12378   0.72258   0.00000  Uiso   1.00
Zn1539 Zn    0.54500   0.19664   0.71188   0.00000  Uiso   1.00
Zn1540 Zn    0.46131   0.20535   0.78277   0.00000  Uiso   1.00
C1541  C     0.71948   0.16010   0.75868   0.00000  Uiso   1.00
C1542  C     0.88413   0.16423   0.96171   0.00000  Uiso   1.00
C1543  C     0.90583   0.14291   0.97968   0.00000  Uiso   1.00
C1544  C     0.94772   0.17310   0.74106   0.00000  Uiso   1.00
C1545  C     0.88458   0.13262   0.51866   0.00000  Uiso   1.00
C1546  C     0.85144   0.15687   0.54255   0.00000  Uiso   1.00
C1547  C     0.89716   0.10169   0.53570   0.00000  Uiso   1.00
C1548  C     0.89052   0.10672   0.57745   0.00000  Uiso   1.00
C1549  C     0.84170   0.15839   0.58392   0.00000  Uiso   1.00
C1550  C     0.99382   0.17491   0.73756   0.00000  Uiso   1.00
C1551  C     0.67411   0.15747   0.76374   0.00000  Uiso   1.00
C1552  C     0.78197   0.23610   0.92040   0.00000  Uiso   1.00
C1553  C     0.84873   0.32311   0.74162   0.00000  Uiso   1.00
C1554  C     0.81517   0.01234   0.76129   0.00000  Uiso   1.00
C1555  C     0.82141   0.05648   0.75936   0.00000  Uiso   1.00
C1556  C     0.84353   0.27784   0.74187   0.00000  Uiso   1.00
C1557  C     0.85525   0.14465   0.64392   0.00000  Uiso   1.00
C1558  C     0.81235   0.18866   0.85663   0.00000  Uiso   1.00
C1559  C     0.80511   0.20159   0.90053   0.00000  Uiso   1.00
C1560  C     0.86329   0.13639   0.60096   0.00000  Uiso   1.00
C1561  C     0.76986   0.24418   0.96255   0.00000  Uiso   1.00
C1562  C     0.76629   0.27220   0.55265   0.00000  Uiso   1.00
C1563  C     0.82046   0.17911   0.92330   0.00000  Uiso   1.00
C1564  C     0.78817   0.29081   0.58552   0.00000  Uiso   1.00
C1565  C     0.77587   0.00122   0.60318   0.00000  Uiso   1.00
C1566  C     0.91164   0.06144   0.51038   0.00000  Uiso   1.00
C1567  C     0.87804   0.02365   0.52158   0.00000  Uiso   1.00
C1568  C     0.89367   0.31667   0.99693   0.00000  Uiso   1.00
C1569  C     0.69150   0.19622   0.70418   0.00000  Uiso   1.00
C1570  C     0.97795   0.13567   0.79902   0.00000  Uiso   1.00
C1571  C     0.66754   0.11925   0.82470   0.00000  Uiso   1.00
C1572  C     0.96822   0.09635   0.85724   0.00000  Uiso   1.00
C1573  C     0.89310   0.00982   0.71950   0.00000  Uiso   1.00
C1574  C     0.81949   0.19508   0.96299   0.00000  Uiso   1.00
C1575  C     0.92454   0.01508   0.74499   0.00000  Uiso   1.00
C1576  C     0.96876   0.03591   0.72380   0.00000  Uiso   1.00
C1577  C     0.76921   0.32600   0.78047   0.00000  Uiso   1.00
C1578  C     0.73340   0.02171   0.79281   0.00000  Uiso   1.00
C1579  C     0.68991   0.33124   0.81176   0.00000  Uiso   1.00
C1580  C     0.91373   0.08278   0.59683   0.00000  Uiso   1.00
C1581  C     0.95513   0.10871   0.60275   0.00000  Uiso   1.00
C1582  C     0.97687   0.08626   0.62482   0.00000  Uiso   1.00
C1583  C     0.95353   0.13874   0.95921   0.00000  Uiso   1.00
C1584  C     0.98267   0.15836   0.98571   0.00000  Uiso   1.00
C1585  C     0.79123   0.22547   0.98438   0.00000  Uiso   1.00
C1586  C     0.69646   0.15254   0.96460   0.00000  Uiso   1.00
C1587  C     0.72858   0.26518   0.98227   0.00000  Uiso   1.00
C1588  C     0.73486   0.31299   0.98157   0.00000  Uiso   1.00
C1589  C     0.70093   0.00113   0.51523   0.00000  Uiso   1.00
C1590  C     0.76793   0.26286   0.89766   0.00000  Uiso   1.00
C1591  C     0.82777   0.13456   0.90981   0.00000  Uiso   1.00
C1592  C     0.84421   0.17868   0.98261   0.00000  Uiso   1.00
C1593  C     0.83094   0.18019   0.52412   0.00000  Uiso   1.00
C1594  C     0.79901   0.20610   0.54541   0.00000  Uiso   1.00
C1595  C     0.78488   0.23371   0.52663   0.00000  Uiso   1.00
H1596  H     0.81928   0.17835   0.60406   0.00000  Uiso   1.00
H1597  H     0.73143   0.26430   0.56724   0.00000  Uiso   1.00
H1598  H     0.90051   0.31905   0.96475   0.00000  Uiso   1.00
H1599  H     0.92336   0.31034   0.50305   0.00000  Uiso   1.00
H1600  H     0.86844   0.29005   0.50463   0.00000  Uiso   1.00
H1601  H     0.87079   0.02007   0.55346   0.00000  Uiso   1.00
H1602  H     0.84747   0.02839   0.51600   0.00000  Uiso   1.00
H1603  H     0.91405   0.06255   0.97892   0.00000  Uiso   1.00
H1604  H     0.94383   0.05652   0.51227   0.00000  Uiso   1.00
H1605  H     0.74603   0.23477   0.68519   0.00000  Uiso   1.00
H1606  H     0.94556   0.11788   0.87696   0.00000  Uiso   1.00
H1607  H     0.78696   0.20804   0.57713   0.00000  Uiso   1.00
H1608  H     0.94927   0.06977   0.84412   0.00000  Uiso   1.00
H1609  H     0.98538   0.08421   0.87508   0.00000  Uiso   1.00
H1610  H     0.69028   0.09722   0.80590   0.00000  Uiso   1.00
H1611  H     0.68586   0.14565   0.83880   0.00000  Uiso   1.00
H1612  H     0.95623   0.15809   0.81898   0.00000  Uiso   1.00
H1613  H     0.95873   0.10818   0.78741   0.00000  Uiso   1.00
H1614  H     0.98272   0.01705   0.69515   0.00000  Uiso   1.00
H1615  H     0.96609   0.06775   0.71812   0.00000  Uiso   1.00
H1616  H     0.99085   0.03859   0.74276   0.00000  Uiso   1.00
H1617  H     0.91147   0.03453   0.77354   0.00000  Uiso   1.00
H1618  H     0.89948   0.17160   0.93170   0.00000  Uiso   1.00
H1619  H     0.92842   0.31736   0.75174   0.00000  Uiso   1.00
H1620  H     0.90602   0.32325   0.69119   0.00000  Uiso   1.00
H1621  H     0.89159   0.04048   0.71049   0.00000  Uiso   1.00
H1622  H     0.68262   0.30345   0.79133   0.00000  Uiso   1.00
H1623  H     0.69008   0.32107   0.84009   0.00000  Uiso   1.00
H1624  H     0.99735   0.01831   0.81796   0.00000  Uiso   1.00
H1625  H     0.74070   0.04829   0.81447   0.00000  Uiso   1.00
H1626  H     0.73077   0.03396   0.76627   0.00000  Uiso   1.00
H1627  H     0.75990   0.30035   0.75891   0.00000  Uiso   1.00
H1628  H     0.76926   0.31328   0.80770   0.00000  Uiso   1.00
H1629  H     0.78623   0.02278   0.57999   0.00000  Uiso   1.00
H1630  H     0.95491   0.08106   0.65464   0.00000  Uiso   1.00
H1631  H     0.98559   0.05573   0.60779   0.00000  Uiso   1.00
H1632  H     0.67340   0.10565   0.62861   0.00000  Uiso   1.00
H1633  H     0.97795   0.11427   0.57333   0.00000  Uiso   1.00
H1634  H     0.94784   0.13947   0.62000   0.00000  Uiso   1.00
H1635  H     0.89198   0.07427   0.62580   0.00000  Uiso   1.00
H1636  H     0.92279   0.05289   0.57897   0.00000  Uiso   1.00
H1637  H     0.70046   0.11881   0.95641   0.00000  Uiso   1.00
H1638  H     0.70777   0.16850   0.93734   0.00000  Uiso   1.00
H1639  H     0.71657   0.16595   0.98477   0.00000  Uiso   1.00
H1640  H     0.74041   0.00014   0.61644   0.00000  Uiso   1.00
H1641  H     0.97931   0.19225   0.99361   0.00000  Uiso   1.00
H1642  H     0.97350   0.14374   0.51358   0.00000  Uiso   1.00
H1643  H     0.95962   0.10608   0.94816   0.00000  Uiso   1.00
H1644  H     0.96442   0.15533   0.93230   0.00000  Uiso   1.00
H1645  H     0.66804   0.32179   0.51313   0.00000  Uiso   1.00
H1646  H     0.70387   0.32972   0.54454   0.00000  Uiso   1.00
H1647  H     0.70554   0.03519   0.51307   0.00000  Uiso   1.00
H1648  H     0.76756   0.32668   0.98346   0.00000  Uiso   1.00
H1649  H     0.73169   0.32033   0.95320   0.00000  Uiso   1.00
H1650  H     0.70394   0.25159   0.96661   0.00000  Uiso   1.00
H1651  H     0.79199   0.01362   0.62677   0.00000  Uiso   1.00
H1652  H     0.71274   0.25628   0.51231   0.00000  Uiso   1.00
H1653  H     0.72179   0.27357   0.87453   0.00000  Uiso   1.00
H1654  H     0.80442   0.07423   0.91513   0.00000  Uiso   1.00
H1655  H     0.77785   0.27098   0.61013   0.00000  Uiso   1.00
H1656  H     0.82374   0.29234   0.57345   0.00000  Uiso   1.00
H1657  H     0.77115   0.29714   0.53377   0.00000  Uiso   1.00
O1658  O     0.83333   0.16667   0.75000   0.00000  Uiso   1.00
O1659  O     0.82360   0.12393   0.66625   0.00000  Uiso   1.00
O1660  O     0.79354   0.20646   0.83749   0.00000  Uiso   1.00
O1661  O     0.87755   0.17493   0.65877   0.00000  Uiso   1.00
O1662  O     0.83865   0.16135   0.83749   0.00000  Uiso   1.00
O1663  O     0.68463   0.19147   0.67166   0.00000  Uiso   1.00
O1664  O     0.72785   0.22222   0.71006   0.00000  Uiso   1.00
O1665  O     0.79214   0.29301   0.88467   0.00000  Uiso   1.00
O1666  O     0.72747   0.25317   0.89064   0.00000  Uiso   1.00
O1667  O     0.86167   0.12524   0.88613   0.00000  Uiso   1.00
O1668  O     0.79592   0.10332   0.92584   0.00000  Uiso   1.00
O1669  O     0.84515   0.08101   0.77821   0.00000  Uiso   1.00
O1670  O     0.81247   0.26136   0.76767   0.00000  Uiso   1.00
O1671  O     0.74119   0.13251   0.73607   0.00000  Uiso   1.00
O1672  O     0.93452   0.19179   0.71805   0.00000  Uiso   1.00
O1673  O     0.73656   0.18960   0.77820   0.00000  Uiso   1.00
O1674  O     0.92106   0.15277   0.76768   0.00000  Uiso   1.00
O1675  O     0.80467   0.06903   0.73607   0.00000  Uiso   1.00
O1676  O     0.87104   0.25527   0.71805   0.00000  Uiso   1.00
Zn1677 Zn    0.85910   0.14090   0.78278   0.00000  Uiso   1.00
Zn1678 Zn    0.80125   0.12378   0.72258   0.00000  Uiso   1.00
Zn1679 Zn    0.87833   0.19664   0.71188   0.00000  Uiso   1.00
Zn1680 Zn    0.79465   0.20535   0.78277   0.00000  Uiso   1.00
C1681  C     0.05281   0.49343   0.75868   0.00000  Uiso   1.00
C1682  C     0.21747   0.49756   0.96171   0.00000  Uiso   1.00
C1683  C     0.23916   0.47625   0.97968   0.00000  Uiso   1.00
C1684  C     0.28105   0.50644   0.74106   0.00000  Uiso   1.00
C1685  C     0.21791   0.46595   0.51866   0.00000  Uiso   1.00
C1686  C     0.18478   0.49021   0.54255   0.00000  Uiso   1.00
C1687  C     0.23050   0.43502   0.53570   0.00000  Uiso   1.00
C1688  C     0.22386   0.44005   0.57745   0.00000  Uiso   1.00
C1689  C     0.17503   0.49173   0.58392   0.00000  Uiso   1.00
C1690  C     0.32715   0.50825   0.73756   0.00000  Uiso   1.00
C1691  C     0.00745   0.49080   0.76374   0.00000  Uiso   1.00
C1692  C     0.11531   0.56944   0.92040   0.00000  Uiso   1.00
C1693  C     0.18206   0.65644   0.74162   0.00000  Uiso   1.00
C1694  C     0.14850   0.34567   0.76129   0.00000  Uiso   1.00
C1695  C     0.15474   0.38981   0.75936   0.00000  Uiso   1.00
C1696  C     0.17687   0.61117   0.74187   0.00000  Uiso   1.00
C1697  C     0.18858   0.47798   0.64392   0.00000  Uiso   1.00
C1698  C     0.14568   0.52199   0.85663   0.00000  Uiso   1.00
C1699  C     0.13844   0.53492   0.90053   0.00000  Uiso   1.00
C1700  C     0.19662   0.46972   0.60096   0.00000  Uiso   1.00
C1701  C     0.10319   0.57752   0.96255   0.00000  Uiso   1.00
C1702  C     0.09962   0.60553   0.55265   0.00000  Uiso   1.00
C1703  C     0.15379   0.51244   0.92330   0.00000  Uiso   1.00
C1704  C     0.12150   0.62414   0.58552   0.00000  Uiso   1.00
C1705  C     0.10920   0.33456   0.60318   0.00000  Uiso   1.00
C1706  C     0.24497   0.39477   0.51038   0.00000  Uiso   1.00
C1707  C     0.21137   0.35699   0.52158   0.00000  Uiso   1.00
C1708  C     0.22701   0.65001   0.99693   0.00000  Uiso   1.00
C1709  C     0.02483   0.52955   0.70418   0.00000  Uiso   1.00
C1710  C     0.31128   0.46901   0.79902   0.00000  Uiso   1.00
C1711  C     0.00087   0.45258   0.82470   0.00000  Uiso   1.00
C1712  C     0.30155   0.42968   0.85724   0.00000  Uiso   1.00
C1713  C     0.22644   0.34316   0.71950   0.00000  Uiso   1.00
C1714  C     0.15283   0.52842   0.96299   0.00000  Uiso   1.00
C1715  C     0.25787   0.34842   0.74499   0.00000  Uiso   1.00
C1716  C     0.30210   0.36924   0.72380   0.00000  Uiso   1.00
C1717  C     0.10254   0.65934   0.78047   0.00000  Uiso   1.00
C1718  C     0.06674   0.35504   0.79281   0.00000  Uiso   1.00
C1719  C     0.02325   0.66457   0.81176   0.00000  Uiso   1.00
C1720  C     0.24707   0.41611   0.59683   0.00000  Uiso   1.00
C1721  C     0.28847   0.44205   0.60275   0.00000  Uiso   1.00
C1722  C     0.31020   0.41960   0.62482   0.00000  Uiso   1.00
C1723  C     0.28686   0.47208   0.95921   0.00000  Uiso   1.00
C1724  C     0.31600   0.49169   0.98571   0.00000  Uiso   1.00
C1725  C     0.12456   0.55880   0.98438   0.00000  Uiso   1.00
C1726  C     0.02980   0.48587   0.96460   0.00000  Uiso   1.00
C1727  C     0.06192   0.59851   0.98227   0.00000  Uiso   1.00
C1728  C     0.06819   0.64632   0.98157   0.00000  Uiso   1.00
C1729  C     0.03426   0.33446   0.51523   0.00000  Uiso   1.00
C1730  C     0.10126   0.59620   0.89766   0.00000  Uiso   1.00
C1731  C     0.16110   0.46789   0.90981   0.00000  Uiso   1.00
C1732  C     0.17755   0.51201   0.98261   0.00000  Uiso   1.00
C1733  C     0.16427   0.51352   0.52412   0.00000  Uiso   1.00
C1734  C     0.13234   0.53944   0.54541   0.00000  Uiso   1.00
C1735  C     0.11821   0.56704   0.52663   0.00000  Uiso   1.00
H1736  H     0.15261   0.51168   0.60406   0.00000  Uiso   1.00
H1737  H     0.06477   0.59764   0.56724   0.00000  Uiso   1.00
H1738  H     0.23385   0.65238   0.96475   0.00000  Uiso   1.00
H1739  H     0.25670   0.64367   0.50305   0.00000  Uiso   1.00
H1740  H     0.20178   0.62339   0.50463   0.00000  Uiso   1.00
H1741  H     0.20412   0.35340   0.55346   0.00000  Uiso   1.00
H1742  H     0.18080   0.36173   0.51600   0.00000  Uiso   1.00
H1743  H     0.24738   0.39588   0.97892   0.00000  Uiso   1.00
H1744  H     0.27716   0.38985   0.51227   0.00000  Uiso   1.00
H1745  H     0.07936   0.56810   0.68519   0.00000  Uiso   1.00
H1746  H     0.27890   0.45122   0.87696   0.00000  Uiso   1.00
H1747  H     0.12029   0.54137   0.57713   0.00000  Uiso   1.00
H1748  H     0.28261   0.40310   0.84412   0.00000  Uiso   1.00
H1749  H     0.31871   0.41754   0.87508   0.00000  Uiso   1.00
H1750  H     0.02362   0.43055   0.80590   0.00000  Uiso   1.00
H1751  H     0.01919   0.47898   0.83880   0.00000  Uiso   1.00
H1752  H     0.28957   0.49143   0.81898   0.00000  Uiso   1.00
H1753  H     0.29207   0.44151   0.78741   0.00000  Uiso   1.00
H1754  H     0.31605   0.35038   0.69515   0.00000  Uiso   1.00
H1755  H     0.29942   0.40108   0.71812   0.00000  Uiso   1.00
H1756  H     0.32418   0.37192   0.74276   0.00000  Uiso   1.00
H1757  H     0.24481   0.36786   0.77354   0.00000  Uiso   1.00
H1758  H     0.23281   0.50493   0.93170   0.00000  Uiso   1.00
H1759  H     0.26175   0.65069   0.75174   0.00000  Uiso   1.00
H1760  H     0.23935   0.65658   0.69119   0.00000  Uiso   1.00
H1761  H     0.22492   0.37382   0.71049   0.00000  Uiso   1.00
H1762  H     0.01595   0.63678   0.79133   0.00000  Uiso   1.00
H1763  H     0.02341   0.65440   0.84009   0.00000  Uiso   1.00
H1764  H     0.33068   0.35164   0.81796   0.00000  Uiso   1.00
H1765  H     0.07403   0.38162   0.81447   0.00000  Uiso   1.00
H1766  H     0.06410   0.36729   0.76627   0.00000  Uiso   1.00
H1767  H     0.09323   0.63369   0.75891   0.00000  Uiso   1.00
H1768  H     0.10260   0.64662   0.80770   0.00000  Uiso   1.00
H1769  H     0.11956   0.35612   0.57999   0.00000  Uiso   1.00
H1770  H     0.28824   0.41439   0.65464   0.00000  Uiso   1.00
H1771  H     0.31892   0.38906   0.60779   0.00000  Uiso   1.00
H1772  H     0.00673   0.43898   0.62861   0.00000  Uiso   1.00
H1773  H     0.31128   0.44761   0.57333   0.00000  Uiso   1.00
H1774  H     0.28117   0.47281   0.62000   0.00000  Uiso   1.00
H1775  H     0.22531   0.40761   0.62580   0.00000  Uiso   1.00
H1776  H     0.25613   0.38623   0.57897   0.00000  Uiso   1.00
H1777  H     0.03380   0.45214   0.95641   0.00000  Uiso   1.00
H1778  H     0.04111   0.50183   0.93734   0.00000  Uiso   1.00
H1779  H     0.04991   0.49928   0.98477   0.00000  Uiso   1.00
H1780  H     0.07374   0.33347   0.61644   0.00000  Uiso   1.00
H1781  H     0.31265   0.52558   0.99361   0.00000  Uiso   1.00
H1782  H     0.30683   0.47707   0.51358   0.00000  Uiso   1.00
H1783  H     0.29295   0.43941   0.94816   0.00000  Uiso   1.00
H1784  H     0.29775   0.48866   0.93230   0.00000  Uiso   1.00
H1785  H     0.00137   0.65513   0.51313   0.00000  Uiso   1.00
H1786  H     0.03720   0.66305   0.54454   0.00000  Uiso   1.00
H1787  H     0.03888   0.36853   0.51307   0.00000  Uiso   1.00
H1788  H     0.10089   0.66002   0.98346   0.00000  Uiso   1.00
H1789  H     0.06502   0.65367   0.95320   0.00000  Uiso   1.00
H1790  H     0.03727   0.58492   0.96661   0.00000  Uiso   1.00
H1791  H     0.12532   0.34695   0.62677   0.00000  Uiso   1.00
H1792  H     0.04607   0.58961   0.51231   0.00000  Uiso   1.00
H1793  H     0.05512   0.60690   0.87453   0.00000  Uiso   1.00
H1794  H     0.13775   0.40756   0.91513   0.00000  Uiso   1.00
H1795  H     0.11118   0.60431   0.61013   0.00000  Uiso   1.00
H1796  H     0.15707   0.62567   0.57345   0.00000  Uiso   1.00
H1797  H     0.10448   0.63047   0.53377   0.00000  Uiso   1.00
O1798  O     0.16667   0.50000   0.75000   0.00000  Uiso   1.00
O1799  O     0.15693   0.45726   0.66625   0.00000  Uiso   1.00
O1800  O     0.12687   0.53979   0.83749   0.00000  Uiso   1.00
O1801  O     0.21088   0.50826   0.65877   0.00000  Uiso   1.00
O1802  O     0.17198   0.49468   0.83749   0.00000  Uiso   1.00
O1803  O     0.01796   0.52480   0.67166   0.00000  Uiso   1.00
O1804  O     0.06118   0.55556   0.71006   0.00000  Uiso   1.00
O1805  O     0.12548   0.62634   0.88467   0.00000  Uiso   1.00
O1806  O     0.06080   0.58650   0.89064   0.00000  Uiso   1.00
O1807  O     0.19500   0.45857   0.88613   0.00000  Uiso   1.00
O1808  O     0.12925   0.43666   0.92584   0.00000  Uiso   1.00
O1809  O     0.17849   0.41434   0.77821   0.00000  Uiso   1.00
O1810  O     0.14581   0.59469   0.76767   0.00000  Uiso   1.00
O1811  O     0.07452   0.46584   0.73607   0.00000  Uiso   1.00
O1812  O     0.26785   0.52512   0.71805   0.00000  Uiso   1.00
O1813  O     0.06990   0.52293   0.77820   0.00000  Uiso   1.00
O1814  O     0.25440   0.48610   0.76768   0.00000  Uiso   1.00
O1815  O     0.13800   0.40236   0.73607   0.00000  Uiso   1.00
O1816  O     0.20437   0.58860   0.71805   0.00000  Uiso   1.00
Zn1817 Zn    0.19244   0.47423   0.78278   0.00000  Uiso   1.00
Zn1818 Zn    0.13459   0.45711   0.72258   0.00000  Uiso   1.00
Zn1819 Zn    0.21166   0.52997   0.71188   0.00000  Uiso   1.00
Zn1820 Zn    0.12798   0.53868   0.78277   0.00000  Uiso   1.00
C1821  C     0.38614   0.49343   0.75868   0.00000  Uiso   1.00
C1822  C     0.55080   0.49756   0.96171   0.00000  Uiso   1.00
C1823  C     0.57250   0.47625   0.97968   0.00000  Uiso   1.00
C1824  C     0.61438   0.50644   0.74106   0.00000  Uiso   1.00
C1825  C     0.55124   0.46595   0.51866   0.00000  Uiso   1.00
C1826  C     0.51811   0.49021   0.54255   0.00000  Uiso   1.00
C1827  C     0.56383   0.43502   0.53570   0.00000  Uiso   1.00
C1828  C     0.55719   0.44005   0.57745   0.00000  Uiso   1.00
C1829  C     0.50836   0.49173   0.58392   0.00000  Uiso   1.00
C1830  C     0.66049   0.50825   0.73756   0.00000  Uiso   1.00
C1831  C     0.34078   0.49080   0.76374   0.00000  Uiso   1.00
C1832  C     0.44864   0.56944   0.92040   0.00000  Uiso   1.00
C1833  C     0.51540   0.65644   0.74162   0.00000  Uiso   1.00
C1834  C     0.48183   0.34567   0.76129   0.00000  Uiso   1.00
C1835  C     0.48807   0.38981   0.75936   0.00000  Uiso   1.00
C1836  C     0.51020   0.61117   0.74187   0.00000  Uiso   1.00
C1837  C     0.52191   0.47798   0.64392   0.00000  Uiso   1.00
C1838  C     0.47901   0.52199   0.85663   0.00000  Uiso   1.00
C1839  C     0.47177   0.53492   0.90053   0.00000  Uiso   1.00
C1840  C     0.52995   0.46972   0.60096   0.00000  Uiso   1.00
C1841  C     0.43652   0.57752   0.96255   0.00000  Uiso   1.00
C1842  C     0.43295   0.60553   0.55265   0.00000  Uiso   1.00
C1843  C     0.48713   0.51244   0.92330   0.00000  Uiso   1.00
C1844  C     0.45483   0.62414   0.58552   0.00000  Uiso   1.00
C1845  C     0.44254   0.33456   0.60318   0.00000  Uiso   1.00
C1846  C     0.57831   0.39477   0.51038   0.00000  Uiso   1.00
C1847  C     0.54471   0.35699   0.52158   0.00000  Uiso   1.00
C1848  C     0.56034   0.65001   0.99693   0.00000  Uiso   1.00
C1849  C     0.35816   0.52955   0.70418   0.00000  Uiso   1.00
C1850  C     0.64461   0.46901   0.79902   0.00000  Uiso   1.00
C1851  C     0.33420   0.45258   0.82470   0.00000  Uiso   1.00
C1852  C     0.63489   0.42968   0.85724   0.00000  Uiso   1.00
C1853  C     0.55977   0.34316   0.71950   0.00000  Uiso   1.00
C1854  C     0.48616   0.52842   0.96299   0.00000  Uiso   1.00
C1855  C     0.59120   0.34842   0.74499   0.00000  Uiso   1.00
C1856  C     0.63543   0.36924   0.72380   0.00000  Uiso   1.00
C1857  C     0.43587   0.65934   0.78047   0.00000  Uiso   1.00
C1858  C     0.40007   0.35504   0.79281   0.00000  Uiso   1.00
C1859  C     0.35658   0.66457   0.81176   0.00000  Uiso   1.00
C1860  C     0.58040   0.41611   0.59683   0.00000  Uiso   1.00
C1861  C     0.62180   0.44205   0.60275   0.00000  Uiso   1.00
C1862  C     0.64354   0.41960   0.62482   0.00000  Uiso   1.00
C1863  C     0.62020   0.47208   0.95921   0.00000  Uiso   1.00
C1864  C     0.64933   0.49169   0.98571   0.00000  Uiso   1.00
C1865  C     0.45790   0.55880   0.98438   0.00000  Uiso   1.00
C1866  C     0.36313   0.48587   0.96460   0.00000  Uiso   1.00
C1867  C     0.39525   0.59851   0.98227   0.00000  Uiso   1.00
C1868  C     0.40153   0.64632   0.98157   0.00000  Uiso   1.00
C1869  C     0.36760   0.33446   0.51523   0.00000  Uiso   1.00
C1870  C     0.43460   0.59620   0.89766   0.00000  Uiso   1.00
C1871  C     0.49444   0.46789   0.90981   0.00000  Uiso   1.00
C1872  C     0.51088   0.51201   0.98261   0.00000  Uiso   1.00
C1873  C     0.49761   0.51352   0.52412   0.00000  Uiso   1.00
C1874  C     0.46568   0.53944   0.54541   0.00000  Uiso   1.00
C1875  C     0.45155   0.56704   0.52663   0.00000  Uiso   1.00
H1876  H     0.48594   0.51168   0.60406   0.00000  Uiso   1.00
H1877  H     0.39810   0.59764   0.56724   0.00000  Uiso   1.00
H1878  H     0.56718   0.65238   0.96475   0.00000  Uiso   1.00
H1879  H     0.59003   0.64367   0.50305   0.00000  Uiso   1.00
H1880  H     0.53511   0.62339   0.50463   0.00000  Uiso   1.00
H1881  H     0.53745   0.35340   0.55346   0.00000  Uiso   1.00
H1882  H     0.51413   0.36173   0.51600   0.00000  Uiso   1.00
H1883  H     0.58072   0.39588   0.97892   0.00000  Uiso   1.00
H1884  H     0.61049   0.38985   0.51227   0.00000  Uiso   1.00
H1885  H     0.41270   0.56810   0.68519   0.00000  Uiso   1.00
H1886  H     0.61223   0.45122   0.87696   0.00000  Uiso   1.00
H1887  H     0.45363   0.54137   0.57713   0.00000  Uiso   1.00
H1888  H     0.61594   0.40310   0.84412   0.00000  Uiso   1.00
H1889  H     0.65205   0.41754   0.87508   0.00000  Uiso   1.00
H1890  H     0.35695   0.43055   0.80590   0.00000  Uiso   1.00
H1891  H     0.35253   0.47898   0.83880   0.00000  Uiso   1.00
H1892  H     0.62290   0.49143   0.81898   0.00000  Uiso   1.00
H1893  H     0.62540   0.44151   0.78741   0.00000  Uiso   1.00
H1894  H     0.64938   0.35038   0.69515   0.00000  Uiso   1.00
H1895  H     0.63275   0.40108   0.71812   0.00000  Uiso   1.00
H1896  H     0.65751   0.37192   0.74276   0.00000  Uiso   1.00
H1897  H     0.57814   0.36786   0.77354   0.00000  Uiso   1.00
H1898  H     0.56615   0.50493   0.93170   0.00000  Uiso   1.00
H1899  H     0.59508   0.65069   0.75174   0.00000  Uiso   1.00
H1900  H     0.57269   0.65658   0.69119   0.00000  Uiso   1.00
H1901  H     0.55825   0.37382   0.71049   0.00000  Uiso   1.00
H1902  H     0.34928   0.63678   0.79133   0.00000  Uiso   1.00
H1903  H     0.35675   0.65440   0.84009   0.00000  Uiso   1.00
H1904  H     0.66401   0.35164   0.81796   0.00000  Uiso   1.00
H1905  H     0.40737   0.38162   0.81447   0.00000  Uiso   1.00
H1906  H     0.39744   0.36729   0.76627   0.00000  Uiso   1.00
H1907  H     0.42656   0.63369   0.75891   0.00000  Uiso   1.00
H1908  H     0.43593   0.64662   0.80770   0.00000  Uiso   1.00
H1909  H     0.45290   0.35612   0.57999   0.00000  Uiso   1.00
H1910  H     0.62157   0.41439   0.65464   0.00000  Uiso   1.00
H1911  H     0.65225   0.38906   0.60779   0.00000  Uiso   1.00
H1912  H     0.34007   0.43898   0.62861   0.00000  Uiso   1.00
H1913  H     0.64461   0.44761   0.57333   0.00000  Uiso   1.00
H1914  H     0.61451   0.47281   0.62000   0.00000  Uiso   1.00
H1915  H     0.55864   0.40761   0.62580   0.00000  Uiso   1.00
H1916  H     0.58946   0.38623   0.57897   0.00000  Uiso   1.00
H1917  H     0.36713   0.45214   0.95641   0.00000  Uiso   1.00
H1918  H     0.37444   0.50183   0.93734   0.00000  Uiso   1.00
H1919  H     0.38324   0.49928   0.98477   0.00000  Uiso   1.00
H1920  H     0.40707   0.33347   0.61644   0.00000  Uiso   1.00
H1921  H     0.64598   0.52558   0.99361   0.00000  Uiso   1.00
H1922  H     0.64016   0.47707   0.51358   0.00000  Uiso   1.00
H1923  H     0.62628   0.43941   0.94816   0.00000  Uiso   1.00
H1924  H     0.63109   0.48866   0.93230   0.00000  Uiso   1.00
H1925  H     0.33471   0.65513   0.51313   0.00000  Uiso   1.00
H1926  H     0.37053   0.66305   0.54454   0.00000  Uiso   1.00
H1927  H     0.37221   0.36853   0.51307   0.00000  Uiso   1.00
H1928  H     0.43423   0.66002   0.98346   0.00000  Uiso   1.00
H1929  H     0.39836   0.65367   0.95320   0.00000  Uiso   1.00
H1930  H     0.37060   0.58492   0.96661   0.00000  Uiso   1.00
H1931  H     0.45865   0.34695   0.62677   0.00000  Uiso   1.00
H1932  H     0.37941   0.58961   0.51231   0.00000  Uiso   1.00
H1933  H     0.38845   0.60690   0.87453   0.00000  Uiso   1.00
H1934  H     0.47108   0.40756   0.91513   0.00000  Uiso   1.00
H1935  H     0.44451   0.60431   0.61013   0.00000  Uiso   1.00
H1936  H     0.49041   0.62567   0.57345   0.00000  Uiso   1.00
H1937  H     0.43781   0.63047   0.53377   0.00000  Uiso   1.00
O1938  O     0.50000   0.50000   0.75000   0.00000  Uiso   1.00
O1939  O     0.49027   0.45726   0.66625   0.00000  Uiso   1.00
O1940  O     0.46020   0.53979   0.83749   0.00000  Uiso   1.00
O1941  O     0.54421   0.50826   0.65877   0.00000  Uiso   1.00
O1942  O     0.50532   0.49468   0.83749   0.00000  Uiso   1.00
O1943  O     0.35129   0.52480   0.67166   0.00000  Uiso   1.00
O1944  O     0.39451   0.55556   0.71006   0.00000  Uiso   1.00
O1945  O     0.45881   0.62634   0.88467   0.00000  Uiso   1.00
O1946  O     0.39414   0.58650   0.89064   0.00000  Uiso   1.00
O1947  O     0.52834   0.45857   0.88613   0.00000  Uiso   1.00
O1948  O     0.46258   0.43666   0.92584   0.00000  Uiso   1.00
O1949  O     0.51182   0.41434   0.77821   0.00000  Uiso   1.00
O1950  O     0.47914   0.59469   0.76767   0.00000  Uiso   1.00
O1951  O     0.40785   0.46584   0.73607   0.00000  Uiso   1.00
O1952  O     0.60119   0.52512   0.71805   0.00000  Uiso   1.00
O1953  O     0.40323   0.52293   0.77820   0.00000  Uiso   1.00
O1954  O     0.58773   0.48610   0.76768   0.00000  Uiso   1.00
O1955  O     0.47133   0.40236   0.73607   0.00000  Uiso   1.00
O1956  O     0.53771   0.58860   0.71805   0.00000  Uiso   1.00
Zn1957 Zn    0.52577   0.47423   0.78278   0.00000  Uiso   1.00
Zn1958 Zn    0.46792   0.45711   0.72258   0.00000  Uiso   1.00
Zn1959 Zn    0.54500   0.52997   0.71188   0.00000  Uiso   1.00
Zn1960 Zn    0.46131   0.53868   0.78277   0.00000  Uiso   1.00
C1961  C     0.71948   0.49343   0.75868   0.00000  Uiso   1.00
C1962  C     0.88413   0.49756   0.96171   0.00000  Uiso   1.00
C1963  C     0.90583   0.47625   0.97968   0.00000  Uiso   1.00
C1964  C     0.94772   0.50644   0.74106   0.00000  Uiso   1.00
C1965  C     0.88458   0.46595   0.51866   0.00000  Uiso   1.00
C1966  C     0.85144   0.49021   0.54255   0.00000  Uiso   1.00
C1967  C     0.89716   0.43502   0.53570   0.00000  Uiso   1.00
C1968  C     0.89052   0.44005   0.57745   0.00000  Uiso   1.00
C1969  C     0.84170   0.49173   0.58392   0.00000  Uiso   1.00
C1970  C     0.99382   0.50825   0.73756   0.00000  Uiso   1.00
C1971  C     0.67411   0.49080   0.76374   0.00000  Uiso   1.00
C1972  C     0.78197   0.56944   0.92040   0.00000  Uiso   1.00
C1973  C     0.84873   0.65644   0.74162   0.00000  Uiso   1.00
C1974  C     0.81517   0.34567   0.76129   0.00000  Uiso   1.00
C1975  C     0.82141   0.38981   0.75936   0.00000  Uiso   1.00
C1976  C     0.84353   0.61117   0.74187   0.00000  Uiso   1.00
C1977  C     0.85525   0.47798   0.64392   0.00000  Uiso   1.00
C1978  C     0.81235   0.52199   0.85663   0.00000  Uiso   1.00
C1979  C     0.80511   0.53492   0.90053   0.00000  Uiso   1.00
C1980  C     0.86329   0.46972   0.60096   0.00000  Uiso   1.00
C1981  C     0.76986   0.57752   0.96255   0.00000  Uiso   1.00
C1982  C     0.76629   0.60553   0.55265   0.00000  Uiso   1.00
C1983  C     0.82046   0.51244   0.92330   0.00000  Uiso   1.00
C1984  C     0.78817   0.62414   0.58552   0.00000  Uiso   1.00
C1985  C     0.77587   0.33456   0.60318   0.00000  Uiso   1.00
C1986  C     0.91164   0.39477   0.51038   0.00000  Uiso   1.00
C1987  C     0.87804   0.35699   0.52158   0.00000  Uiso   1.00
C1988  C     0.89367   0.65001   0.99693   0.00000  Uiso   1.00
C1989  C     0.69150   0.52955   0.70418   0.00000  Uiso   1.00
C1990  C     0.97795   0.46901   0.79902   0.00000  Uiso   1.00
C1991  C     0.66754   0.45258   0.82470   0.00000  Uiso   1.00
C1992  C     0.96822   0.42968   0.85724   0.00000  Uiso   1.00
C1993  C     0.89310   0.34316   0.71950   0.00000  Uiso   1.00
C1994  C     0.81949   0.52842   0.96299   0.00000  Uiso   1.00
C1995  C     0.92454   0.34842   0.74499   0.00000  Uiso   1.00
C1996  C     0.96876   0.36924   0.72380   0.00000  Uiso   1.00
C1997  C     0.76921   0.65934   0.78047   0.00000  Uiso   1.00
C1998  C     0.73340   0.35504   0.79281   0.00000  Uiso   1.00
C1999  C     0.68991   0.66457   0.81176   0.00000  Uiso   1.00
C2000  C     0.91373   0.41611   0.59683   0.00000  Uiso   1.00
C2001  C     0.95513   0.44205   0.60275   0.00000  Uiso   1.00
C2002  C     0.97687   0.41960   0.62482   0.00000  Uiso   1.00
C2003  C     0.95353   0.47208   0.95921   0.00000  Uiso   1.00
C2004  C     0.98267   0.49169   0.98571   0.00000  Uiso   1.00
C2005  C     0.79123   0.55880   0.98438   0.00000  Uiso   1.00
C2006  C     0.69646   0.48587   0.96460   0.00000  Uiso   1.00
C2007  C     0.72858   0.59851   0.98227   0.00000  Uiso   1.00
C2008  C     0.73486   0.64632   0.98157   0.00000  Uiso   1.00
C2009  C     0.70093   0.33446   0.51523   0.00000  Uiso   1.00
C2010  C     0.76793   0.59620   0.89766   0.00000  Uiso   1.00
C2011  C     0.82777   0.46789   0.90981   0.00000  Uiso   1.00
C2012  C     0.84421   0.51201   0.98261   0.00000  Uiso   1.00
C2013  C     0.83094   0.51352   0.52412   0.00000  Uiso   1.00
C2014  C     0.79901   0.53944   0.54541   0.00000  Uiso   1.00
C2015  C     0.78488   0.56704   0.52663   0.00000  Uiso   1.00
H2016  H     0.81928   0.51168   0.60406   0.00000  Uiso   1.00
H2017  H     0.73143   0.59764   0.56724   0.00000  Uiso   1.00
H2018  H     0.90051   0.65238   0.96475   0.00000  Uiso   1.00
H2019  H     0.92336   0.64367   0.50305   0.00000  Uiso   1.00
H2020  H     0.86844   0.62339   0.50463   0.00000  Uiso   1.00
H2021  H     0.87079   0.35340   0.55346   0.00000  Uiso   1.00
H2022  H     0.84747   0.36173   0.51600   0.00000  Uiso   1.00
H2023  H     0.91405   0.39588   0.97892   0.00000  Uiso   1.00
H2024  H     0.94383   0.38985   0.51227   0.00000  Uiso   1.00
H2025  H     0.74603   0.56810   0.68519   0.00000  Uiso   1.00
H2026  H     0.94556   0.45122   0.87696   0.00000  Uiso   1.00
H2027  H     0.78696   0.54137   0.57713   0.00000  Uiso   1.00
H2028  H     0.94927   0.40310   0.84412   0.00000  Uiso   1.00
H2029  H     0.98538   0.41754   0.87508   0.00000  Uiso   1.00
H2030  H     0.69028   0.43055   0.80590   0.00000  Uiso   1.00
H2031  H     0.68586   0.47898   0.83880   0.00000  Uiso   1.00
H2032  H     0.95623   0.49143   0.81898   0.00000  Uiso   1.00
H2033  H     0.95873   0.44151   0.78741   0.00000  Uiso   1.00
H2034  H     0.98272   0.35038   0.69515   0.00000  Uiso   1.00
H2035  H     0.96609   0.40108   0.71812   0.00000  Uiso   1.00
H2036  H     0.99085   0.37192   0.74276   0.00000  Uiso   1.00
H2037  H     0.91147   0.36786   0.77354   0.00000  Uiso   1.00
H2038  H     0.89948   0.50493   0.93170   0.00000  Uiso   1.00
H2039  H     0.92842   0.65069   0.75174   0.00000  Uiso   1.00
H2040  H     0.90602   0.65658   0.69119   0.00000  Uiso   1.00
H2041  H     0.89159   0.37382   0.71049   0.00000  Uiso   1.00
H2042  H     0.68262   0.63678   0.79133   0.00000  Uiso   1.00
H2043  H     0.69008   0.65440   0.84009   0.00000  Uiso   1.00
H2044  H     0.99735   0.35164   0.81796   0.00000  Uiso   1.00
H2045  H     0.74070   0.38162   0.81447   0.00000  Uiso   1.00
H2046  H     0.73077   0.36729   0.76627   0.00000  Uiso   1.00
H2047  H     0.75990   0.63369   0.75891   0.00000  Uiso   1.00
H2048  H     0.76926   0.64662   0.80770   0.00000  Uiso   1.00
H2049  H     0.78623   0.35612   0.57999   0.00000  Uiso   1.00
H2050  H     0.95491   0.41439   0.65464   0.00000  Uiso   1.00
H2051  H     0.98559   0.38906   0.60779   0.00000  Uiso   1.00
H2052  H     0.67340   0.43898   0.62861   0.00000  Uiso   1.00
H2053  H     0.97795   0.44761   0.57333   0.00000  Uiso   1.00
H2054  H     0.94784   0.47281   0.62000   0.00000  Uiso   1.00
H2055  H     0.89198   0.40761   0.62580   0.00000  Uiso   1.00
H2056  H     0.92279   0.38623   0.57897   0.00000  Uiso   1.00
H2057  H     0.70046   0.45214   0.95641   0.00000  Uiso   1.00
H2058  H     0.70777   0.50183   0.93734   0.00000  Uiso   1.00
H2059  H     0.71657   0.49928   0.98477   0.00000  Uiso   1.00
H2060  H     0.74041   0.33347   0.61644   0.00000  Uiso   1.00
H2061  H     0.97931   0.52558   0.99361   0.00000  Uiso   1.00
H2062  H     0.97350   0.47707   0.51358   0.00000  Uiso   1.00
H2063  H     0.95962   0.43941   0.94816   0.00000  Uiso   1.00
H2064  H     0.96442   0.48866   0.93230   0.00000  Uiso   1.00
H2065  H     0.66804   0.65513   0.51313   0.00000  Uiso   1.00
H2066  H     0.70387   0.66305   0.54454   0.00000  Uiso   1.00
H2067  H     0.70554   0.36853   0.51307   0.00000  Uiso   1.00
H2068  H     0.76756   0.66002   0.98346   0.00000  Uiso   1.00
H2069  H     0.73169   0.65367   0.95320   0.00000  Uiso   1.00
H2070  H     0.70394   0.58492   0.96661   0.00000  Uiso   1.00
H2071  H     0.79199   0.34695   0.62677   0.00000  Uiso   1.00
H2072  H     0.71274   0.58961   0.51231   0.00000  Uiso   1.00
H2073  H     0.72179   0.60690   0.87453   0.00000  Uiso   1.00
H2074  H     0.80442   0.40756   0.91513   0.00000  Uiso   1.00
H2075  H     0.77785   0.60431   0.61013   0.00000  Uiso   1.00
H2076  H     0.82374   0.62567   0.57345   0.00000  Uiso   1.00
H2077  H     0.77115   0.63047   0.53377   0.00000  Uiso   1.00
O2078  O     0.83333   0.50000   0.75000   0.00000  Uiso   1.00
O2079  O     0.82360   0.45726   0.66625   0.00000  Uiso   1.00
O2080  O     0.79354   0.53979   0.83749   0.00000  Uiso   1.00
O2081  O     0.87755   0.50826   0.65877   0.00000  Uiso   1.00
O2082  O     0.83865   0.49468   0.83749   0.00000  Uiso   1.00
O2083  O     0.68463   0.52480   0.67166   0.00000  Uiso   1.00
O2084  O     0.72785   0.55556   0.71006   0.00000  Uiso   1.00
O2085  O     0.79214   0.62634   0.88467   0.00000  Uiso   1.00
O2086  O     0.72747   0.58650   0.89064   0.00000  Uiso   1.00
O2087  O     0.86167   0.45857   0.88613   0.00000  Uiso   1.00
O2088  O     0.79592   0.43666   0.92584   0.00000  Uiso   1.00
O2089  O     0.84515   0.41434   0.77821   0.00000  Uiso   1.00
O2090  O     0.81247   0.59469   0.76767   0.00000  Uiso   1.00
O2091  O     0.74119   0.46584   0.73607   0.00000  Uiso   1.00
O2092  O     0.93452   0.52512   0.71805   0.00000  Uiso   1.00
O2093  O     0.73656   0.52293   0.77820   0.00000  Uiso   1.00
O2094  O     0.92106   0.48610   0.76768   0.00000  Uiso   1.00
O2095  O     0.80467   0.40236   0.73607   0.00000  Uiso   1.00
O2096  O     0.87104   0.58860   0.71805   0.00000  Uiso   1.00
Zn2097 Zn    0.85910   0.47423   0.78278   0.00000  Uiso   1.00
Zn2098 Zn    0.80125   0.45711   0.72258   0.00000  Uiso   1.00
Zn2099 Zn    0.87833   0.52997   0.71188   0.00000  Uiso   1.00
Zn2100 Zn    0.79465   0.53868   0.78277   0.00000  Uiso   1.00
C2101  C     0.05281   0.82677   0.75868   0.00000  Uiso   1.00
C2102  C     0.21747   0.83089   0.96171   0.00000  Uiso   1.00
C2103  C     0.23916   0.80958   0.97968   0.00000  Uiso   1.00
C2104  C     0.28105   0.83977   0.74106   0.00000  Uiso   1.00
C2105  C     0.21791   0.79929   0.51866   0.00000  Uiso   1.00
C2106  C     0.18478   0.82354   0.54255   0.00000  Uiso   1.00
C2107  C     0.23050   0.76835   0.53570   0.00000  Uiso   1.00
C2108  C     0.22386   0.77338   0.57745   0.00000  Uiso   1.00
C2109  C     0.17503   0.82506   0.58392   0.00000  Uiso   1.00
C2110  C     0.32715   0.84158   0.73756   0.00000  Uiso   1.00
C2111  C     0.00745   0.82414   0.76374   0.00000  Uiso   1.00
C2112  C     0.11531   0.90277   0.92040   0.00000  Uiso   1.00
C2113  C     0.18206   0.98978   0.74162   0.00000  Uiso   1.00
C2114  C     0.14850   0.67901   0.76129   0.00000  Uiso   1.00
C2115  C     0.15474   0.72314   0.75936   0.00000  Uiso   1.00
C2116  C     0.17687   0.94450   0.74187   0.00000  Uiso   1.00
C2117  C     0.18858   0.81132   0.64392   0.00000  Uiso   1.00
C2118  C     0.14568   0.85532   0.85663   0.00000  Uiso   1.00
C2119  C     0.13844   0.86825   0.90053   0.00000  Uiso   1.00
C2120  C     0.19662   0.80305   0.60096   0.00000  Uiso   1.00
C2121  C     0.10319   0.91085   0.96255   0.00000  Uiso   1.00
C2122  C     0.09962   0.93887   0.55265   0.00000  Uiso   1.00
C2123  C     0.15379   0.84577   0.92330   0.00000  Uiso   1.00
C2124  C     0.12150   0.95748   0.58552   0.00000  Uiso   1.00
C2125  C     0.10920   0.66789   0.60318   0.00000  Uiso   1.00
C2126  C     0.24497   0.72810   0.51038   0.00000  Uiso   1.00
C2127  C     0.21137   0.69032   0.52158   0.00000  Uiso   1.00
C2128  C     0.22701   0.98334   0.99693   0.00000  Uiso   1.00
C2129  C     0.02483   0.86289   0.70418   0.00000  Uiso   1.00
C2130  C     0.31128   0.80234   0.79902   0.00000  Uiso   1.00
C2131  C     0.00087   0.78591   0.82470   0.00000  Uiso   1.00
C2132  C     0.30155   0.76302   0.85724   0.00000  Uiso   1.00
C2133  C     0.22644   0.67649   0.71950   0.00000  Uiso   1.00
C2134  C     0.15283   0.86175   0.96299   0.00000  Uiso   1.00
C2135  C     0.25787   0.68175   0.74499   0.00000  Uiso   1.00
C2136  C     0.30210   0.70257   0.72380   0.00000  Uiso   1.00
C2137  C     0.10254   0.99267   0.78047   0.00000  Uiso   1.00
C2138  C     0.06674   0.68837   0.79281   0.00000  Uiso   1.00
C2139  C     0.02325   0.99791   0.81176   0.00000  Uiso   1.00
C2140  C     0.24707   0.74945   0.59683   0.00000  Uiso   1.00
C2141  C     0.28847   0.77538   0.60275   0.00000  Uiso   1.00
C2142  C     0.31020   0.75293   0.62482   0.00000  Uiso   1.00
C2143  C     0.28686   0.80541   0.95921   0.00000  Uiso   1.00
C2144  C     0.31600   0.82502   0.98571   0.00000  Uiso   1.00
C2145  C     0.12456   0.89214   0.98438   0.00000  Uiso   1.00
C2146  C     0.02980   0.81920   0.96460   0.00000  Uiso   1.00
C2147  C     0.06192   0.93184   0.98227   0.00000  Uiso   1.00
C2148  C     0.06819   0.97965   0.98157   0.00000  Uiso   1.00
C2149  C     0.03426   0.66780   0.51523   0.00000  Uiso   1.00
C2150  C     0.10126   0.92953   0.89766   0.00000  Uiso   1.00
C2151  C     0.16110   0.80122   0.90981   0.00000  Uiso   1.00
C2152  C     0.17755   0.84535   0.98261   0.00000  Uiso   1.00
C2153  C     0.16427   0.84685   0.52412   0.00000  Uiso   1.00
C2154  C     0.13234   0.87277   0.54541   0.00000  Uiso   1.00
C2155  C     0.11821   0.90037   0.52663   0.00000  Uiso   1.00
H2156  H     0.15261   0.84502   0.60406   0.00000  Uiso   1.00
H2157  H     0.06477   0.93097   0.56724   0.00000  Uiso   1.00
H2158  H     0.23385   0.98572   0.96475   0.00000  Uiso   1.00
H2159  H     0.25670   0.97701   0.50305   0.00000  Uiso   1.00
H2160  H     0.20178   0.95672   0.50463   0.00000  Uiso   1.00
H2161  H     0.20412   0.68673   0.55346   0.00000  Uiso   1.00
H2162  H     0.18080   0.69506   0.51600   0.00000  Uiso   1.00
H2163  H     0.24738   0.72922   0.97892   0.00000  Uiso   1.00
H2164  H     0.27716   0.72319   0.51227   0.00000  Uiso   1.00
H2165  H     0.07936   0.90144   0.68519   0.00000  Uiso   1.00
H2166  H     0.27890   0.78455   0.87696   0.00000  Uiso   1.00
H2167  H     0.12029   0.87471   0.57713   0.00000  Uiso   1.00
H2168  H     0.28261   0.73643   0.84412   0.00000  Uiso   1.00
H2169  H     0.31871   0.75088   0.87508   0.00000  Uiso   1.00
H2170  H     0.02362   0.76389   0.80590   0.00000  Uiso   1.00
H2171  H     0.01919   0.81232   0.83880   0.00000  Uiso   1.00
H2172  H     0.28957   0.82476   0.81898   0.00000  Uiso   1.00
H2173  H     0.29207   0.77485   0.78741   0.00000  Uiso   1.00
H2174  H     0.31605   0.68371   0.69515   0.00000  Uiso   1.00
H2175  H     0.29942   0.73441   0.71812   0.00000  Uiso   1.00
H2176  H     0.32418   0.70525   0.74276   0.00000  Uiso   1.00
H2177  H     0.24481   0.70120   0.77354   0.00000  Uiso   1.00
H2178  H     0.23281   0.83827   0.93170   0.00000  Uiso   1.00
H2179  H     0.26175   0.98402   0.75174   0.00000  Uiso   1.00
H2180  H     0.23935   0.98992   0.69119   0.00000  Uiso   1.00
H2181  H     0.22492   0.70715   0.71049   0.00000  Uiso   1.00
H2182  H     0.01595   0.97011   0.79133   0.00000  Uiso   1.00
H2183  H     0.02341   0.98774   0.84009   0.00000  Uiso   1.00
H2184  H     0.33068   0.68497   0.81796   0.00000  Uiso   1.00
H2185  H     0.07403   0.71495   0.81447   0.00000  Uiso   1.00
H2186  H     0.06410   0.70062   0.76627   0.00000  Uiso   1.00
H2187  H     0.09323   0.96702   0.75891   0.00000  Uiso   1.00
H2188  H     0.10260   0.97995   0.80770   0.00000  Uiso   1.00
H2189  H     0.11956   0.68945   0.57999   0.00000  Uiso   1.00
H2190  H     0.28824   0.74772   0.65464   0.00000  Uiso   1.00
H2191  H     0.31892   0.72239   0.60779   0.00000  Uiso   1.00
H2192  H     0.00673   0.77231   0.62861   0.00000  Uiso   1.00
H2193  H     0.31128   0.78094   0.57333   0.00000  Uiso   1.00
H2194  H     0.28117   0.80614   0.62000   0.00000  Uiso   1.00
H2195  H     0.22531   0.74094   0.62580   0.00000  Uiso   1.00
H2196  H     0.25613   0.71956   0.57897   0.00000  Uiso   1.00
H2197  H     0.03380   0.78548   0.95641   0.00000  Uiso   1.00
H2198  H     0.04111   0.83517   0.93734   0.00000  Uiso   1.00
H2199  H     0.04991   0.83262   0.98477   0.00000  Uiso   1.00
H2200  H     0.07374   0.66680   0.61644   0.00000  Uiso   1.00
H2201  H     0.31265   0.85892   0.99361   0.00000  Uiso   1.00
H2202  H     0.30683   0.81041   0.51358   0.00000  Uiso   1.00
H2203  H     0.29295   0.77274   0.94816   0.00000  Uiso   1.00
H2204  H     0.29775   0.82199   0.93230   0.00000  Uiso   1.00
H2205  H     0.00137   0.98846   0.51313   0.00000  Uiso   1.00
H2206  H     0.03720   0.99639   0.54454   0.00000  Uiso   1.00
H2207  H     0.03888   0.70186   0.51307   0.00000  Uiso   1.00
H2208  H     0.10089   0.99335   0.98346   0.00000  Uiso   1.00
H2209  H     0.06502   0.98700   0.95320   0.00000  Uiso   1.00
H2210  H     0.03727   0.91826   0.96661   0.00000  Uiso   1.00
H2211  H     0.12532   0.68028   0.62677   0.00000  Uiso   1.00
H2212  H     0.04607   0.92295   0.51231   0.00000  Uiso   1.00
H2213  H     0.05512   0.94023   0.87453   0.00000  Uiso   1.00
H2214  H     0.13775   0.74089   0.91513   0.00000  Uiso   1.00
H2215  H     0.11118   0.93765   0.61013   0.00000  Uiso   1.00
H2216  H     0.15707   0.95900   0.57345   0.00000  Uiso   1.00
H2217  H     0.10448   0.96381   0.53377   0.00000  Uiso   1.00
O2218  O     0.16667   0.83333   0.75000   0.00000  Uiso   1.00
O2219  O     0.15693   0.79060   0.66625   0.00000  Uiso   1.00
O2220  O     0.12687   0.87313   0.83749   0.00000  Uiso   1.00
O2221  O     0.21088   0.84159   0.65877   0.00000  Uiso   1.00
O2222  O     0.17198   0.82802   0.83749   0.00000  Uiso   1.00
O2223  O     0.01796   0.85814   0.67166   0.00000  Uiso   1.00
O2224  O     0.06118   0.88889   0.71006   0.00000  Uiso   1.00
O2225  O     0.12548   0.95967   0.88467   0.00000  Uiso   1.00
O2226  O     0.06080   0.91983   0.89064   0.00000  Uiso   1.00
O2227  O     0.19500   0.79191   0.88613   0.00000  Uiso   1.00
O2228  O     0.12925   0.76999   0.92584   0.00000  Uiso   1.00
O2229  O     0.17849   0.74768   0.77821   0.00000  Uiso   1.00
O2230  O     0.14581   0.92803   0.76767   0.00000  Uiso   1.00
O2231  O     0.07452   0.79917   0.73607   0.00000  Uiso   1.00
O2232  O     0.26785   0.85845   0.71805   0.00000  Uiso   1.00
O2233  O     0.06990   0.85627   0.77820   0.00000  Uiso   1.00
O2234  O     0.25440   0.81944   0.76768   0.00000  Uiso   1.00
O2235  O     0.13800   0.73570   0.73607   0.00000  Uiso   1.00
O2236  O     0.20437   0.92193   0.71805   0.00000  Uiso   1.00
Zn2237 Zn    0.19244   0.80756   0.78278   0.00000  Uiso   1.00
Zn2238 Zn    0.13459   0.79044   0.72258   0.00000  Uiso   1.00
Zn2239 Zn    0.21166   0.86331   0.71188   0.00000  Uiso   1.00
Zn2240 Zn    0.12798   0.87202   0.78277   0.00000  Uiso   1.00
C2241  C     0.38614   0.82677   0.75868   0.00000  Uiso   1.00
C2242  C     0.55080   0.83089   0.96171   0.00000  Uiso   1.00
C2243  C     0.57250   0.80958   0.97968   0.00000  Uiso   1.00
C2244  C     0.61438   0.83977   0.74106   0.00000  Uiso   1.00
C2245  C     0.55124   0.79929   0.51866   0.00000  Uiso   1.00
C2246  C     0.51811   0.82354   0.54255   0.00000  Uiso   1.00
C2247  C     0.56383   0.76835   0.53570   0.00000  Uiso   1.00
C2248  C     0.55719   0.77338   0.57745   0.00000  Uiso   1.00
C2249  C     0.50836   0.82506   0.58392   0.00000  Uiso   1.00
C2250  C     0.66049   0.84158   0.73756   0.00000  Uiso   1.00
C2251  C     0.34078   0.82414   0.76374   0.00000  Uiso   1.00
C2252  C     0.44864   0.90277   0.92040   0.00000  Uiso   1.00
C2253  C     0.51540   0.98978   0.74162   0.00000  Uiso   1.00
C2254  C     0.48183   0.67901   0.76129   0.00000  Uiso   1.00
C2255  C     0.48807   0.72314   0.75936   0.00000  Uiso   1.00
C2256  C     0.51020   0.94450   0.74187   0.00000  Uiso   1.00
C2257  C     0.52191   0.81132   0.64392   0.00000  Uiso   1.00
C2258  C     0.47901   0.85532   0.85663   0.00000  Uiso   1.00
C2259  C     0.47177   0.86825   0.90053   0.00000  Uiso   1.00
C2260  C     0.52995   0.80305   0.60096   0.00000  Uiso   1.00
C2261  C     0.43652   0.91085   0.96255   0.00000  Uiso   1.00
C2262  C     0.43295   0.93887   0.55265   0.00000  Uiso   1.00
C2263  C     0.48713   0.84577   0.92330   0.00000  Uiso   1.00
C2264  C     0.45483   0.95748   0.58552   0.00000  Uiso   1.00
C2265  C     0.44254   0.66789   0.60318   0.00000  Uiso   1.00
C2266  C     0.57831   0.72810   0.51038   0.00000  Uiso   1.00
C2267  C     0.54471   0.69032   0.52158   0.00000  Uiso   1.00
C2268  C     0.56034   0.98334   0.99693   0.00000  Uiso   1.00
C2269  C     0.35816   0.86289   0.70418   0.00000  Uiso   1.00
C2270  C     0.64461   0.80234   0.79902   0.00000  Uiso   1.00
C2271  C     0.33420   0.78591   0.82470   0.00000  Uiso   1.00
C2272  C     0.63489   0.76302   0.85724   0.00000  Uiso   1.00
C2273  C     0.55977   0.67649   0.71950   0.00000  Uiso   1.00
C2274  C     0.48616   0.86175   0.96299   0.00000  Uiso   1.00
C2275  C     0.59120   0.68175   0.74499   0.00000  Uiso   1.00
C2276  C     0.63543   0.70257   0.72380   0.00000  Uiso   1.00
C2277  C     0.43587   0.99267   0.78047   0.00000  Uiso   1.00
C2278  C     0.40007   0.68837   0.79281   0.00000  Uiso   1.00
C2279  C     0.35658   0.99791   0.81176   0.00000  Uiso   1.00
C2280  C     0.58040   0.74945   0.59683   0.00000  Uiso   1.00
C2281  C     0.62180   0.77538   0.60275   0.00000  Uiso   1.00
C2282  C     0.64354   0.75293   0.62482   0.00000  Uiso   1.00
C2283  C     0.62020   0.80541   0.95921   0.00000  Uiso   1.00
C2284  C     0.64933   0.82502   0.98571   0.00000  Uiso   1.00
C2285  C     0.45790   0.89214   0.98438   0.00000  Uiso   1.00
C2286  C     0.36313   0.81920   0.96460   0.00000  Uiso   1.00
C2287  C     0.39525   0.93184   0.98227   0.00000  Uiso   1.00
C2288  C     0.40153   0.97965   0.98157   0.00000  Uiso   1.00
C2289  C     0.36760   0.66780   0.51523   0.00000  Uiso   1.00
C2290  C     0.43460   0.92953   0.89766   0.00000  Uiso   1.00
C2291  C     0.49444   0.80122   0.90981   0.00000  Uiso   1.00
C2292  C     0.51088   0.84535   0.98261   0.00000  Uiso   1.00
C2293  C     0.49761   0.84685   0.52412   0.00000  Uiso   1.00
C2294  C     0.46568   0.87277   0.54541   0.00000  Uiso   1.00
C2295  C     0.45155   0.90037   0.52663   0.00000  Uiso   1.00
H2296  H     0.48594   0.84502   0.60406   0.00000  Uiso   1.00
H2297  H     0.39810   0.93097   0.56724   0.00000  Uiso   1.00
H2298  H     0.56718   0.98572   0.96475   0.00000  Uiso   1.00
H2299  H     0.59003   0.97701   0.50305   0.00000  Uiso   1.00
H2300  H     0.53511   0.95672   0.50463   0.00000  Uiso   1.00
H2301  H     0.53745   0.68673   0.55346   0.00000  Uiso   1.00
H2302  H     0.51413   0.69506   0.51600   0.00000  Uiso   1.00
H2303  H     0.58072   0.72922   0.97892   0.00000  Uiso   1.00
H2304  H     0.61049   0.72319   0.51227   0.00000  Uiso   1.00
H2305  H     0.41270   0.90144   0.68519   0.00000  Uiso   1.00
H2306  H     0.61223   0.78455   0.87696   0.00000  Uiso   1.00
H2307  H     0.45363   0.87471   0.57713   0.00000  Uiso   1.00
H2308  H     0.61594   0.73643   0.84412   0.00000  Uiso   1.00
H2309  H     0.65205   0.75088   0.87508   0.00000  Uiso   1.00
H2310  H     0.35695   0.76389   0.80590   0.00000  Uiso   1.00
H2311  H     0.35253   0.81232   0.83880   0.00000  Uiso   1.00
H2312  H     0.62290   0.82476   0.81898   0.00000  Uiso   1.00
H2313  H     0.62540   0.77485   0.78741   0.00000  Uiso   1.00
H2314  H     0.64938   0.68371   0.69515   0.00000  Uiso   1.00
H2315  H     0.63275   0.73441   0.71812   0.00000  Uiso   1.00
H2316  H     0.65751   0.70525   0.74276   0.00000  Uiso   1.00
H2317  H     0.57814   0.70120   0.77354   0.00000  Uiso   1.00
H2318  H     0.56615   0.83827   0.93170   0.00000  Uiso   1.00
H2319  H     0.59508   0.98402   0.75174   0.00000  Uiso   1.00
H2320  H     0.57269   0.98992   0.69119   0.00000  Uiso   1.00
H2321  H     0.55825   0.70715   0.71049   0.00000  Uiso   1.00
H2322  H     0.34928   0.97011   0.79133   0.00000  Uiso   1.00
H2323  H     0.35675   0.98774   0.84009   0.00000  Uiso   1.00
H2324  H     0.66401   0.68497   0.81796   0.00000  Uiso   1.00
H2325  H     0.40737   0.71495   0.81447   0.00000  Uiso   1.00
H2326  H     0.39744   0.70062   0.76627   0.00000  Uiso   1.00
H2327  H     0.42656   0.96702   0.75891   0.00000  Uiso   1.00
H2328  H     0.43593   0.97995   0.80770   0.00000  Uiso   1.00
H2329  H     0.45290   0.68945   0.57999   0.00000  Uiso   1.00
H2330  H     0.62157   0.74772   0.65464   0.00000  Uiso   1.00
H2331  H     0.65225   0.72239   0.60779   0.00000  Uiso   1.00
H2332  H     0.34007   0.77231   0.62861   0.00000  Uiso   1.00
H2333  H     0.64461   0.78094   0.57333   0.00000  Uiso   1.00
H2334  H     0.61451   0.80614   0.62000   0.00000  Uiso   1.00
H2335  H     0.55864   0.74094   0.62580   0.00000  Uiso   1.00
H2336  H     0.58946   0.71956   0.57897   0.00000  Uiso   1.00
H2337  H     0.36713   0.78548   0.95641   0.00000  Uiso   1.00
H2338  H     0.37444   0.83517   0.93734   0.00000  Uiso   1.00
H2339  H     0.38324   0.83262   0.98477   0.00000  Uiso   1.00
H2340  H     0.40707   0.66680   0.61644   0.00000  Uiso   1.00
H2341  H     0.64598   0.85892   0.99361   0.00000  Uiso   1.00
H2342  H     0.64016   0.81041   0.51358   0.00000  Uiso   1.00
H2343  H     0.62628   0.77274   0.94816   0.00000  Uiso   1.00
H2344  H     0.63109   0.82199   0.93230   0.00000  Uiso   1.00
H2345  H     0.33471   0.98846   0.51313   0.00000  Uiso   1.00
H2346  H     0.37053   0.99639   0.54454   0.00000  Uiso   1.00
H2347  H     0.37221   0.70186   0.51307   0.00000  Uiso   1.00
H2348  H     0.43423   0.99335   0.98346   0.00000  Uiso   1.00
H2349  H     0.39836   0.98700   0.95320   0.00000  Uiso   1.00
H2350  H     0.37060   0.91826   0.96661   0.00000  Uiso   1.00
H2351  H     0.45865   0.68028   0.62677   0.00000  Uiso   1.00
H2352  H     0.37941   0.92295   0.51231   0.00000  Uiso   1.00
H2353  H     0.38845   0.94023   0.87453   0.00000  Uiso   1.00
H2354  H     0.47108   0.74089   0.91513   0.00000  Uiso   1.00
H2355  H     0.44451   0.93765   0.61013   0.00000  Uiso   1.00
H2356  H     0.49041   0.95900   0.57345   0.00000  Uiso   1.00
H2357  H     0.43781   0.96381   0.53377   0.00000  Uiso   1.00
O2358  O     0.50000   0.83333   0.75000   0.00000  Uiso   1.00
O2359  O     0.49027   0.79060   0.66625   0.00000  Uiso   1.00
O2360  O     0.46020   0.87313   0.83749   0.00000  Uiso   1.00
O2361  O     0.54421   0.84159   0.65877   0.00000  Uiso   1.00
O2362  O     0.50532   0.82802   0.83749   0.00000  Uiso   1.00
O2363  O     0.35129   0.85814   0.67166   0.00000  Uiso   1.00
O2364  O     0.39451   0.88889   0.71006   0.00000  Uiso   1.00
O2365  O     0.45881   0.95967   0.88467   0.00000  Uiso   1.00
O2366  O     0.39414   0.91983   0.89064   0.00000  Uiso   1.00
O2367  O     0.52834   0.79191   0.88613   0.00000  Uiso   1.00
O2368  O     0.46258   0.76999   0.92584   0.00000  Uiso   1.00
O2369  O     0.51182   0.74768   0.77821   0.00000  Uiso   1.00
O2370  O     0.47914   0.92803   0.76767   0.00000  Uiso   1.00
O2371  O     0.40785   0.79917   0.73607   0.00000  Uiso   1.00
O2372  O     0.60119   0.85845   0.71805   0.00000  Uiso   1.00
O2373  O     0.40323   0.85627   0.77820   0.00000  Uiso   1.00
O2374  O     0.58773   0.81944   0.76768   0.00000  Uiso   1.00
O2375  O     0.47133   0.73570   0.73607   0.00000  Uiso   1.00
O2376  O     0.53771   0.92193   0.71805   0.00000  Uiso   1.00
Zn2377 Zn    0.52577   0.80756   0.78278   0.00000  Uiso   1.00
Zn2378 Zn    0.46792   0.79044   0.72258   0.00000  Uiso   1.00
Zn2379 Zn    0.54500   0.86331   0.71188   0.00000  Uiso   1.00
Zn2380 Zn    0.46131   0.87202   0.78277   0.00000  Uiso   1.00
C2381  C     0.71948   0.82677   0.75868   0.00000  Uiso   1.00
C2382  C     0.88413   0.83089   0.96171   0.00000  Uiso   1.00
C2383  C     0.90583   0.80958   0.97968   0.00000  Uiso   1.00
C2384  C     0.94772   0.83977   0.74106   0.00000  Uiso   1.00
C2385  C     0.88458   0.79929   0.51866   0.00000  Uiso   1.00
C2386  C     0.85144   0.82354   0.54255   0.00000  Uiso   1.00
C2387  C     0.89716   0.76835   0.53570   0.00000  Uiso   1.00
C2388  C     0.89052   0.77338   0.57745   0.00000  Uiso   1.00
C2389  C     0.84170   0.82506   0.58392   0.00000  Uiso   1.00
C2390  C     0.99382   0.84158   0.73756   0.00000  Uiso   1.00
C2391  C     0.67411   0.82414   0.76374   0.00000  Uiso   1.00
C2392  C     0.78197   0.90277   0.92040   0.00000  Uiso   1.00
C2393  C     0.84873   0.98978   0.74162   0.00000  Uiso   1.00
C2394  C     0.81517   0.67901   0.76129   0.00000  Uiso   1.00
C2395  C     0.82141   0.72314   0.75936   0.00000  Uiso   1.00
C2396  C     0.84353   0.94450   0.74187   0.00000  Uiso   1.00
C2397  C     0.85525   0.81132   0.64392   0.00000  Uiso   1.00
C2398  C     0.81235   0.85532   0.85663   0.00000  Uiso   1.00
C2399  C     0.80511   0.86825   0.90053   0.00000  Uiso   1.00
C2400  C     0.86329   0.80305   0.60096   0.00000  Uiso   1.00
C2401  C     0.76986   0.91085   0.96255   0.00000  Uiso   1.00
C2402  C     0.76629   0.93887   0.55265   0.00000  Uiso   1.00
C2403  C     0.82046   0.84577   0.92330   0.00000  Uiso   1.00
C2404  C     0.78817   0.95748   0.58552   0.00000  Uiso   1.00
C2405  C     0.77587   0.66789   0.60318   0.00000  Uiso   1.00
C2406  C     0.91164   0.72810   0.51038   0.00000  Uiso   1.00
C2407  C     0.87804   0.69032   0.52158   0.00000  Uiso   1.00
C2408  C     0.89367   0.98334   0.99693   0.00000  Uiso   1.00
C2409  C     0.69150   0.86289   0.70418   0.00000  Uiso   1.00
C2410  C     0.97795   0.80234   0.79902   0.00000  Uiso   1.00
C2411  C     0.66754   0.78591   0.82470   0.00000  Uiso   1.00
C2412  C     0.96822   0.76302   0.85724   0.00000  Uiso   1.00
C2413  C     0.89310   0.67649   0.71950   0.00000  Uiso   1.00
C2414  C     0.81949   0.86175   0.96299   0.00000  Uiso   1.00
C2415  C     0.92454   0.68175   0.74499   0.00000  Uiso   1.00
C2416  C     0.96876   0.70257   0.72380   0.00000  Uiso   1.00
C2417  C     0.76921   0.99267   0.78047   0.00000  Uiso   1.00
C2418  C     0.73340   0.68837   0.79281   0.00000  Uiso   1.00
C2419  C     0.68991   0.99791   0.81176   0.00000  Uiso   1.00
C2420  C     0.91373   0.74945   0.59683   0.00000  Uiso   1.00
C2421  C     0.95513   0.77538   0.60275   0.00000  Uiso   1.00
C2422  C     0.97687   0.75293   0.62482   0.00000  Uiso   1.00
C2423  C     0.95353   0.80541   0.95921   0.00000  Uiso   1.00
C2424  C     0.98267   0.82502   0.98571   0.00000  Uiso   1.00
C2425  C     0.79123   0.89214   0.98438   0.00000  Uiso   1.00
C2426  C     0.69646   0.81920   0.96460   0.00000  Uiso   1.00
C2427  C     0.72858   0.93184   0.98227   0.00000  Uiso   1.00
C2428  C     0.73486   0.97965   0.98157   0.00000  Uiso   1.00
C2429  C     0.70093   0.66780   0.51523   0.00000  Uiso   1.00
C2430  C     0.76793   0.92953   0.89766   0.00000  Uiso   1.00
C2431  C     0.82777   0.80122   0.90981   0.00000  Uiso   1.00
C2432  C     0.84421   0.84535   0.98261   0.00000  Uiso   1.00
C2433  C     0.83094   0.84685   0.52412   0.00000  Uiso   1.00
C2434  C     0.79901   0.87277   0.54541   0.00000  Uiso   1.00
C2435  C     0.78488   0.90037   0.52663   0.00000  Uiso   1.00
H2436  H     0.81928   0.84502   0.60406   0.00000  Uiso   1.00
H2437  H     0.73143   0.93097   0.56724   0.00000  Uiso   1.00
H2438  H     0.90051   0.98572   0.96475   0.00000  Uiso   1.00
H2439  H     0.92336   0.97701   0.50305   0.00000  Uiso   1.00
H2440  H     0.86844   0.95672   0.50463   0.00000  Uiso   1.00
H2441  H     0.87079   0.68673   0.55346   0.00000  Uiso   1.00
H2442  H     0.84747   0.69506   0.51600   0.00000  Uiso   1.00
H2443  H     0.91405   0.72922   0.97892   0.00000  Uiso   1.00
H2444  H     0.94383   0.72319   0.51227   0.00000  Uiso   1.00
H2445  H     0.74603   0.90144   0.68519   0.00000  Uiso   1.00
H2446  H     0.94556   0.78455   0.87696   0.00000  Uiso   1.00
H2447  H     0.78696   0.87471   0.57713   0.00000  Uiso   1.00
H2448  H     0.94927   0.73643   0.84412   0.00000  Uiso   1.00
H2449  H     0.98538   0.75088   0.87508   0.00000  Uiso   1.00
H2450  H     0.69028   0.76389   0.80590   0.00000  Uiso   1.00
H2451  H     0.68586   0.81232   0.83880   0.00000  Uiso   1.00
H2452  H     0.95623   0.82476   0.81898   0.00000  Uiso   1.00
H2453  H     0.95873   0.77485   0.78741   0.00000  Uiso   1.00
H2454  H     0.98272   0.68371   0.69515   0.00000  Uiso   1.00
H2455  H     0.96609   0.73441   0.71812   0.00000  Uiso   1.00
H2456  H     0.99085   0.70525   0.74276   0.00000  Uiso   1.00
H2457  H     0.91147   0.70120   0.77354   0.00000  Uiso   1.00
H2458  H     0.89948   0.83827   0.93170   0.00000  Uiso   1.00
H2459  H     0.92842   0.98402   0.75174   0.00000  Uiso   1.00
H2460  H     0.90602   0.98992   0.69119   0.00000  Uiso   1.00
H2461  H     0.89159   0.70715   0.71049   0.00000  Uiso   1.00
H2462  H     0.68262   0.97011   0.79133   0.00000  Uiso   1.00
H2463  H     0.69008   0.98774   0.84009   0.00000  Uiso   1.00
H2464  H     0.99735   0.68497   0.81796   0.00000  Uiso   1.00
H2465  H     0.74070   0.71495   0.81447   0.00000  Uiso   1.00
H2466  H     0.73077   0.70062   0.76627   0.00000  Uiso   1.00
H2467  H     0.75990   0.96702   0.75891   0.00000  Uiso   1.00
H2468  H     0.76926   0.97995   0.80770   0.00000  Uiso   1.00
H2469  H     0.78623   0.68945   0.57999   0.00000  Uiso   1.00
H2470  H     0.95491   0.74772   0.65464   0.00000  Uiso   1.00
H2471  H     0.98559   0.72239   0.60779   0.00000  Uiso   1.00
H2472  H     0.67340   0.77231   0.62861   0.00000  Uiso   1.00
H2473  H     0.97795   0.78094   0.57333   0.00000  Uiso   1.00
H2474  H     0.94784   0.80614   0.62000   0.00000  Uiso   1.00
H2475  H     0.89198   0.74094   0.62580   0.00000  Uiso   1.00
H2476  H     0.92279   0.71956   0.57897   0.00000  Uiso   1.00
H2477  H     0.70046   0.78548   0.95641   0.00000  Uiso   1.00
H2478  H     0.70777   0.83517   0.93734   0.00000  Uiso   1.00
H2479  H     0.71657   0.83262   0.98477   0.00000  Uiso   1.00
H2480  H     0.74041   0.66680   0.61644   0.00000  Uiso   1.00
H2481  H     0.97931   0.85892   0.99361   0.00000  Uiso   1.00
H2482  H     0.97350   0.81041   0.51358   0.00000  Uiso   1.00
H2483  H     0.95962   0.77274   0.94816   0.00000  Uiso   1.00
H2484  H     0.96442   0.82199   0.93230   0.00000  Uiso   1.00
H2485  H     0.66804   0.98846   0.51313   0.00000  Uiso   1.00
H2486  H     0.70387   0.99639   0.54454   0.00000  Uiso   1.00
H2487  H     0.70554   0.70186   0.51307   0.00000  Uiso   1.00
H2488  H     0.76756   0.99335   0.98346   0.00000  Uiso   1.00
H2489  H     0.73169   0.98700   0.95320   0.00000  Uiso   1.00
H2490  H     0.70394   0.91826   0.96661   0.00000  Uiso   1.00
H2491  H     0.79199   0.68028   0.62677   0.00000  Uiso   1.00
H2492  H     0.71274   0.92295   0.51231   0.00000  Uiso   1.00
H2493  H     0.72179   0.94023   0.87453   0.00000  Uiso   1.00
H2494  H     0.80442   0.74089   0.91513   0.00000  Uiso   1.00
H2495  H     0.77785   0.93765   0.61013   0.00000  Uiso   1.00
H2496  H     0.82374   0.95900   0.57345   0.00000  Uiso   1.00
H2497  H     0.77115   0.96381   0.53377   0.00000  Uiso   1.00
O2498  O     0.83333   0.83333   0.75000   0.00000  Uiso   1.00
O2499  O     0.82360   0.79060   0.66625   0.00000  Uiso   1.00
O2500  O     0.79354   0.87313   0.83749   0.00000  Uiso   1.00
O2501  O     0.87755   0.84159   0.65877   0.00000  Uiso   1.00
O2502  O     0.83865   0.82802   0.83749   0.00000  Uiso   1.00
O2503  O     0.68463   0.85814   0.67166   0.00000  Uiso   1.00
O2504  O     0.72785   0.88889   0.71006   0.00000  Uiso   1.00
O2505  O     0.79214   0.95967   0.88467   0.00000  Uiso   1.00
O2506  O     0.72747   0.91983   0.89064   0.00000  Uiso   1.00
O2507  O     0.86167   0.79191   0.88613   0.00000  Uiso   1.00
O2508  O     0.79592   0.76999   0.92584   0.00000  Uiso   1.00
O2509  O     0.84515   0.74768   0.77821   0.00000  Uiso   1.00
O2510  O     0.81247   0.92803   0.76767   0.00000  Uiso   1.00
O2511  O     0.74119   0.79917   0.73607   0.00000  Uiso   1.00
O2512  O     0.93452   0.85845   0.71805   0.00000  Uiso   1.00
O2513  O     0.73656   0.85627   0.77820   0.00000  Uiso   1.00
O2514  O     0.92106   0.81944   0.76768   0.00000  Uiso   1.00
O2515  O     0.80467   0.73570   0.73607   0.00000  Uiso   1.00
O2516  O     0.87104   0.92193   0.71805   0.00000  Uiso   1.00
Zn2517 Zn    0.85910   0.80756   0.78278   0.00000  Uiso   1.00
Zn2518 Zn    0.80125   0.79044   0.72258   0.00000  Uiso   1.00
Zn2519 Zn    0.87833   0.86331   0.71188   0.00000  Uiso   1.00
Zn2520 Zn    0.79465   0.87202   0.78277   0.00000  Uiso   1.00
loop_
_geom_bond_atom_site_label_1
_geom_bond_atom_site_label_2
_geom_bond_distance
_geom_bond_site_symmetry_2
_ccdc_geom_bond_type
C1     C11     1.430   .     S
C1     O133    1.255   .     A
C1     O131    1.260   .     A
C2     H78     1.083   .     S
C2     C52     1.406   .     A
C2     C3      1.399   .     A
C3     C43     1.529   .     S
C3     C1265   1.420   .     S
C4     O132    1.294   .     A
C4     C10     1.468   .     S
C4     O134    1.274   .     A
C5     C6      1.423   .     A
C5     C7      1.423   .     A
C5     C1263   1.420   1_554 S
C6     C53     1.426   .     A
C6     C9      1.402   .     A
C7     C8      1.420   .     A
C7     C26     1.524   .     S
C8     C20     1.412   .     A
C8     C40     1.524   .     S
C9     C20     1.389   .     A
C9     H56     1.077   .     S
C10    C151    1.371   .     S
C10    C169    1.499   .     S
C11    C290    1.371   1_455 S
C11    C310    1.536   1_455 S
C12    C21     1.422   .     A
C12    C50     1.481   .     S
C12    C19     1.425   .     A
C13    C16     1.462   .     S
C13    C434    1.365   .     S
C13    C453    1.530   .     S
C14    C15     1.433   .     S
C14    C853    1.365   1_545 S
C14    C877    1.538   1_545 S
C15    O135    1.264   .     A
C15    O129    1.281   .     A
C16    O130    1.263   .     A
C16    O136    1.273   .     A
C17    C20     1.457   .     S
C17    O121    1.276   .     A
C17    O119    1.274   .     A
C18    C19     1.506   .     S
C18    O122    1.301   .     A
C18    O120    1.289   .     A
C19    C23     1.410   .     A
C21    C45     1.438   .     A
C21    C47     1.533   .     S
C22    H117    1.099   .     S
C22    C55     1.528   .     S
C22    H57     1.111   .     S
C22    C24     1.544   .     S
C23    C51     1.490   .     S
C23    C34     1.417   .     A
C24    H116    1.109   .     S
C24    H115    1.111   .     S
C24    C445    1.529   .     S
C25    H111    1.111   .     S
C25    H100    1.111   .     S
C25    H89     1.110   .     S
C25    C864    1.529   1_545 S
C26    C27     1.538   .     S
C26    H64     1.111   .     S
C26    H1323   1.103   1_554 S
C27    H62     1.112   .     S
C27    H61     1.107   .     S
C27    C2128   1.528   1_544 S
C28    H58     1.111   .     S
C28    C1707   1.528   .     S
C28    H1319   1.111   .     S
C28    H1320   1.109   .     S
C29    O124    1.399   .     S
C29    O123    1.223   .     D
C29    C290    1.499   1_455 S
C30    H73     1.111   .     S
C30    H72     1.112   .     S
C30    C151    1.536   .     S
C30    C171    1.538   .     S
C31    H70     1.110   .     S
C31    H71     1.112   .     S
C31    C310    1.538   1_455 S
C31    C312    1.526   1_455 S
C32    H66     1.108   .     S
C32    H68     1.110   .     S
C32    H69     1.110   .     S
C32    C171    1.526   .     S
C33    C35     1.535   .     S
C33    H81     1.110   .     S
C33    C853    1.530   1_545 S
C33    H920    1.112   1_545 S
C34    C45     1.428   .     A
C34    C52     1.418   .     A
C35    C36     1.527   .     S
C35    H77     1.112   .     S
C35    H919    1.112   1_545 S
C36    H76     1.111   .     S
C36    H75     1.111   .     S
C36    H74     1.111   .     S
C37    H88     1.112   .     S
C37    H87     1.113   .     S
C37    C434    1.538   .     S
C37    C458    1.538   .     S
C38    H86     1.111   .     S
C38    H85     1.112   .     S
C38    C877    1.538   1_545 S
C38    C879    1.528   1_545 S
C39    H82     1.111   .     S
C39    H83     1.111   .     S
C39    C458    1.528   .     S
C39    H784    1.107   1_455 S
C40    H95     1.112   .     S
C40    H96     1.106   .     S
C40    C41     1.534   .     S
C41    C42     1.526   .     S
C41    H93     1.112   .     S
C41    H94     1.110   .     S
C42    H91     1.111   .     S
C42    H90     1.111   .     S
C42    H232    1.110   .     S
C43    C44     1.536   .     S
C43    H104    1.111   .     S
C43    H103    1.103   .     S
C44    H101    1.112   .     S
C44    C186    1.526   .     S
C44    H1362   1.107   .     S
C45    C1315   1.440   .     S
C46    H99     1.109   .     S
C46    H98     1.110   .     S
C46    H97     1.111   .     S
C46    C324    1.526   1_455 S
C47    C48     1.546   .     S
C47    H110    1.111   .     S
C47    H1372   1.102   .     S
C48    H109    1.109   .     S
C48    H108    1.111   .     S
C48    C1729   1.528   .     S
C49    H107    1.111   .     S
C49    C2148   1.528   1_544 S
C49    H945    1.111   1_545 S
C49    H946    1.110   1_545 S
C50    O125    1.223   .     D
C50    O126    1.398   .     S
C51    O128    1.397   .     S
C51    O127    1.223   .     D
C52    C1313   1.403   .     S
C53    C54     1.406   .     A
C53    C1312   1.403   1_554 S
C54    H67     1.072   .     S
C54    C55     1.404   .     A
C55    C1305   1.440   1_554 S
H59    C1288   1.111   1_554 S
H60    C1288   1.109   1_554 S
H63    C1286   1.103   .     S
H65    O124    1.014   .     S
H79    C455    1.112   .     S
H80    C453    1.112   .     S
H84    C1019   1.107   1_545 S
H92    C322    1.110   1_455 S
H102   C1304   1.107   1_554 S
H105   C469    1.111   .     S
H106   C469    1.110   .     S
H112   C1307   1.102   1_554 S
H113   O126    1.014   .     S
H114   O128    1.014   .     S
O118   Zn137   1.971   .     S
O118   Zn140   1.923   .     S
O118   Zn139   1.935   .     S
O118   Zn138   1.933   .     S
O119   Zn138   1.915   .     S
O120   Zn140   1.928   .     S
O121   Zn139   1.914   .     S
O122   Zn137   1.903   .     S
O129   Zn137   1.930   .     S
O130   Zn140   1.941   .     S
O131   Zn138   1.932   .     S
O132   Zn139   1.946   .     S
O133   Zn140   1.937   .     S
O134   Zn137   1.928   .     S
O135   Zn138   1.949   .     S
O136   Zn139   1.935   .     S
C141   C151    1.430   .     S
C141   O273    1.255   .     A
C141   O271    1.260   .     A
C142   H218    1.083   .     S
C142   C192    1.406   .     A
C142   C143    1.399   .     A
C143   C183    1.529   .     S
C143   C1405   1.420   .     S
C144   O272    1.294   .     A
C144   C150    1.468   .     S
C144   O274    1.274   .     A
C145   C146    1.423   .     A
C145   C147    1.423   .     A
C145   C1403   1.420   1_554 S
C146   C193    1.426   .     A
C146   C149    1.402   .     A
C147   C148    1.420   .     A
C147   C166    1.524   .     S
C148   C160    1.412   .     A
C148   C180    1.524   .     S
C149   C160    1.389   .     A
C149   H196    1.077   .     S
C150   C291    1.371   .     S
C150   C309    1.499   .     S
C152   C161    1.422   .     A
C152   C190    1.481   .     S
C152   C159    1.425   .     A
C153   C156    1.462   .     S
C153   C574    1.365   .     S
C153   C593    1.530   .     S
C154   C155    1.433   .     S
C154   C993    1.365   1_545 S
C154   C1017   1.538   1_545 S
C155   O275    1.264   .     A
C155   O269    1.281   .     A
C156   O270    1.263   .     A
C156   O276    1.273   .     A
C157   C160    1.457   .     S
C157   O261    1.276   .     A
C157   O259    1.274   .     A
C158   C159    1.506   .     S
C158   O262    1.301   .     A
C158   O260    1.289   .     A
C159   C163    1.410   .     A
C161   C185    1.438   .     A
C161   C187    1.533   .     S
C162   H257    1.099   .     S
C162   C195    1.528   .     S
C162   H197    1.111   .     S
C162   C164    1.544   .     S
C163   C191    1.490   .     S
C163   C174    1.417   .     A
C164   H256    1.109   .     S
C164   H255    1.111   .     S
C164   C585    1.529   .     S
C165   H251    1.111   .     S
C165   H240    1.111   .     S
C165   H229    1.110   .     S
C165   C1004   1.529   1_545 S
C166   C167    1.538   .     S
C166   H204    1.111   .     S
C166   H1463   1.103   1_554 S
C167   H202    1.112   .     S
C167   H201    1.107   .     S
C167   C2268   1.528   1_544 S
C168   H198    1.111   .     S
C168   C1847   1.528   .     S
C168   H1459   1.111   .     S
C168   H1460   1.109   .     S
C169   O264    1.399   .     S
C169   O263    1.223   .     D
C170   H213    1.111   .     S
C170   H212    1.112   .     S
C170   C291    1.536   .     S
C170   C311    1.538   .     S
C171   H210    1.110   .     S
C171   H211    1.112   .     S
C172   H206    1.108   .     S
C172   H208    1.110   .     S
C172   H209    1.110   .     S
C172   C311    1.526   .     S
C173   C175    1.535   .     S
C173   H221    1.110   .     S
C173   C993    1.530   1_545 S
C173   H1060   1.112   1_545 S
C174   C185    1.428   .     A
C174   C192    1.418   .     A
C175   C176    1.527   .     S
C175   H217    1.112   .     S
C175   H1059   1.112   1_545 S
C176   H216    1.111   .     S
C176   H215    1.111   .     S
C176   H214    1.111   .     S
C177   H228    1.112   .     S
C177   H227    1.113   .     S
C177   C574    1.538   .     S
C177   C598    1.538   .     S
C178   H226    1.111   .     S
C178   H225    1.112   .     S
C178   C1017   1.538   1_545 S
C178   C1019   1.528   1_545 S
C179   H222    1.111   .     S
C179   H223    1.111   .     S
C179   C598    1.528   .     S
C179   H504    1.107   .     S
C180   H235    1.112   .     S
C180   H236    1.106   .     S
C180   C181    1.534   .     S
C181   C182    1.526   .     S
C181   H233    1.112   .     S
C181   H234    1.110   .     S
C182   H231    1.111   .     S
C182   H230    1.111   .     S
C182   H372    1.110   .     S
C183   C184    1.536   .     S
C183   H244    1.111   .     S
C183   H243    1.103   .     S
C184   H241    1.112   .     S
C184   C326    1.526   .     S
C184   H1502   1.107   .     S
C185   C1455   1.440   .     S
C186   H239    1.109   .     S
C186   H238    1.110   .     S
C186   H237    1.111   .     S
C187   C188    1.546   .     S
C187   H250    1.111   .     S
C187   H1512   1.102   .     S
C188   H249    1.109   .     S
C188   H248    1.111   .     S
C188   C1869   1.528   .     S
C189   H247    1.111   .     S
C189   C2288   1.528   1_544 S
C189   H1085   1.111   1_545 S
C189   H1086   1.110   1_545 S
C190   O265    1.223   .     D
C190   O266    1.398   .     S
C191   O268    1.397   .     S
C191   O267    1.223   .     D
C192   C1453   1.403   .     S
C193   C194    1.406   .     A
C193   C1452   1.403   1_554 S
C194   H207    1.072   .     S
C194   C195    1.404   .     A
C195   C1445   1.440   1_554 S
H199   C1428   1.111   1_554 S
H200   C1428   1.109   1_554 S
H203   C1426   1.103   .     S
H205   O264    1.014   .     S
H219   C595    1.112   .     S
H220   C593    1.112   .     S
H224   C1159   1.107   1_545 S
H242   C1444   1.107   1_554 S
H245   C609    1.111   .     S
H246   C609    1.110   .     S
H252   C1447   1.102   1_554 S
H253   O266    1.014   .     S
H254   O268    1.014   .     S
O258   Zn277   1.971   .     S
O258   Zn280   1.923   .     S
O258   Zn279   1.935   .     S
O258   Zn278   1.933   .     S
O259   Zn278   1.915   .     S
O260   Zn280   1.928   .     S
O261   Zn279   1.914   .     S
O262   Zn277   1.903   .     S
O269   Zn277   1.930   .     S
O270   Zn280   1.941   .     S
O271   Zn278   1.932   .     S
O272   Zn279   1.946   .     S
O273   Zn280   1.937   .     S
O274   Zn277   1.928   .     S
O275   Zn278   1.949   .     S
O276   Zn279   1.935   .     S
C281   C291    1.430   .     S
C281   O413    1.255   .     A
C281   O411    1.260   .     A
C282   H358    1.083   .     S
C282   C332    1.406   .     A
C282   C283    1.399   .     A
C283   C323    1.529   .     S
C283   C1545   1.420   .     S
C284   O412    1.294   .     A
C284   C290    1.468   .     S
C284   O414    1.274   .     A
C285   C286    1.423   .     A
C285   C287    1.423   .     A
C285   C1543   1.420   1_554 S
C286   C333    1.426   .     A
C286   C289    1.402   .     A
C287   C288    1.420   .     A
C287   C306    1.524   .     S
C288   C300    1.412   .     A
C288   C320    1.524   .     S
C289   C300    1.389   .     A
C289   H336    1.077   .     S
C290   C11     1.371   1_655 S
C290   C29     1.499   1_655 S
C292   C301    1.422   .     A
C292   C330    1.481   .     S
C292   C299    1.425   .     A
C293   C296    1.462   .     S
C293   C714    1.365   .     S
C293   C733    1.530   .     S
C294   C295    1.433   .     S
C294   C1133   1.365   1_545 S
C294   C1157   1.538   1_545 S
C295   O415    1.264   .     A
C295   O409    1.281   .     A
C296   O410    1.263   .     A
C296   O416    1.273   .     A
C297   C300    1.457   .     S
C297   O401    1.276   .     A
C297   O399    1.274   .     A
C298   C299    1.506   .     S
C298   O402    1.301   .     A
C298   O400    1.289   .     A
C299   C303    1.410   .     A
C301   C325    1.438   .     A
C301   C327    1.533   .     S
C302   H397    1.099   .     S
C302   C335    1.528   .     S
C302   H337    1.111   .     S
C302   C304    1.544   .     S
C303   C331    1.490   .     S
C303   C314    1.417   .     A
C304   H396    1.109   .     S
C304   H395    1.111   .     S
C304   C725    1.529   .     S
C305   H391    1.111   .     S
C305   H380    1.111   .     S
C305   H369    1.110   .     S
C305   C1144   1.529   1_545 S
C306   C307    1.538   .     S
C306   H344    1.111   .     S
C306   H1603   1.103   1_554 S
C307   H342    1.112   .     S
C307   H341    1.107   .     S
C307   C2408   1.528   1_544 S
C308   H338    1.111   .     S
C308   C1987   1.528   .     S
C308   H1599   1.111   .     S
C308   H1600   1.109   .     S
C309   O404    1.399   .     S
C309   O403    1.223   .     D
C310   H353    1.111   .     S
C310   H352    1.112   .     S
C310   C11     1.536   1_655 S
C310   C31     1.538   1_655 S
C311   H350    1.110   .     S
C311   H351    1.112   .     S
C312   H346    1.108   .     S
C312   H348    1.110   .     S
C312   H349    1.110   .     S
C312   C31     1.526   1_655 S
C313   C315    1.535   .     S
C313   H361    1.110   .     S
C313   C1133   1.530   1_545 S
C313   H1200   1.112   1_545 S
C314   C325    1.428   .     A
C314   C332    1.418   .     A
C315   C316    1.527   .     S
C315   H357    1.112   .     S
C315   H1199   1.112   1_545 S
C316   H356    1.111   .     S
C316   H355    1.111   .     S
C316   H354    1.111   .     S
C317   H368    1.112   .     S
C317   H367    1.113   .     S
C317   C714    1.538   .     S
C317   C738    1.538   .     S
C318   H366    1.111   .     S
C318   H365    1.112   .     S
C318   C1157   1.538   1_545 S
C318   C1159   1.528   1_545 S
C319   H362    1.111   .     S
C319   H363    1.111   .     S
C319   C738    1.528   .     S
C319   H644    1.107   .     S
C320   H375    1.112   .     S
C320   H376    1.106   .     S
C320   C321    1.534   .     S
C321   C322    1.526   .     S
C321   H373    1.112   .     S
C321   H374    1.110   .     S
C322   H371    1.111   .     S
C322   H370    1.111   .     S
C322   H92     1.110   1_655 S
C323   C324    1.536   .     S
C323   H384    1.111   .     S
C323   H383    1.103   .     S
C324   H381    1.112   .     S
C324   C46     1.526   1_655 S
C324   H1642   1.107   .     S
C325   C1595   1.440   .     S
C326   H379    1.109   .     S
C326   H378    1.110   .     S
C326   H377    1.111   .     S
C327   C328    1.546   .     S
C327   H390    1.111   .     S
C327   H1652   1.102   .     S
C328   H389    1.109   .     S
C328   H388    1.111   .     S
C328   C2009   1.528   .     S
C329   H387    1.111   .     S
C329   C2428   1.528   1_544 S
C329   H1225   1.111   1_545 S
C329   H1226   1.110   1_545 S
C330   O405    1.223   .     D
C330   O406    1.398   .     S
C331   O408    1.397   .     S
C331   O407    1.223   .     D
C332   C1593   1.403   .     S
C333   C334    1.406   .     A
C333   C1592   1.403   1_554 S
C334   H347    1.072   .     S
C334   C335    1.404   .     A
C335   C1585   1.440   1_554 S
H339   C1568   1.111   1_554 S
H340   C1568   1.109   1_554 S
H343   C1566   1.103   .     S
H345   O404    1.014   .     S
H359   C735    1.112   .     S
H360   C733    1.112   .     S
H364   C879    1.107   1_645 S
H382   C1584   1.107   1_554 S
H385   C749    1.111   .     S
H386   C749    1.110   .     S
H392   C1587   1.102   1_554 S
H393   O406    1.014   .     S
H394   O408    1.014   .     S
O398   Zn417   1.971   .     S
O398   Zn420   1.923   .     S
O398   Zn419   1.935   .     S
O398   Zn418   1.933   .     S
O399   Zn418   1.915   .     S
O400   Zn420   1.928   .     S
O401   Zn419   1.914   .     S
O402   Zn417   1.903   .     S
O409   Zn417   1.930   .     S
O410   Zn420   1.941   .     S
O411   Zn418   1.932   .     S
O412   Zn419   1.946   .     S
O413   Zn420   1.937   .     S
O414   Zn417   1.928   .     S
O415   Zn418   1.949   .     S
O416   Zn419   1.935   .     S
C421   C431    1.430   .     S
C421   O553    1.255   .     A
C421   O551    1.260   .     A
C422   H498    1.083   .     S
C422   C472    1.406   .     A
C422   C423    1.399   .     A
C423   C463    1.529   .     S
C423   C1685   1.420   .     S
C424   O552    1.294   .     A
C424   C430    1.468   .     S
C424   O554    1.274   .     A
C425   C426    1.423   .     A
C425   C427    1.423   .     A
C425   C1683   1.420   1_554 S
C426   C473    1.426   .     A
C426   C429    1.402   .     A
C427   C428    1.420   .     A
C427   C446    1.524   .     S
C428   C440    1.412   .     A
C428   C460    1.524   .     S
C429   C440    1.389   .     A
C429   H476    1.077   .     S
C430   C571    1.371   .     S
C430   C589    1.499   .     S
C431   C710    1.371   1_455 S
C431   C730    1.536   1_455 S
C432   C441    1.422   .     A
C432   C470    1.481   .     S
C432   C439    1.425   .     A
C433   C436    1.462   .     S
C433   C854    1.365   .     S
C433   C873    1.530   .     S
C434   C435    1.433   .     S
C435   O555    1.264   .     A
C435   O549    1.281   .     A
C436   O550    1.263   .     A
C436   O556    1.273   .     A
C437   C440    1.457   .     S
C437   O541    1.276   .     A
C437   O539    1.274   .     A
C438   C439    1.506   .     S
C438   O542    1.301   .     A
C438   O540    1.289   .     A
C439   C443    1.410   .     A
C441   C465    1.438   .     A
C441   C467    1.533   .     S
C442   H537    1.099   .     S
C442   C475    1.528   .     S
C442   H477    1.111   .     S
C442   C444    1.544   .     S
C443   C471    1.490   .     S
C443   C454    1.417   .     A
C444   H536    1.109   .     S
C444   H535    1.111   .     S
C444   C865    1.529   .     S
C445   H531    1.111   .     S
C445   H520    1.111   .     S
C445   H509    1.110   .     S
C446   C447    1.538   .     S
C446   H484    1.111   .     S
C446   H1743   1.103   1_554 S
C447   H482    1.112   .     S
C447   H481    1.107   .     S
C447   C1288   1.528   1_554 S
C448   H478    1.111   .     S
C448   C2127   1.528   .     S
C448   H1739   1.111   .     S
C448   H1740   1.109   .     S
C449   O544    1.399   .     S
C449   O543    1.223   .     D
C449   C710    1.499   1_455 S
C450   H493    1.111   .     S
C450   H492    1.112   .     S
C450   C571    1.536   .     S
C450   C591    1.538   .     S
C451   H490    1.110   .     S
C451   H491    1.112   .     S
C451   C730    1.538   1_455 S
C451   C732    1.526   1_455 S
C452   H486    1.108   .     S
C452   H488    1.110   .     S
C452   H489    1.110   .     S
C452   C591    1.526   .     S
C453   C455    1.535   .     S
C453   H501    1.110   .     S
C454   C465    1.428   .     A
C454   C472    1.418   .     A
C455   C456    1.527   .     S
C455   H497    1.112   .     S
C456   H496    1.111   .     S
C456   H495    1.111   .     S
C456   H494    1.111   .     S
C457   H508    1.112   .     S
C457   H507    1.113   .     S
C457   C854    1.538   .     S
C457   C878    1.538   .     S
C458   H506    1.111   .     S
C458   H505    1.112   .     S
C459   H502    1.111   .     S
C459   H503    1.111   .     S
C459   C878    1.528   .     S
C459   H1204   1.107   1_455 S
C460   H515    1.112   .     S
C460   H516    1.106   .     S
C460   C461    1.534   .     S
C461   C462    1.526   .     S
C461   H513    1.112   .     S
C461   H514    1.110   .     S
C462   H511    1.111   .     S
C462   H510    1.111   .     S
C462   H652    1.110   .     S
C463   C464    1.536   .     S
C463   H524    1.111   .     S
C463   H523    1.103   .     S
C464   H521    1.112   .     S
C464   C606    1.526   .     S
C464   H1782   1.107   .     S
C465   C1735   1.440   .     S
C466   H519    1.109   .     S
C466   H518    1.110   .     S
C466   H517    1.111   .     S
C466   C744    1.526   1_455 S
C467   C468    1.546   .     S
C467   H530    1.111   .     S
C467   H1792   1.102   .     S
C468   H529    1.109   .     S
C468   H528    1.111   .     S
C468   C2149   1.528   .     S
C469   H527    1.111   .     S
C469   C1308   1.528   1_554 S
C470   O545    1.223   .     D
C470   O546    1.398   .     S
C471   O548    1.397   .     S
C471   O547    1.223   .     D
C472   C1733   1.403   .     S
C473   C474    1.406   .     A
C473   C1732   1.403   1_554 S
C474   H487    1.072   .     S
C474   C475    1.404   .     A
C475   C1725   1.440   1_554 S
H479   C1708   1.111   1_554 S
H480   C1708   1.109   1_554 S
H483   C1706   1.103   .     S
H485   O544    1.014   .     S
H499   C875    1.112   .     S
H500   C873    1.112   .     S
H512   C742    1.110   1_455 S
H522   C1724   1.107   1_554 S
H525   C889    1.111   .     S
H526   C889    1.110   .     S
H532   C1727   1.102   1_554 S
H533   O546    1.014   .     S
H534   O548    1.014   .     S
O538   Zn557   1.971   .     S
O538   Zn560   1.923   .     S
O538   Zn559   1.935   .     S
O538   Zn558   1.933   .     S
O539   Zn558   1.915   .     S
O540   Zn560   1.928   .     S
O541   Zn559   1.914   .     S
O542   Zn557   1.903   .     S
O549   Zn557   1.930   .     S
O550   Zn560   1.941   .     S
O551   Zn558   1.932   .     S
O552   Zn559   1.946   .     S
O553   Zn560   1.937   .     S
O554   Zn557   1.928   .     S
O555   Zn558   1.949   .     S
O556   Zn559   1.935   .     S
C561   C571    1.430   .     S
C561   O693    1.255   .     A
C561   O691    1.260   .     A
C562   H638    1.083   .     S
C562   C612    1.406   .     A
C562   C563    1.399   .     A
C563   C603    1.529   .     S
C563   C1825   1.420   .     S
C564   O692    1.294   .     A
C564   C570    1.468   .     S
C564   O694    1.274   .     A
C565   C566    1.423   .     A
C565   C567    1.423   .     A
C565   C1823   1.420   1_554 S
C566   C613    1.426   .     A
C566   C569    1.402   .     A
C567   C568    1.420   .     A
C567   C586    1.524   .     S
C568   C580    1.412   .     A
C568   C600    1.524   .     S
C569   C580    1.389   .     A
C569   H616    1.077   .     S
C570   C711    1.371   .     S
C570   C729    1.499   .     S
C572   C581    1.422   .     A
C572   C610    1.481   .     S
C572   C579    1.425   .     A
C573   C576    1.462   .     S
C573   C994    1.365   .     S
C573   C1013   1.530   .     S
C574   C575    1.433   .     S
C575   O695    1.264   .     A
C575   O689    1.281   .     A
C576   O690    1.263   .     A
C576   O696    1.273   .     A
C577   C580    1.457   .     S
C577   O681    1.276   .     A
C577   O679    1.274   .     A
C578   C579    1.506   .     S
C578   O682    1.301   .     A
C578   O680    1.289   .     A
C579   C583    1.410   .     A
C581   C605    1.438   .     A
C581   C607    1.533   .     S
C582   H677    1.099   .     S
C582   C615    1.528   .     S
C582   H617    1.111   .     S
C582   C584    1.544   .     S
C583   C611    1.490   .     S
C583   C594    1.417   .     A
C584   H676    1.109   .     S
C584   H675    1.111   .     S
C584   C1005   1.529   .     S
C585   H671    1.111   .     S
C585   H660    1.111   .     S
C585   H649    1.110   .     S
C586   C587    1.538   .     S
C586   H624    1.111   .     S
C586   H1883   1.103   1_554 S
C587   H622    1.112   .     S
C587   H621    1.107   .     S
C587   C1428   1.528   1_554 S
C588   H618    1.111   .     S
C588   C2267   1.528   .     S
C588   H1879   1.111   .     S
C588   H1880   1.109   .     S
C589   O684    1.399   .     S
C589   O683    1.223   .     D
C590   H633    1.111   .     S
C590   H632    1.112   .     S
C590   C711    1.536   .     S
C590   C731    1.538   .     S
C591   H630    1.110   .     S
C591   H631    1.112   .     S
C592   H626    1.108   .     S
C592   H628    1.110   .     S
C592   H629    1.110   .     S
C592   C731    1.526   .     S
C593   C595    1.535   .     S
C593   H641    1.110   .     S
C594   C605    1.428   .     A
C594   C612    1.418   .     A
C595   C596    1.527   .     S
C595   H637    1.112   .     S
C596   H636    1.111   .     S
C596   H635    1.111   .     S
C596   H634    1.111   .     S
C597   H648    1.112   .     S
C597   H647    1.113   .     S
C597   C994    1.538   .     S
C597   C1018   1.538   .     S
C598   H646    1.111   .     S
C598   H645    1.112   .     S
C599   H642    1.111   .     S
C599   H643    1.111   .     S
C599   C1018   1.528   .     S
C599   H924    1.107   .     S
C600   H655    1.112   .     S
C600   H656    1.106   .     S
C600   C601    1.534   .     S
C601   C602    1.526   .     S
C601   H653    1.112   .     S
C601   H654    1.110   .     S
C602   H651    1.111   .     S
C602   H650    1.111   .     S
C602   H792    1.110   .     S
C603   C604    1.536   .     S
C603   H664    1.111   .     S
C603   H663    1.103   .     S
C604   H661    1.112   .     S
C604   C746    1.526   .     S
C604   H1922   1.107   .     S
C605   C1875   1.440   .     S
C606   H659    1.109   .     S
C606   H658    1.110   .     S
C606   H657    1.111   .     S
C607   C608    1.546   .     S
C607   H670    1.111   .     S
C607   H1932   1.102   .     S
C608   H669    1.109   .     S
C608   H668    1.111   .     S
C608   C2289   1.528   .     S
C609   H667    1.111   .     S
C609   C1448   1.528   1_554 S
C610   O685    1.223   .     D
C610   O686    1.398   .     S
C611   O688    1.397   .     S
C611   O687    1.223   .     D
C612   C1873   1.403   .     S
C613   C614    1.406   .     A
C613   C1872   1.403   1_554 S
C614   H627    1.072   .     S
C614   C615    1.404   .     A
C615   C1865   1.440   1_554 S
H619   C1848   1.111   1_554 S
H620   C1848   1.109   1_554 S
H623   C1846   1.103   .     S
H625   O684    1.014   .     S
H639   C1015   1.112   .     S
H640   C1013   1.112   .     S
H662   C1864   1.107   1_554 S
H665   C1029   1.111   .     S
H666   C1029   1.110   .     S
H672   C1867   1.102   1_554 S
H673   O686    1.014   .     S
H674   O688    1.014   .     S
O678   Zn697   1.971   .     S
O678   Zn700   1.923   .     S
O678   Zn699   1.935   .     S
O678   Zn698   1.933   .     S
O679   Zn698   1.915   .     S
O680   Zn700   1.928   .     S
O681   Zn699   1.914   .     S
O682   Zn697   1.903   .     S
O689   Zn697   1.930   .     S
O690   Zn700   1.941   .     S
O691   Zn698   1.932   .     S
O692   Zn699   1.946   .     S
O693   Zn700   1.937   .     S
O694   Zn697   1.928   .     S
O695   Zn698   1.949   .     S
O696   Zn699   1.935   .     S
C701   C711    1.430   .     S
C701   O833    1.255   .     A
C701   O831    1.260   .     A
C702   H778    1.083   .     S
C702   C752    1.406   .     A
C702   C703    1.399   .     A
C703   C743    1.529   .     S
C703   C1965   1.420   .     S
C704   O832    1.294   .     A
C704   C710    1.468   .     S
C704   O834    1.274   .     A
C705   C706    1.423   .     A
C705   C707    1.423   .     A
C705   C1963   1.420   1_554 S
C706   C753    1.426   .     A
C706   C709    1.402   .     A
C707   C708    1.420   .     A
C707   C726    1.524   .     S
C708   C720    1.412   .     A
C708   C740    1.524   .     S
C709   C720    1.389   .     A
C709   H756    1.077   .     S
C710   C431    1.371   1_655 S
C710   C449    1.499   1_655 S
C712   C721    1.422   .     A
C712   C750    1.481   .     S
C712   C719    1.425   .     A
C713   C716    1.462   .     S
C713   C1134   1.365   .     S
C713   C1153   1.530   .     S
C714   C715    1.433   .     S
C715   O835    1.264   .     A
C715   O829    1.281   .     A
C716   O830    1.263   .     A
C716   O836    1.273   .     A
C717   C720    1.457   .     S
C717   O821    1.276   .     A
C717   O819    1.274   .     A
C718   C719    1.506   .     S
C718   O822    1.301   .     A
C718   O820    1.289   .     A
C719   C723    1.410   .     A
C721   C745    1.438   .     A
C721   C747    1.533   .     S
C722   H817    1.099   .     S
C722   C755    1.528   .     S
C722   H757    1.111   .     S
C722   C724    1.544   .     S
C723   C751    1.490   .     S
C723   C734    1.417   .     A
C724   H816    1.109   .     S
C724   H815    1.111   .     S
C724   C1145   1.529   .     S
C725   H811    1.111   .     S
C725   H800    1.111   .     S
C725   H789    1.110   .     S
C726   C727    1.538   .     S
C726   H764    1.111   .     S
C726   H2023   1.103   1_554 S
C727   H762    1.112   .     S
C727   H761    1.107   .     S
C727   C1568   1.528   1_554 S
C728   H758    1.111   .     S
C728   C2407   1.528   .     S
C728   H2019   1.111   .     S
C728   H2020   1.109   .     S
C729   O824    1.399   .     S
C729   O823    1.223   .     D
C730   H773    1.111   .     S
C730   H772    1.112   .     S
C730   C431    1.536   1_655 S
C730   C451    1.538   1_655 S
C731   H770    1.110   .     S
C731   H771    1.112   .     S
C732   H766    1.108   .     S
C732   H768    1.110   .     S
C732   H769    1.110   .     S
C732   C451    1.526   1_655 S
C733   C735    1.535   .     S
C733   H781    1.110   .     S
C734   C745    1.428   .     A
C734   C752    1.418   .     A
C735   C736    1.527   .     S
C735   H777    1.112   .     S
C736   H776    1.111   .     S
C736   H775    1.111   .     S
C736   H774    1.111   .     S
C737   H788    1.112   .     S
C737   H787    1.113   .     S
C737   C1134   1.538   .     S
C737   C1158   1.538   .     S
C738   H786    1.111   .     S
C738   H785    1.112   .     S
C739   H782    1.111   .     S
C739   H783    1.111   .     S
C739   C1158   1.528   .     S
C739   H1064   1.107   .     S
C740   H795    1.112   .     S
C740   H796    1.106   .     S
C740   C741    1.534   .     S
C741   C742    1.526   .     S
C741   H793    1.112   .     S
C741   H794    1.110   .     S
C742   H791    1.111   .     S
C742   H790    1.111   .     S
C742   H512    1.110   1_655 S
C743   C744    1.536   .     S
C743   H804    1.111   .     S
C743   H803    1.103   .     S
C744   H801    1.112   .     S
C744   C466    1.526   1_655 S
C744   H2062   1.107   .     S
C745   C2015   1.440   .     S
C746   H799    1.109   .     S
C746   H798    1.110   .     S
C746   H797    1.111   .     S
C747   C748    1.546   .     S
C747   H810    1.111   .     S
C747   H2072   1.102   .     S
C748   H809    1.109   .     S
C748   H808    1.111   .     S
C748   C2429   1.528   .     S
C749   H807    1.111   .     S
C749   C1588   1.528   1_554 S
C750   O825    1.223   .     D
C750   O826    1.398   .     S
C751   O828    1.397   .     S
C751   O827    1.223   .     D
C752   C2013   1.403   .     S
C753   C754    1.406   .     A
C753   C2012   1.403   1_554 S
C754   H767    1.072   .     S
C754   C755    1.404   .     A
C755   C2005   1.440   1_554 S
H759   C1988   1.111   1_554 S
H760   C1988   1.109   1_554 S
H763   C1986   1.103   .     S
H765   O824    1.014   .     S
H779   C1155   1.112   .     S
H780   C1153   1.112   .     S
H784   C39     1.107   1_655 S
H802   C2004   1.107   1_554 S
H805   C1169   1.111   .     S
H806   C1169   1.110   .     S
H812   C2007   1.102   1_554 S
H813   O826    1.014   .     S
H814   O828    1.014   .     S
O818   Zn837   1.971   .     S
O818   Zn840   1.923   .     S
O818   Zn839   1.935   .     S
O818   Zn838   1.933   .     S
O819   Zn838   1.915   .     S
O820   Zn840   1.928   .     S
O821   Zn839   1.914   .     S
O822   Zn837   1.903   .     S
O829   Zn837   1.930   .     S
O830   Zn840   1.941   .     S
O831   Zn838   1.932   .     S
O832   Zn839   1.946   .     S
O833   Zn840   1.937   .     S
O834   Zn837   1.928   .     S
O835   Zn838   1.949   .     S
O836   Zn839   1.935   .     S
C841   C851    1.430   .     S
C841   O973    1.255   .     A
C841   O971    1.260   .     A
C842   H918    1.083   .     S
C842   C892    1.406   .     A
C842   C843    1.399   .     A
C843   C883    1.529   .     S
C843   C2105   1.420   .     S
C844   O972    1.294   .     A
C844   C850    1.468   .     S
C844   O974    1.274   .     A
C845   C846    1.423   .     A
C845   C847    1.423   .     A
C845   C2103   1.420   1_554 S
C846   C893    1.426   .     A
C846   C849    1.402   .     A
C847   C848    1.420   .     A
C847   C866    1.524   .     S
C848   C860    1.412   .     A
C848   C880    1.524   .     S
C849   C860    1.389   .     A
C849   H896    1.077   .     S
C850   C991    1.371   .     S
C850   C1009   1.499   .     S
C851   C1130   1.371   1_455 S
C851   C1150   1.536   1_455 S
C852   C861    1.422   .     A
C852   C890    1.481   .     S
C852   C859    1.425   .     A
C853   C856    1.462   .     S
C853   C14     1.365   1_565 S
C853   C33     1.530   1_565 S
C854   C855    1.433   .     S
C855   O975    1.264   .     A
C855   O969    1.281   .     A
C856   O970    1.263   .     A
C856   O976    1.273   .     A
C857   C860    1.457   .     S
C857   O961    1.276   .     A
C857   O959    1.274   .     A
C858   C859    1.506   .     S
C858   O962    1.301   .     A
C858   O960    1.289   .     A
C859   C863    1.410   .     A
C861   C885    1.438   .     A
C861   C887    1.533   .     S
C862   H957    1.099   .     S
C862   C895    1.528   .     S
C862   H897    1.111   .     S
C862   C864    1.544   .     S
C863   C891    1.490   .     S
C863   C874    1.417   .     A
C864   H956    1.109   .     S
C864   H955    1.111   .     S
C864   C25     1.529   1_565 S
C865   H951    1.111   .     S
C865   H940    1.111   .     S
C865   H929    1.110   .     S
C866   C867    1.538   .     S
C866   H904    1.111   .     S
C866   H2163   1.103   1_554 S
C867   H902    1.112   .     S
C867   H901    1.107   .     S
C867   C1708   1.528   1_554 S
C868   H898    1.111   .     S
C868   C1287   1.528   1_565 S
C868   H2159   1.111   .     S
C868   H2160   1.109   .     S
C869   O964    1.399   .     S
C869   O963    1.223   .     D
C869   C1130   1.499   1_455 S
C870   H913    1.111   .     S
C870   H912    1.112   .     S
C870   C991    1.536   .     S
C870   C1011   1.538   .     S
C871   H910    1.110   .     S
C871   H911    1.112   .     S
C871   C1150   1.538   1_455 S
C871   C1152   1.526   1_455 S
C872   H906    1.108   .     S
C872   H908    1.110   .     S
C872   H909    1.110   .     S
C872   C1011   1.526   .     S
C873   C875    1.535   .     S
C873   H921    1.110   .     S
C874   C885    1.428   .     A
C874   C892    1.418   .     A
C875   C876    1.527   .     S
C875   H917    1.112   .     S
C876   H916    1.111   .     S
C876   H915    1.111   .     S
C876   H914    1.111   .     S
C877   H928    1.112   .     S
C877   H927    1.113   .     S
C877   C14     1.538   1_565 S
C877   C38     1.538   1_565 S
C878   H926    1.111   .     S
C878   H925    1.112   .     S
C879   H922    1.111   .     S
C879   H923    1.111   .     S
C879   C38     1.528   1_565 S
C879   H364    1.107   1_465 S
C880   H935    1.112   .     S
C880   H936    1.106   .     S
C880   C881    1.534   .     S
C881   C882    1.526   .     S
C881   H933    1.112   .     S
C881   H934    1.110   .     S
C882   H931    1.111   .     S
C882   H930    1.111   .     S
C882   H1072   1.110   .     S
C883   C884    1.536   .     S
C883   H944    1.111   .     S
C883   H943    1.103   .     S
C884   H941    1.112   .     S
C884   C1026   1.526   .     S
C884   H2202   1.107   .     S
C885   C2155   1.440   .     S
C886   H939    1.109   .     S
C886   H938    1.110   .     S
C886   H937    1.111   .     S
C886   C1164   1.526   1_455 S
C887   C888    1.546   .     S
C887   H950    1.111   .     S
C887   H2212   1.102   .     S
C888   H949    1.109   .     S
C888   H948    1.111   .     S
C888   C1309   1.528   1_565 S
C889   H947    1.111   .     S
C889   C1728   1.528   1_554 S
C890   O965    1.223   .     D
C890   O966    1.398   .     S
C891   O968    1.397   .     S
C891   O967    1.223   .     D
C892   C2153   1.403   .     S
C893   C894    1.406   .     A
C893   C2152   1.403   1_554 S
C894   H907    1.072   .     S
C894   C895    1.404   .     A
C895   C2145   1.440   1_554 S
H899   C2128   1.111   1_554 S
H900   C2128   1.109   1_554 S
H903   C2126   1.103   .     S
H905   O964    1.014   .     S
H919   C35     1.112   1_565 S
H920   C33     1.112   1_565 S
H932   C1162   1.110   1_455 S
H942   C2144   1.107   1_554 S
H945   C49     1.111   1_565 S
H946   C49     1.110   1_565 S
H952   C2147   1.102   1_554 S
H953   O966    1.014   .     S
H954   O968    1.014   .     S
O958   Zn977   1.971   .     S
O958   Zn980   1.923   .     S
O958   Zn979   1.935   .     S
O958   Zn978   1.933   .     S
O959   Zn978   1.915   .     S
O960   Zn980   1.928   .     S
O961   Zn979   1.914   .     S
O962   Zn977   1.903   .     S
O969   Zn977   1.930   .     S
O970   Zn980   1.941   .     S
O971   Zn978   1.932   .     S
O972   Zn979   1.946   .     S
O973   Zn980   1.937   .     S
O974   Zn977   1.928   .     S
O975   Zn978   1.949   .     S
O976   Zn979   1.935   .     S
C981   C991    1.430   .     S
C981   O1113   1.255   .     A
C981   O1111   1.260   .     A
C982   H1058   1.083   .     S
C982   C1032   1.406   .     A
C982   C983    1.399   .     A
C983   C1023   1.529   .     S
C983   C2245   1.420   .     S
C984   O1112   1.294   .     A
C984   C990    1.468   .     S
C984   O1114   1.274   .     A
C985   C986    1.423   .     A
C985   C987    1.423   .     A
C985   C2243   1.420   1_554 S
C986   C1033   1.426   .     A
C986   C989    1.402   .     A
C987   C988    1.420   .     A
C987   C1006   1.524   .     S
C988   C1000   1.412   .     A
C988   C1020   1.524   .     S
C989   C1000   1.389   .     A
C989   H1036   1.077   .     S
C990   C1131   1.371   .     S
C990   C1149   1.499   .     S
C992   C1001   1.422   .     A
C992   C1030   1.481   .     S
C992   C999    1.425   .     A
C993   C996    1.462   .     S
C993   C154    1.365   1_565 S
C993   C173    1.530   1_565 S
C994   C995    1.433   .     S
C995   O1115   1.264   .     A
C995   O1109   1.281   .     A
C996   O1110   1.263   .     A
C996   O1116   1.273   .     A
C997   C1000   1.457   .     S
C997   O1101   1.276   .     A
C997   O1099   1.274   .     A
C998   C999    1.506   .     S
C998   O1102   1.301   .     A
C998   O1100   1.289   .     A
C999   C1003   1.410   .     A
C1001  C1025   1.438   .     A
C1001  C1027   1.533   .     S
C1002  H1097   1.099   .     S
C1002  C1035   1.528   .     S
C1002  H1037   1.111   .     S
C1002  C1004   1.544   .     S
C1003  C1031   1.490   .     S
C1003  C1014   1.417   .     A
C1004  H1096   1.109   .     S
C1004  H1095   1.111   .     S
C1004  C165    1.529   1_565 S
C1005  H1091   1.111   .     S
C1005  H1080   1.111   .     S
C1005  H1069   1.110   .     S
C1006  C1007   1.538   .     S
C1006  H1044   1.111   .     S
C1006  H2303   1.103   1_554 S
C1007  H1042   1.112   .     S
C1007  H1041   1.107   .     S
C1007  C1848   1.528   1_554 S
C1008  H1038   1.111   .     S
C1008  C1427   1.528   1_565 S
C1008  H2299   1.111   .     S
C1008  H2300   1.109   .     S
C1009  O1104   1.399   .     S
C1009  O1103   1.223   .     D
C1010  H1053   1.111   .     S
C1010  H1052   1.112   .     S
C1010  C1131   1.536   .     S
C1010  C1151   1.538   .     S
C1011  H1050   1.110   .     S
C1011  H1051   1.112   .     S
C1012  H1046   1.108   .     S
C1012  H1048   1.110   .     S
C1012  H1049   1.110   .     S
C1012  C1151   1.526   .     S
C1013  C1015   1.535   .     S
C1013  H1061   1.110   .     S
C1014  C1025   1.428   .     A
C1014  C1032   1.418   .     A
C1015  C1016   1.527   .     S
C1015  H1057   1.112   .     S
C1016  H1056   1.111   .     S
C1016  H1055   1.111   .     S
C1016  H1054   1.111   .     S
C1017  H1068   1.112   .     S
C1017  H1067   1.113   .     S
C1017  C154    1.538   1_565 S
C1017  C178    1.538   1_565 S
C1018  H1066   1.111   .     S
C1018  H1065   1.112   .     S
C1019  H1062   1.111   .     S
C1019  H1063   1.111   .     S
C1019  C178    1.528   1_565 S
C1019  H84     1.107   1_565 S
C1020  H1075   1.112   .     S
C1020  H1076   1.106   .     S
C1020  C1021   1.534   .     S
C1021  C1022   1.526   .     S
C1021  H1073   1.112   .     S
C1021  H1074   1.110   .     S
C1022  H1071   1.111   .     S
C1022  H1070   1.111   .     S
C1022  H1212   1.110   .     S
C1023  C1024   1.536   .     S
C1023  H1084   1.111   .     S
C1023  H1083   1.103   .     S
C1024  H1081   1.112   .     S
C1024  C1166   1.526   .     S
C1024  H2342   1.107   .     S
C1025  C2295   1.440   .     S
C1026  H1079   1.109   .     S
C1026  H1078   1.110   .     S
C1026  H1077   1.111   .     S
C1027  C1028   1.546   .     S
C1027  H1090   1.111   .     S
C1027  H2352   1.102   .     S
C1028  H1089   1.109   .     S
C1028  H1088   1.111   .     S
C1028  C1449   1.528   1_565 S
C1029  H1087   1.111   .     S
C1029  C1868   1.528   1_554 S
C1030  O1105   1.223   .     D
C1030  O1106   1.398   .     S
C1031  O1108   1.397   .     S
C1031  O1107   1.223   .     D
C1032  C2293   1.403   .     S
C1033  C1034   1.406   .     A
C1033  C2292   1.403   1_554 S
C1034  H1047   1.072   .     S
C1034  C1035   1.404   .     A
C1035  C2285   1.440   1_554 S
H1039  C2268   1.111   1_554 S
H1040  C2268   1.109   1_554 S
H1043  C2266   1.103   .     S
H1045  O1104   1.014   .     S
H1059  C175    1.112   1_565 S
H1060  C173    1.112   1_565 S
H1082  C2284   1.107   1_554 S
H1085  C189    1.111   1_565 S
H1086  C189    1.110   1_565 S
H1092  C2287   1.102   1_554 S
H1093  O1106   1.014   .     S
H1094  O1108   1.014   .     S
O1098  Zn1117  1.971   .     S
O1098  Zn1120  1.923   .     S
O1098  Zn1119  1.935   .     S
O1098  Zn1118  1.933   .     S
O1099  Zn1118  1.915   .     S
O1100  Zn1120  1.928   .     S
O1101  Zn1119  1.914   .     S
O1102  Zn1117  1.903   .     S
O1109  Zn1117  1.930   .     S
O1110  Zn1120  1.941   .     S
O1111  Zn1118  1.932   .     S
O1112  Zn1119  1.946   .     S
O1113  Zn1120  1.937   .     S
O1114  Zn1117  1.928   .     S
O1115  Zn1118  1.949   .     S
O1116  Zn1119  1.935   .     S
C1121  C1131   1.430   .     S
C1121  O1253   1.255   .     A
C1121  O1251   1.260   .     A
C1122  H1198   1.083   .     S
C1122  C1172   1.406   .     A
C1122  C1123   1.399   .     A
C1123  C1163   1.529   .     S
C1123  C2385   1.420   .     S
C1124  O1252   1.294   .     A
C1124  C1130   1.468   .     S
C1124  O1254   1.274   .     A
C1125  C1126   1.423   .     A
C1125  C1127   1.423   .     A
C1125  C2383   1.420   1_554 S
C1126  C1173   1.426   .     A
C1126  C1129   1.402   .     A
C1127  C1128   1.420   .     A
C1127  C1146   1.524   .     S
C1128  C1140   1.412   .     A
C1128  C1160   1.524   .     S
C1129  C1140   1.389   .     A
C1129  H1176   1.077   .     S
C1130  C851    1.371   1_655 S
C1130  C869    1.499   1_655 S
C1132  C1141   1.422   .     A
C1132  C1170   1.481   .     S
C1132  C1139   1.425   .     A
C1133  C1136   1.462   .     S
C1133  C294    1.365   1_565 S
C1133  C313    1.530   1_565 S
C1134  C1135   1.433   .     S
C1135  O1255   1.264   .     A
C1135  O1249   1.281   .     A
C1136  O1250   1.263   .     A
C1136  O1256   1.273   .     A
C1137  C1140   1.457   .     S
C1137  O1241   1.276   .     A
C1137  O1239   1.274   .     A
C1138  C1139   1.506   .     S
C1138  O1242   1.301   .     A
C1138  O1240   1.289   .     A
C1139  C1143   1.410   .     A
C1141  C1165   1.438   .     A
C1141  C1167   1.533   .     S
C1142  H1237   1.099   .     S
C1142  C1175   1.528   .     S
C1142  H1177   1.111   .     S
C1142  C1144   1.544   .     S
C1143  C1171   1.490   .     S
C1143  C1154   1.417   .     A
C1144  H1236   1.109   .     S
C1144  H1235   1.111   .     S
C1144  C305    1.529   1_565 S
C1145  H1231   1.111   .     S
C1145  H1220   1.111   .     S
C1145  H1209   1.110   .     S
C1146  C1147   1.538   .     S
C1146  H1184   1.111   .     S
C1146  H2443   1.103   1_554 S
C1147  H1182   1.112   .     S
C1147  H1181   1.107   .     S
C1147  C1988   1.528   1_554 S
C1148  H1178   1.111   .     S
C1148  C1567   1.528   1_565 S
C1148  H2439   1.111   .     S
C1148  H2440   1.109   .     S
C1149  O1244   1.399   .     S
C1149  O1243   1.223   .     D
C1150  H1193   1.111   .     S
C1150  H1192   1.112   .     S
C1150  C851    1.536   1_655 S
C1150  C871    1.538   1_655 S
C1151  H1190   1.110   .     S
C1151  H1191   1.112   .     S
C1152  H1186   1.108   .     S
C1152  H1188   1.110   .     S
C1152  H1189   1.110   .     S
C1152  C871    1.526   1_655 S
C1153  C1155   1.535   .     S
C1153  H1201   1.110   .     S
C1154  C1165   1.428   .     A
C1154  C1172   1.418   .     A
C1155  C1156   1.527   .     S
C1155  H1197   1.112   .     S
C1156  H1196   1.111   .     S
C1156  H1195   1.111   .     S
C1156  H1194   1.111   .     S
C1157  H1208   1.112   .     S
C1157  H1207   1.113   .     S
C1157  C294    1.538   1_565 S
C1157  C318    1.538   1_565 S
C1158  H1206   1.111   .     S
C1158  H1205   1.112   .     S
C1159  H1202   1.111   .     S
C1159  H1203   1.111   .     S
C1159  C318    1.528   1_565 S
C1159  H224    1.107   1_565 S
C1160  H1215   1.112   .     S
C1160  H1216   1.106   .     S
C1160  C1161   1.534   .     S
C1161  C1162   1.526   .     S
C1161  H1213   1.112   .     S
C1161  H1214   1.110   .     S
C1162  H1211   1.111   .     S
C1162  H1210   1.111   .     S
C1162  H932    1.110   1_655 S
C1163  C1164   1.536   .     S
C1163  H1224   1.111   .     S
C1163  H1223   1.103   .     S
C1164  H1221   1.112   .     S
C1164  C886    1.526   1_655 S
C1164  H2482   1.107   .     S
C1165  C2435   1.440   .     S
C1166  H1219   1.109   .     S
C1166  H1218   1.110   .     S
C1166  H1217   1.111   .     S
C1167  C1168   1.546   .     S
C1167  H1230   1.111   .     S
C1167  H2492   1.102   .     S
C1168  H1229   1.109   .     S
C1168  H1228   1.111   .     S
C1168  C1589   1.528   1_565 S
C1169  H1227   1.111   .     S
C1169  C2008   1.528   1_554 S
C1170  O1245   1.223   .     D
C1170  O1246   1.398   .     S
C1171  O1248   1.397   .     S
C1171  O1247   1.223   .     D
C1172  C2433   1.403   .     S
C1173  C1174   1.406   .     A
C1173  C2432   1.403   1_554 S
C1174  H1187   1.072   .     S
C1174  C1175   1.404   .     A
C1175  C2425   1.440   1_554 S
H1179  C2408   1.111   1_554 S
H1180  C2408   1.109   1_554 S
H1183  C2406   1.103   .     S
H1185  O1244   1.014   .     S
H1199  C315    1.112   1_565 S
H1200  C313    1.112   1_565 S
H1204  C459    1.107   1_655 S
H1222  C2424   1.107   1_554 S
H1225  C329    1.111   1_565 S
H1226  C329    1.110   1_565 S
H1232  C2427   1.102   1_554 S
H1233  O1246   1.014   .     S
H1234  O1248   1.014   .     S
O1238  Zn1257  1.971   .     S
O1238  Zn1260  1.923   .     S
O1238  Zn1259  1.935   .     S
O1238  Zn1258  1.933   .     S
O1239  Zn1258  1.915   .     S
O1240  Zn1260  1.928   .     S
O1241  Zn1259  1.914   .     S
O1242  Zn1257  1.903   .     S
O1249  Zn1257  1.930   .     S
O1250  Zn1260  1.941   .     S
O1251  Zn1258  1.932   .     S
O1252  Zn1259  1.946   .     S
O1253  Zn1260  1.937   .     S
O1254  Zn1257  1.928   .     S
O1255  Zn1258  1.949   .     S
O1256  Zn1259  1.935   .     S
C1261  C1271   1.430   .     S
C1261  O1393   1.255   .     A
C1261  O1391   1.260   .     A
C1262  H1338   1.083   .     S
C1262  C1312   1.406   .     A
C1262  C1263   1.399   .     A
C1263  C1303   1.529   .     S
C1263  C5      1.420   1_556 S
C1264  O1392   1.294   .     A
C1264  C1270   1.468   .     S
C1264  O1394   1.274   .     A
C1265  C1266   1.423   .     A
C1265  C1267   1.423   .     A
C1266  C1313   1.426   .     A
C1266  C1269   1.402   .     A
C1267  C1268   1.420   .     A
C1267  C1286   1.524   .     S
C1268  C1280   1.412   .     A
C1268  C1300   1.524   .     S
C1269  C1280   1.389   .     A
C1269  H1316   1.077   .     S
C1270  C1411   1.371   .     S
C1270  C1429   1.499   .     S
C1271  C1550   1.371   1_455 S
C1271  C1570   1.536   1_455 S
C1272  C1281   1.422   .     A
C1272  C1310   1.481   .     S
C1272  C1279   1.425   .     A
C1273  C1276   1.462   .     S
C1273  C1694   1.365   .     S
C1273  C1713   1.530   .     S
C1274  C1275   1.433   .     S
C1274  C2113   1.365   1_545 S
C1274  C2137   1.538   1_545 S
C1275  O1395   1.264   .     A
C1275  O1389   1.281   .     A
C1276  O1390   1.263   .     A
C1276  O1396   1.273   .     A
C1277  C1280   1.457   .     S
C1277  O1381   1.276   .     A
C1277  O1379   1.274   .     A
C1278  C1279   1.506   .     S
C1278  O1382   1.301   .     A
C1278  O1380   1.289   .     A
C1279  C1283   1.410   .     A
C1281  C1305   1.438   .     A
C1281  C1307   1.533   .     S
C1282  H1377   1.099   .     S
C1282  C1315   1.528   .     S
C1282  H1317   1.111   .     S
C1282  C1284   1.544   .     S
C1283  C1311   1.490   .     S
C1283  C1294   1.417   .     A
C1284  H1376   1.109   .     S
C1284  H1375   1.111   .     S
C1284  C1705   1.529   .     S
C1285  H1371   1.111   .     S
C1285  H1360   1.111   .     S
C1285  H1349   1.110   .     S
C1285  C2124   1.529   1_545 S
C1286  C1287   1.538   .     S
C1286  H1324   1.111   .     S
C1287  H1322   1.112   .     S
C1287  H1321   1.107   .     S
C1287  C868    1.528   1_545 S
C1288  H1318   1.111   .     S
C1288  C447    1.528   1_556 S
C1288  H59     1.111   1_556 S
C1288  H60     1.109   1_556 S
C1289  O1384   1.399   .     S
C1289  O1383   1.223   .     D
C1289  C1550   1.499   1_455 S
C1290  H1333   1.111   .     S
C1290  H1332   1.112   .     S
C1290  C1411   1.536   .     S
C1290  C1431   1.538   .     S
C1291  H1330   1.110   .     S
C1291  H1331   1.112   .     S
C1291  C1570   1.538   1_455 S
C1291  C1572   1.526   1_455 S
C1292  H1326   1.108   .     S
C1292  H1328   1.110   .     S
C1292  H1329   1.110   .     S
C1292  C1431   1.526   .     S
C1293  C1295   1.535   .     S
C1293  H1341   1.110   .     S
C1293  C2113   1.530   1_545 S
C1293  H2180   1.112   1_545 S
C1294  C1305   1.428   .     A
C1294  C1312   1.418   .     A
C1295  C1296   1.527   .     S
C1295  H1337   1.112   .     S
C1295  H2179   1.112   1_545 S
C1296  H1336   1.111   .     S
C1296  H1335   1.111   .     S
C1296  H1334   1.111   .     S
C1297  H1348   1.112   .     S
C1297  H1347   1.113   .     S
C1297  C1694   1.538   .     S
C1297  C1718   1.538   .     S
C1298  H1346   1.111   .     S
C1298  H1345   1.112   .     S
C1298  C2137   1.538   1_545 S
C1298  C2139   1.528   1_545 S
C1299  H1342   1.111   .     S
C1299  H1343   1.111   .     S
C1299  C1718   1.528   .     S
C1299  H2044   1.107   1_455 S
C1300  H1355   1.112   .     S
C1300  H1356   1.106   .     S
C1300  C1301   1.534   .     S
C1301  C1302   1.526   .     S
C1301  H1353   1.112   .     S
C1301  H1354   1.110   .     S
C1302  H1351   1.111   .     S
C1302  H1350   1.111   .     S
C1302  H1492   1.110   .     S
C1303  C1304   1.536   .     S
C1303  H1364   1.111   .     S
C1303  H1363   1.103   .     S
C1304  H1361   1.112   .     S
C1304  C1446   1.526   .     S
C1304  H102    1.107   1_556 S
C1305  C55     1.440   1_556 S
C1306  H1359   1.109   .     S
C1306  H1358   1.110   .     S
C1306  H1357   1.111   .     S
C1306  C1584   1.526   1_455 S
C1307  C1308   1.546   .     S
C1307  H1370   1.111   .     S
C1307  H112    1.102   1_556 S
C1308  H1369   1.109   .     S
C1308  H1368   1.111   .     S
C1308  C469    1.528   1_556 S
C1309  H1367   1.111   .     S
C1309  C888    1.528   1_545 S
C1309  H2205   1.111   1_545 S
C1309  H2206   1.110   1_545 S
C1310  O1385   1.223   .     D
C1310  O1386   1.398   .     S
C1311  O1388   1.397   .     S
C1311  O1387   1.223   .     D
C1312  C53     1.403   1_556 S
C1313  C1314   1.406   .     A
C1314  H1327   1.072   .     S
C1314  C1315   1.404   .     A
H1323  C26     1.103   1_556 S
H1325  O1384   1.014   .     S
H1339  C1715   1.112   .     S
H1340  C1713   1.112   .     S
H1344  C2279   1.107   1_545 S
H1352  C1582   1.110   1_455 S
H1365  C1729   1.111   .     S
H1366  C1729   1.110   .     S
H1373  O1386   1.014   .     S
H1374  O1388   1.014   .     S
O1378  Zn1397  1.971   .     S
O1378  Zn1400  1.923   .     S
O1378  Zn1399  1.935   .     S
O1378  Zn1398  1.933   .     S
O1379  Zn1398  1.915   .     S
O1380  Zn1400  1.928   .     S
O1381  Zn1399  1.914   .     S
O1382  Zn1397  1.903   .     S
O1389  Zn1397  1.930   .     S
O1390  Zn1400  1.941   .     S
O1391  Zn1398  1.932   .     S
O1392  Zn1399  1.946   .     S
O1393  Zn1400  1.937   .     S
O1394  Zn1397  1.928   .     S
O1395  Zn1398  1.949   .     S
O1396  Zn1399  1.935   .     S
C1401  C1411   1.430   .     S
C1401  O1533   1.255   .     A
C1401  O1531   1.260   .     A
C1402  H1478   1.083   .     S
C1402  C1452   1.406   .     A
C1402  C1403   1.399   .     A
C1403  C1443   1.529   .     S
C1403  C145    1.420   1_556 S
C1404  O1532   1.294   .     A
C1404  C1410   1.468   .     S
C1404  O1534   1.274   .     A
C1405  C1406   1.423   .     A
C1405  C1407   1.423   .     A
C1406  C1453   1.426   .     A
C1406  C1409   1.402   .     A
C1407  C1408   1.420   .     A
C1407  C1426   1.524   .     S
C1408  C1420   1.412   .     A
C1408  C1440   1.524   .     S
C1409  C1420   1.389   .     A
C1409  H1456   1.077   .     S
C1410  C1551   1.371   .     S
C1410  C1569   1.499   .     S
C1412  C1421   1.422   .     A
C1412  C1450   1.481   .     S
C1412  C1419   1.425   .     A
C1413  C1416   1.462   .     S
C1413  C1834   1.365   .     S
C1413  C1853   1.530   .     S
C1414  C1415   1.433   .     S
C1414  C2253   1.365   1_545 S
C1414  C2277   1.538   1_545 S
C1415  O1535   1.264   .     A
C1415  O1529   1.281   .     A
C1416  O1530   1.263   .     A
C1416  O1536   1.273   .     A
C1417  C1420   1.457   .     S
C1417  O1521   1.276   .     A
C1417  O1519   1.274   .     A
C1418  C1419   1.506   .     S
C1418  O1522   1.301   .     A
C1418  O1520   1.289   .     A
C1419  C1423   1.410   .     A
C1421  C1445   1.438   .     A
C1421  C1447   1.533   .     S
C1422  H1517   1.099   .     S
C1422  C1455   1.528   .     S
C1422  H1457   1.111   .     S
C1422  C1424   1.544   .     S
C1423  C1451   1.490   .     S
C1423  C1434   1.417   .     A
C1424  H1516   1.109   .     S
C1424  H1515   1.111   .     S
C1424  C1845   1.529   .     S
C1425  H1511   1.111   .     S
C1425  H1500   1.111   .     S
C1425  H1489   1.110   .     S
C1425  C2264   1.529   1_545 S
C1426  C1427   1.538   .     S
C1426  H1464   1.111   .     S
C1427  H1462   1.112   .     S
C1427  H1461   1.107   .     S
C1427  C1008   1.528   1_545 S
C1428  H1458   1.111   .     S
C1428  C587    1.528   1_556 S
C1428  H199    1.111   1_556 S
C1428  H200    1.109   1_556 S
C1429  O1524   1.399   .     S
C1429  O1523   1.223   .     D
C1430  H1473   1.111   .     S
C1430  H1472   1.112   .     S
C1430  C1551   1.536   .     S
C1430  C1571   1.538   .     S
C1431  H1470   1.110   .     S
C1431  H1471   1.112   .     S
C1432  H1466   1.108   .     S
C1432  H1468   1.110   .     S
C1432  H1469   1.110   .     S
C1432  C1571   1.526   .     S
C1433  C1435   1.535   .     S
C1433  H1481   1.110   .     S
C1433  C2253   1.530   1_545 S
C1433  H2320   1.112   1_545 S
C1434  C1445   1.428   .     A
C1434  C1452   1.418   .     A
C1435  C1436   1.527   .     S
C1435  H1477   1.112   .     S
C1435  H2319   1.112   1_545 S
C1436  H1476   1.111   .     S
C1436  H1475   1.111   .     S
C1436  H1474   1.111   .     S
C1437  H1488   1.112   .     S
C1437  H1487   1.113   .     S
C1437  C1834   1.538   .     S
C1437  C1858   1.538   .     S
C1438  H1486   1.111   .     S
C1438  H1485   1.112   .     S
C1438  C2277   1.538   1_545 S
C1438  C2279   1.528   1_545 S
C1439  H1482   1.111   .     S
C1439  H1483   1.111   .     S
C1439  C1858   1.528   .     S
C1439  H1764   1.107   .     S
C1440  H1495   1.112   .     S
C1440  H1496   1.106   .     S
C1440  C1441   1.534   .     S
C1441  C1442   1.526   .     S
C1441  H1493   1.112   .     S
C1441  H1494   1.110   .     S
C1442  H1491   1.111   .     S
C1442  H1490   1.111   .     S
C1442  H1632   1.110   .     S
C1443  C1444   1.536   .     S
C1443  H1504   1.111   .     S
C1443  H1503   1.103   .     S
C1444  H1501   1.112   .     S
C1444  C1586   1.526   .     S
C1444  H242    1.107   1_556 S
C1445  C195    1.440   1_556 S
C1446  H1499   1.109   .     S
C1446  H1498   1.110   .     S
C1446  H1497   1.111   .     S
C1447  C1448   1.546   .     S
C1447  H1510   1.111   .     S
C1447  H252    1.102   1_556 S
C1448  H1509   1.109   .     S
C1448  H1508   1.111   .     S
C1448  C609    1.528   1_556 S
C1449  H1507   1.111   .     S
C1449  C1028   1.528   1_545 S
C1449  H2345   1.111   1_545 S
C1449  H2346   1.110   1_545 S
C1450  O1525   1.223   .     D
C1450  O1526   1.398   .     S
C1451  O1528   1.397   .     S
C1451  O1527   1.223   .     D
C1452  C193    1.403   1_556 S
C1453  C1454   1.406   .     A
C1454  H1467   1.072   .     S
C1454  C1455   1.404   .     A
H1463  C166    1.103   1_556 S
H1465  O1524   1.014   .     S
H1479  C1855   1.112   .     S
H1480  C1853   1.112   .     S
H1484  C2419   1.107   1_545 S
H1505  C1869   1.111   .     S
H1506  C1869   1.110   .     S
H1513  O1526   1.014   .     S
H1514  O1528   1.014   .     S
O1518  Zn1537  1.971   .     S
O1518  Zn1540  1.923   .     S
O1518  Zn1539  1.935   .     S
O1518  Zn1538  1.933   .     S
O1519  Zn1538  1.915   .     S
O1520  Zn1540  1.928   .     S
O1521  Zn1539  1.914   .     S
O1522  Zn1537  1.903   .     S
O1529  Zn1537  1.930   .     S
O1530  Zn1540  1.941   .     S
O1531  Zn1538  1.932   .     S
O1532  Zn1539  1.946   .     S
O1533  Zn1540  1.937   .     S
O1534  Zn1537  1.928   .     S
O1535  Zn1538  1.949   .     S
O1536  Zn1539  1.935   .     S
C1541  C1551   1.430   .     S
C1541  O1673   1.255   .     A
C1541  O1671   1.260   .     A
C1542  H1618   1.083   .     S
C1542  C1592   1.406   .     A
C1542  C1543   1.399   .     A
C1543  C1583   1.529   .     S
C1543  C285    1.420   1_556 S
C1544  O1672   1.294   .     A
C1544  C1550   1.468   .     S
C1544  O1674   1.274   .     A
C1545  C1546   1.423   .     A
C1545  C1547   1.423   .     A
C1546  C1593   1.426   .     A
C1546  C1549   1.402   .     A
C1547  C1548   1.420   .     A
C1547  C1566   1.524   .     S
C1548  C1560   1.412   .     A
C1548  C1580   1.524   .     S
C1549  C1560   1.389   .     A
C1549  H1596   1.077   .     S
C1550  C1271   1.371   1_655 S
C1550  C1289   1.499   1_655 S
C1552  C1561   1.422   .     A
C1552  C1590   1.481   .     S
C1552  C1559   1.425   .     A
C1553  C1556   1.462   .     S
C1553  C1974   1.365   .     S
C1553  C1993   1.530   .     S
C1554  C1555   1.433   .     S
C1554  C2393   1.365   1_545 S
C1554  C2417   1.538   1_545 S
C1555  O1675   1.264   .     A
C1555  O1669   1.281   .     A
C1556  O1670   1.263   .     A
C1556  O1676   1.273   .     A
C1557  C1560   1.457   .     S
C1557  O1661   1.276   .     A
C1557  O1659   1.274   .     A
C1558  C1559   1.506   .     S
C1558  O1662   1.301   .     A
C1558  O1660   1.289   .     A
C1559  C1563   1.410   .     A
C1561  C1585   1.438   .     A
C1561  C1587   1.533   .     S
C1562  H1657   1.099   .     S
C1562  C1595   1.528   .     S
C1562  H1597   1.111   .     S
C1562  C1564   1.544   .     S
C1563  C1591   1.490   .     S
C1563  C1574   1.417   .     A
C1564  H1656   1.109   .     S
C1564  H1655   1.111   .     S
C1564  C1985   1.529   .     S
C1565  H1651   1.111   .     S
C1565  H1640   1.111   .     S
C1565  H1629   1.110   .     S
C1565  C2404   1.529   1_545 S
C1566  C1567   1.538   .     S
C1566  H1604   1.111   .     S
C1567  H1602   1.112   .     S
C1567  H1601   1.107   .     S
C1567  C1148   1.528   1_545 S
C1568  H1598   1.111   .     S
C1568  C727    1.528   1_556 S
C1568  H339    1.111   1_556 S
C1568  H340    1.109   1_556 S
C1569  O1664   1.399   .     S
C1569  O1663   1.223   .     D
C1570  H1613   1.111   .     S
C1570  H1612   1.112   .     S
C1570  C1271   1.536   1_655 S
C1570  C1291   1.538   1_655 S
C1571  H1610   1.110   .     S
C1571  H1611   1.112   .     S
C1572  H1606   1.108   .     S
C1572  H1608   1.110   .     S
C1572  H1609   1.110   .     S
C1572  C1291   1.526   1_655 S
C1573  C1575   1.535   .     S
C1573  H1621   1.110   .     S
C1573  C2393   1.530   1_545 S
C1573  H2460   1.112   1_545 S
C1574  C1585   1.428   .     A
C1574  C1592   1.418   .     A
C1575  C1576   1.527   .     S
C1575  H1617   1.112   .     S
C1575  H2459   1.112   1_545 S
C1576  H1616   1.111   .     S
C1576  H1615   1.111   .     S
C1576  H1614   1.111   .     S
C1577  H1628   1.112   .     S
C1577  H1627   1.113   .     S
C1577  C1974   1.538   .     S
C1577  C1998   1.538   .     S
C1578  H1626   1.111   .     S
C1578  H1625   1.112   .     S
C1578  C2417   1.538   1_545 S
C1578  C2419   1.528   1_545 S
C1579  H1622   1.111   .     S
C1579  H1623   1.111   .     S
C1579  C1998   1.528   .     S
C1579  H1904   1.107   .     S
C1580  H1635   1.112   .     S
C1580  H1636   1.106   .     S
C1580  C1581   1.534   .     S
C1581  C1582   1.526   .     S
C1581  H1633   1.112   .     S
C1581  H1634   1.110   .     S
C1582  H1631   1.111   .     S
C1582  H1630   1.111   .     S
C1582  H1352   1.110   1_655 S
C1583  C1584   1.536   .     S
C1583  H1644   1.111   .     S
C1583  H1643   1.103   .     S
C1584  H1641   1.112   .     S
C1584  C1306   1.526   1_655 S
C1584  H382    1.107   1_556 S
C1585  C335    1.440   1_556 S
C1586  H1639   1.109   .     S
C1586  H1638   1.110   .     S
C1586  H1637   1.111   .     S
C1587  C1588   1.546   .     S
C1587  H1650   1.111   .     S
C1587  H392    1.102   1_556 S
C1588  H1649   1.109   .     S
C1588  H1648   1.111   .     S
C1588  C749    1.528   1_556 S
C1589  H1647   1.111   .     S
C1589  C1168   1.528   1_545 S
C1589  H2485   1.111   1_545 S
C1589  H2486   1.110   1_545 S
C1590  O1665   1.223   .     D
C1590  O1666   1.398   .     S
C1591  O1668   1.397   .     S
C1591  O1667   1.223   .     D
C1592  C333    1.403   1_556 S
C1593  C1594   1.406   .     A
C1594  H1607   1.072   .     S
C1594  C1595   1.404   .     A
H1603  C306    1.103   1_556 S
H1605  O1664   1.014   .     S
H1619  C1995   1.112   .     S
H1620  C1993   1.112   .     S
H1624  C2139   1.107   1_645 S
H1645  C2009   1.111   .     S
H1646  C2009   1.110   .     S
H1653  O1666   1.014   .     S
H1654  O1668   1.014   .     S
O1658  Zn1677  1.971   .     S
O1658  Zn1680  1.923   .     S
O1658  Zn1679  1.935   .     S
O1658  Zn1678  1.933   .     S
O1659  Zn1678  1.915   .     S
O1660  Zn1680  1.928   .     S
O1661  Zn1679  1.914   .     S
O1662  Zn1677  1.903   .     S
O1669  Zn1677  1.930   .     S
O1670  Zn1680  1.941   .     S
O1671  Zn1678  1.932   .     S
O1672  Zn1679  1.946   .     S
O1673  Zn1680  1.937   .     S
O1674  Zn1677  1.928   .     S
O1675  Zn1678  1.949   .     S
O1676  Zn1679  1.935   .     S
C1681  C1691   1.430   .     S
C1681  O1813   1.255   .     A
C1681  O1811   1.260   .     A
C1682  H1758   1.083   .     S
C1682  C1732   1.406   .     A
C1682  C1683   1.399   .     A
C1683  C1723   1.529   .     S
C1683  C425    1.420   1_556 S
C1684  O1812   1.294   .     A
C1684  C1690   1.468   .     S
C1684  O1814   1.274   .     A
C1685  C1686   1.423   .     A
C1685  C1687   1.423   .     A
C1686  C1733   1.426   .     A
C1686  C1689   1.402   .     A
C1687  C1688   1.420   .     A
C1687  C1706   1.524   .     S
C1688  C1700   1.412   .     A
C1688  C1720   1.524   .     S
C1689  C1700   1.389   .     A
C1689  H1736   1.077   .     S
C1690  C1831   1.371   .     S
C1690  C1849   1.499   .     S
C1691  C1970   1.371   1_455 S
C1691  C1990   1.536   1_455 S
C1692  C1701   1.422   .     A
C1692  C1730   1.481   .     S
C1692  C1699   1.425   .     A
C1693  C1696   1.462   .     S
C1693  C2114   1.365   .     S
C1693  C2133   1.530   .     S
C1694  C1695   1.433   .     S
C1695  O1815   1.264   .     A
C1695  O1809   1.281   .     A
C1696  O1810   1.263   .     A
C1696  O1816   1.273   .     A
C1697  C1700   1.457   .     S
C1697  O1801   1.276   .     A
C1697  O1799   1.274   .     A
C1698  C1699   1.506   .     S
C1698  O1802   1.301   .     A
C1698  O1800   1.289   .     A
C1699  C1703   1.410   .     A
C1701  C1725   1.438   .     A
C1701  C1727   1.533   .     S
C1702  H1797   1.099   .     S
C1702  C1735   1.528   .     S
C1702  H1737   1.111   .     S
C1702  C1704   1.544   .     S
C1703  C1731   1.490   .     S
C1703  C1714   1.417   .     A
C1704  H1796   1.109   .     S
C1704  H1795   1.111   .     S
C1704  C2125   1.529   .     S
C1705  H1791   1.111   .     S
C1705  H1780   1.111   .     S
C1705  H1769   1.110   .     S
C1706  C1707   1.538   .     S
C1706  H1744   1.111   .     S
C1707  H1742   1.112   .     S
C1707  H1741   1.107   .     S
C1708  H1738   1.111   .     S
C1708  C867    1.528   1_556 S
C1708  H479    1.111   1_556 S
C1708  H480    1.109   1_556 S
C1709  O1804   1.399   .     S
C1709  O1803   1.223   .     D
C1709  C1970   1.499   1_455 S
C1710  H1753   1.111   .     S
C1710  H1752   1.112   .     S
C1710  C1831   1.536   .     S
C1710  C1851   1.538   .     S
C1711  H1750   1.110   .     S
C1711  H1751   1.112   .     S
C1711  C1990   1.538   1_455 S
C1711  C1992   1.526   1_455 S
C1712  H1746   1.108   .     S
C1712  H1748   1.110   .     S
C1712  H1749   1.110   .     S
C1712  C1851   1.526   .     S
C1713  C1715   1.535   .     S
C1713  H1761   1.110   .     S
C1714  C1725   1.428   .     A
C1714  C1732   1.418   .     A
C1715  C1716   1.527   .     S
C1715  H1757   1.112   .     S
C1716  H1756   1.111   .     S
C1716  H1755   1.111   .     S
C1716  H1754   1.111   .     S
C1717  H1768   1.112   .     S
C1717  H1767   1.113   .     S
C1717  C2114   1.538   .     S
C1717  C2138   1.538   .     S
C1718  H1766   1.111   .     S
C1718  H1765   1.112   .     S
C1719  H1762   1.111   .     S
C1719  H1763   1.111   .     S
C1719  C2138   1.528   .     S
C1719  H2464   1.107   1_455 S
C1720  H1775   1.112   .     S
C1720  H1776   1.106   .     S
C1720  C1721   1.534   .     S
C1721  C1722   1.526   .     S
C1721  H1773   1.112   .     S
C1721  H1774   1.110   .     S
C1722  H1771   1.111   .     S
C1722  H1770   1.111   .     S
C1722  H1912   1.110   .     S
C1723  C1724   1.536   .     S
C1723  H1784   1.111   .     S
C1723  H1783   1.103   .     S
C1724  H1781   1.112   .     S
C1724  C1866   1.526   .     S
C1724  H522    1.107   1_556 S
C1725  C475    1.440   1_556 S
C1726  H1779   1.109   .     S
C1726  H1778   1.110   .     S
C1726  H1777   1.111   .     S
C1726  C2004   1.526   1_455 S
C1727  C1728   1.546   .     S
C1727  H1790   1.111   .     S
C1727  H532    1.102   1_556 S
C1728  H1789   1.109   .     S
C1728  H1788   1.111   .     S
C1728  C889    1.528   1_556 S
C1729  H1787   1.111   .     S
C1730  O1805   1.223   .     D
C1730  O1806   1.398   .     S
C1731  O1808   1.397   .     S
C1731  O1807   1.223   .     D
C1732  C473    1.403   1_556 S
C1733  C1734   1.406   .     A
C1734  H1747   1.072   .     S
C1734  C1735   1.404   .     A
H1743  C446    1.103   1_556 S
H1745  O1804   1.014   .     S
H1759  C2135   1.112   .     S
H1760  C2133   1.112   .     S
H1772  C2002   1.110   1_455 S
H1785  C2149   1.111   .     S
H1786  C2149   1.110   .     S
H1793  O1806   1.014   .     S
H1794  O1808   1.014   .     S
O1798  Zn1817  1.971   .     S
O1798  Zn1820  1.923   .     S
O1798  Zn1819  1.935   .     S
O1798  Zn1818  1.933   .     S
O1799  Zn1818  1.915   .     S
O1800  Zn1820  1.928   .     S
O1801  Zn1819  1.914   .     S
O1802  Zn1817  1.903   .     S
O1809  Zn1817  1.930   .     S
O1810  Zn1820  1.941   .     S
O1811  Zn1818  1.932   .     S
O1812  Zn1819  1.946   .     S
O1813  Zn1820  1.937   .     S
O1814  Zn1817  1.928   .     S
O1815  Zn1818  1.949   .     S
O1816  Zn1819  1.935   .     S
C1821  C1831   1.430   .     S
C1821  O1953   1.255   .     A
C1821  O1951   1.260   .     A
C1822  H1898   1.083   .     S
C1822  C1872   1.406   .     A
C1822  C1823   1.399   .     A
C1823  C1863   1.529   .     S
C1823  C565    1.420   1_556 S
C1824  O1952   1.294   .     A
C1824  C1830   1.468   .     S
C1824  O1954   1.274   .     A
C1825  C1826   1.423   .     A
C1825  C1827   1.423   .     A
C1826  C1873   1.426   .     A
C1826  C1829   1.402   .     A
C1827  C1828   1.420   .     A
C1827  C1846   1.524   .     S
C1828  C1840   1.412   .     A
C1828  C1860   1.524   .     S
C1829  C1840   1.389   .     A
C1829  H1876   1.077   .     S
C1830  C1971   1.371   .     S
C1830  C1989   1.499   .     S
C1832  C1841   1.422   .     A
C1832  C1870   1.481   .     S
C1832  C1839   1.425   .     A
C1833  C1836   1.462   .     S
C1833  C2254   1.365   .     S
C1833  C2273   1.530   .     S
C1834  C1835   1.433   .     S
C1835  O1955   1.264   .     A
C1835  O1949   1.281   .     A
C1836  O1950   1.263   .     A
C1836  O1956   1.273   .     A
C1837  C1840   1.457   .     S
C1837  O1941   1.276   .     A
C1837  O1939   1.274   .     A
C1838  C1839   1.506   .     S
C1838  O1942   1.301   .     A
C1838  O1940   1.289   .     A
C1839  C1843   1.410   .     A
C1841  C1865   1.438   .     A
C1841  C1867   1.533   .     S
C1842  H1937   1.099   .     S
C1842  C1875   1.528   .     S
C1842  H1877   1.111   .     S
C1842  C1844   1.544   .     S
C1843  C1871   1.490   .     S
C1843  C1854   1.417   .     A
C1844  H1936   1.109   .     S
C1844  H1935   1.111   .     S
C1844  C2265   1.529   .     S
C1845  H1931   1.111   .     S
C1845  H1920   1.111   .     S
C1845  H1909   1.110   .     S
C1846  C1847   1.538   .     S
C1846  H1884   1.111   .     S
C1847  H1882   1.112   .     S
C1847  H1881   1.107   .     S
C1848  H1878   1.111   .     S
C1848  C1007   1.528   1_556 S
C1848  H619    1.111   1_556 S
C1848  H620    1.109   1_556 S
C1849  O1944   1.399   .     S
C1849  O1943   1.223   .     D
C1850  H1893   1.111   .     S
C1850  H1892   1.112   .     S
C1850  C1971   1.536   .     S
C1850  C1991   1.538   .     S
C1851  H1890   1.110   .     S
C1851  H1891   1.112   .     S
C1852  H1886   1.108   .     S
C1852  H1888   1.110   .     S
C1852  H1889   1.110   .     S
C1852  C1991   1.526   .     S
C1853  C1855   1.535   .     S
C1853  H1901   1.110   .     S
C1854  C1865   1.428   .     A
C1854  C1872   1.418   .     A
C1855  C1856   1.527   .     S
C1855  H1897   1.112   .     S
C1856  H1896   1.111   .     S
C1856  H1895   1.111   .     S
C1856  H1894   1.111   .     S
C1857  H1908   1.112   .     S
C1857  H1907   1.113   .     S
C1857  C2254   1.538   .     S
C1857  C2278   1.538   .     S
C1858  H1906   1.111   .     S
C1858  H1905   1.112   .     S
C1859  H1902   1.111   .     S
C1859  H1903   1.111   .     S
C1859  C2278   1.528   .     S
C1859  H2184   1.107   .     S
C1860  H1915   1.112   .     S
C1860  H1916   1.106   .     S
C1860  C1861   1.534   .     S
C1861  C1862   1.526   .     S
C1861  H1913   1.112   .     S
C1861  H1914   1.110   .     S
C1862  H1911   1.111   .     S
C1862  H1910   1.111   .     S
C1862  H2052   1.110   .     S
C1863  C1864   1.536   .     S
C1863  H1924   1.111   .     S
C1863  H1923   1.103   .     S
C1864  H1921   1.112   .     S
C1864  C2006   1.526   .     S
C1864  H662    1.107   1_556 S
C1865  C615    1.440   1_556 S
C1866  H1919   1.109   .     S
C1866  H1918   1.110   .     S
C1866  H1917   1.111   .     S
C1867  C1868   1.546   .     S
C1867  H1930   1.111   .     S
C1867  H672    1.102   1_556 S
C1868  H1929   1.109   .     S
C1868  H1928   1.111   .     S
C1868  C1029   1.528   1_556 S
C1869  H1927   1.111   .     S
C1870  O1945   1.223   .     D
C1870  O1946   1.398   .     S
C1871  O1948   1.397   .     S
C1871  O1947   1.223   .     D
C1872  C613    1.403   1_556 S
C1873  C1874   1.406   .     A
C1874  H1887   1.072   .     S
C1874  C1875   1.404   .     A
H1883  C586    1.103   1_556 S
H1885  O1944   1.014   .     S
H1899  C2275   1.112   .     S
H1900  C2273   1.112   .     S
H1925  C2289   1.111   .     S
H1926  C2289   1.110   .     S
H1933  O1946   1.014   .     S
H1934  O1948   1.014   .     S
O1938  Zn1957  1.971   .     S
O1938  Zn1960  1.923   .     S
O1938  Zn1959  1.935   .     S
O1938  Zn1958  1.933   .     S
O1939  Zn1958  1.915   .     S
O1940  Zn1960  1.928   .     S
O1941  Zn1959  1.914   .     S
O1942  Zn1957  1.903   .     S
O1949  Zn1957  1.930   .     S
O1950  Zn1960  1.941   .     S
O1951  Zn1958  1.932   .     S
O1952  Zn1959  1.946   .     S
O1953  Zn1960  1.937   .     S
O1954  Zn1957  1.928   .     S
O1955  Zn1958  1.949   .     S
O1956  Zn1959  1.935   .     S
C1961  C1971   1.430   .     S
C1961  O2093   1.255   .     A
C1961  O2091   1.260   .     A
C1962  H2038   1.083   .     S
C1962  C2012   1.406   .     A
C1962  C1963   1.399   .     A
C1963  C2003   1.529   .     S
C1963  C705    1.420   1_556 S
C1964  O2092   1.294   .     A
C1964  C1970   1.468   .     S
C1964  O2094   1.274   .     A
C1965  C1966   1.423   .     A
C1965  C1967   1.423   .     A
C1966  C2013   1.426   .     A
C1966  C1969   1.402   .     A
C1967  C1968   1.420   .     A
C1967  C1986   1.524   .     S
C1968  C1980   1.412   .     A
C1968  C2000   1.524   .     S
C1969  C1980   1.389   .     A
C1969  H2016   1.077   .     S
C1970  C1691   1.371   1_655 S
C1970  C1709   1.499   1_655 S
C1972  C1981   1.422   .     A
C1972  C2010   1.481   .     S
C1972  C1979   1.425   .     A
C1973  C1976   1.462   .     S
C1973  C2394   1.365   .     S
C1973  C2413   1.530   .     S
C1974  C1975   1.433   .     S
C1975  O2095   1.264   .     A
C1975  O2089   1.281   .     A
C1976  O2090   1.263   .     A
C1976  O2096   1.273   .     A
C1977  C1980   1.457   .     S
C1977  O2081   1.276   .     A
C1977  O2079   1.274   .     A
C1978  C1979   1.506   .     S
C1978  O2082   1.301   .     A
C1978  O2080   1.289   .     A
C1979  C1983   1.410   .     A
C1981  C2005   1.438   .     A
C1981  C2007   1.533   .     S
C1982  H2077   1.099   .     S
C1982  C2015   1.528   .     S
C1982  H2017   1.111   .     S
C1982  C1984   1.544   .     S
C1983  C2011   1.490   .     S
C1983  C1994   1.417   .     A
C1984  H2076   1.109   .     S
C1984  H2075   1.111   .     S
C1984  C2405   1.529   .     S
C1985  H2071   1.111   .     S
C1985  H2060   1.111   .     S
C1985  H2049   1.110   .     S
C1986  C1987   1.538   .     S
C1986  H2024   1.111   .     S
C1987  H2022   1.112   .     S
C1987  H2021   1.107   .     S
C1988  H2018   1.111   .     S
C1988  C1147   1.528   1_556 S
C1988  H759    1.111   1_556 S
C1988  H760    1.109   1_556 S
C1989  O2084   1.399   .     S
C1989  O2083   1.223   .     D
C1990  H2033   1.111   .     S
C1990  H2032   1.112   .     S
C1990  C1691   1.536   1_655 S
C1990  C1711   1.538   1_655 S
C1991  H2030   1.110   .     S
C1991  H2031   1.112   .     S
C1992  H2026   1.108   .     S
C1992  H2028   1.110   .     S
C1992  H2029   1.110   .     S
C1992  C1711   1.526   1_655 S
C1993  C1995   1.535   .     S
C1993  H2041   1.110   .     S
C1994  C2005   1.428   .     A
C1994  C2012   1.418   .     A
C1995  C1996   1.527   .     S
C1995  H2037   1.112   .     S
C1996  H2036   1.111   .     S
C1996  H2035   1.111   .     S
C1996  H2034   1.111   .     S
C1997  H2048   1.112   .     S
C1997  H2047   1.113   .     S
C1997  C2394   1.538   .     S
C1997  C2418   1.538   .     S
C1998  H2046   1.111   .     S
C1998  H2045   1.112   .     S
C1999  H2042   1.111   .     S
C1999  H2043   1.111   .     S
C1999  C2418   1.528   .     S
C1999  H2324   1.107   .     S
C2000  H2055   1.112   .     S
C2000  H2056   1.106   .     S
C2000  C2001   1.534   .     S
C2001  C2002   1.526   .     S
C2001  H2053   1.112   .     S
C2001  H2054   1.110   .     S
C2002  H2051   1.111   .     S
C2002  H2050   1.111   .     S
C2002  H1772   1.110   1_655 S
C2003  C2004   1.536   .     S
C2003  H2064   1.111   .     S
C2003  H2063   1.103   .     S
C2004  H2061   1.112   .     S
C2004  C1726   1.526   1_655 S
C2004  H802    1.107   1_556 S
C2005  C755    1.440   1_556 S
C2006  H2059   1.109   .     S
C2006  H2058   1.110   .     S
C2006  H2057   1.111   .     S
C2007  C2008   1.546   .     S
C2007  H2070   1.111   .     S
C2007  H812    1.102   1_556 S
C2008  H2069   1.109   .     S
C2008  H2068   1.111   .     S
C2008  C1169   1.528   1_556 S
C2009  H2067   1.111   .     S
C2010  O2085   1.223   .     D
C2010  O2086   1.398   .     S
C2011  O2088   1.397   .     S
C2011  O2087   1.223   .     D
C2012  C753    1.403   1_556 S
C2013  C2014   1.406   .     A
C2014  H2027   1.072   .     S
C2014  C2015   1.404   .     A
H2023  C726    1.103   1_556 S
H2025  O2084   1.014   .     S
H2039  C2415   1.112   .     S
H2040  C2413   1.112   .     S
H2044  C1299   1.107   1_655 S
H2065  C2429   1.111   .     S
H2066  C2429   1.110   .     S
H2073  O2086   1.014   .     S
H2074  O2088   1.014   .     S
O2078  Zn2097  1.971   .     S
O2078  Zn2100  1.923   .     S
O2078  Zn2099  1.935   .     S
O2078  Zn2098  1.933   .     S
O2079  Zn2098  1.915   .     S
O2080  Zn2100  1.928   .     S
O2081  Zn2099  1.914   .     S
O2082  Zn2097  1.903   .     S
O2089  Zn2097  1.930   .     S
O2090  Zn2100  1.941   .     S
O2091  Zn2098  1.932   .     S
O2092  Zn2099  1.946   .     S
O2093  Zn2100  1.937   .     S
O2094  Zn2097  1.928   .     S
O2095  Zn2098  1.949   .     S
O2096  Zn2099  1.935   .     S
C2101  C2111   1.430   .     S
C2101  O2233   1.255   .     A
C2101  O2231   1.260   .     A
C2102  H2178   1.083   .     S
C2102  C2152   1.406   .     A
C2102  C2103   1.399   .     A
C2103  C2143   1.529   .     S
C2103  C845    1.420   1_556 S
C2104  O2232   1.294   .     A
C2104  C2110   1.468   .     S
C2104  O2234   1.274   .     A
C2105  C2106   1.423   .     A
C2105  C2107   1.423   .     A
C2106  C2153   1.426   .     A
C2106  C2109   1.402   .     A
C2107  C2108   1.420   .     A
C2107  C2126   1.524   .     S
C2108  C2120   1.412   .     A
C2108  C2140   1.524   .     S
C2109  C2120   1.389   .     A
C2109  H2156   1.077   .     S
C2110  C2251   1.371   .     S
C2110  C2269   1.499   .     S
C2111  C2390   1.371   1_455 S
C2111  C2410   1.536   1_455 S
C2112  C2121   1.422   .     A
C2112  C2150   1.481   .     S
C2112  C2119   1.425   .     A
C2113  C2116   1.462   .     S
C2113  C1274   1.365   1_565 S
C2113  C1293   1.530   1_565 S
C2114  C2115   1.433   .     S
C2115  O2235   1.264   .     A
C2115  O2229   1.281   .     A
C2116  O2230   1.263   .     A
C2116  O2236   1.273   .     A
C2117  C2120   1.457   .     S
C2117  O2221   1.276   .     A
C2117  O2219   1.274   .     A
C2118  C2119   1.506   .     S
C2118  O2222   1.301   .     A
C2118  O2220   1.289   .     A
C2119  C2123   1.410   .     A
C2121  C2145   1.438   .     A
C2121  C2147   1.533   .     S
C2122  H2217   1.099   .     S
C2122  C2155   1.528   .     S
C2122  H2157   1.111   .     S
C2122  C2124   1.544   .     S
C2123  C2151   1.490   .     S
C2123  C2134   1.417   .     A
C2124  H2216   1.109   .     S
C2124  H2215   1.111   .     S
C2124  C1285   1.529   1_565 S
C2125  H2211   1.111   .     S
C2125  H2200   1.111   .     S
C2125  H2189   1.110   .     S
C2126  C2127   1.538   .     S
C2126  H2164   1.111   .     S
C2127  H2162   1.112   .     S
C2127  H2161   1.107   .     S
C2128  H2158   1.111   .     S
C2128  C27     1.528   1_566 S
C2128  H899    1.111   1_556 S
C2128  H900    1.109   1_556 S
C2129  O2224   1.399   .     S
C2129  O2223   1.223   .     D
C2129  C2390   1.499   1_455 S
C2130  H2173   1.111   .     S
C2130  H2172   1.112   .     S
C2130  C2251   1.536   .     S
C2130  C2271   1.538   .     S
C2131  H2170   1.110   .     S
C2131  H2171   1.112   .     S
C2131  C2410   1.538   1_455 S
C2131  C2412   1.526   1_455 S
C2132  H2166   1.108   .     S
C2132  H2168   1.110   .     S
C2132  H2169   1.110   .     S
C2132  C2271   1.526   .     S
C2133  C2135   1.535   .     S
C2133  H2181   1.110   .     S
C2134  C2145   1.428   .     A
C2134  C2152   1.418   .     A
C2135  C2136   1.527   .     S
C2135  H2177   1.112   .     S
C2136  H2176   1.111   .     S
C2136  H2175   1.111   .     S
C2136  H2174   1.111   .     S
C2137  H2188   1.112   .     S
C2137  H2187   1.113   .     S
C2137  C1274   1.538   1_565 S
C2137  C1298   1.538   1_565 S
C2138  H2186   1.111   .     S
C2138  H2185   1.112   .     S
C2139  H2182   1.111   .     S
C2139  H2183   1.111   .     S
C2139  C1298   1.528   1_565 S
C2139  H1624   1.107   1_465 S
C2140  H2195   1.112   .     S
C2140  H2196   1.106   .     S
C2140  C2141   1.534   .     S
C2141  C2142   1.526   .     S
C2141  H2193   1.112   .     S
C2141  H2194   1.110   .     S
C2142  H2191   1.111   .     S
C2142  H2190   1.111   .     S
C2142  H2332   1.110   .     S
C2143  C2144   1.536   .     S
C2143  H2204   1.111   .     S
C2143  H2203   1.103   .     S
C2144  H2201   1.112   .     S
C2144  C2286   1.526   .     S
C2144  H942    1.107   1_556 S
C2145  C895    1.440   1_556 S
C2146  H2199   1.109   .     S
C2146  H2198   1.110   .     S
C2146  H2197   1.111   .     S
C2146  C2424   1.526   1_455 S
C2147  C2148   1.546   .     S
C2147  H2210   1.111   .     S
C2147  H952    1.102   1_556 S
C2148  H2209   1.109   .     S
C2148  H2208   1.111   .     S
C2148  C49     1.528   1_566 S
C2149  H2207   1.111   .     S
C2150  O2225   1.223   .     D
C2150  O2226   1.398   .     S
C2151  O2228   1.397   .     S
C2151  O2227   1.223   .     D
C2152  C893    1.403   1_556 S
C2153  C2154   1.406   .     A
C2154  H2167   1.072   .     S
C2154  C2155   1.404   .     A
H2163  C866    1.103   1_556 S
H2165  O2224   1.014   .     S
H2179  C1295   1.112   1_565 S
H2180  C1293   1.112   1_565 S
H2192  C2422   1.110   1_455 S
H2205  C1309   1.111   1_565 S
H2206  C1309   1.110   1_565 S
H2213  O2226   1.014   .     S
H2214  O2228   1.014   .     S
O2218  Zn2237  1.971   .     S
O2218  Zn2240  1.923   .     S
O2218  Zn2239  1.935   .     S
O2218  Zn2238  1.933   .     S
O2219  Zn2238  1.915   .     S
O2220  Zn2240  1.928   .     S
O2221  Zn2239  1.914   .     S
O2222  Zn2237  1.903   .     S
O2229  Zn2237  1.930   .     S
O2230  Zn2240  1.941   .     S
O2231  Zn2238  1.932   .     S
O2232  Zn2239  1.946   .     S
O2233  Zn2240  1.937   .     S
O2234  Zn2237  1.928   .     S
O2235  Zn2238  1.949   .     S
O2236  Zn2239  1.935   .     S
C2241  C2251   1.430   .     S
C2241  O2373   1.255   .     A
C2241  O2371   1.260   .     A
C2242  H2318   1.083   .     S
C2242  C2292   1.406   .     A
C2242  C2243   1.399   .     A
C2243  C2283   1.529   .     S
C2243  C985    1.420   1_556 S
C2244  O2372   1.294   .     A
C2244  C2250   1.468   .     S
C2244  O2374   1.274   .     A
C2245  C2246   1.423   .     A
C2245  C2247   1.423   .     A
C2246  C2293   1.426   .     A
C2246  C2249   1.402   .     A
C2247  C2248   1.420   .     A
C2247  C2266   1.524   .     S
C2248  C2260   1.412   .     A
C2248  C2280   1.524   .     S
C2249  C2260   1.389   .     A
C2249  H2296   1.077   .     S
C2250  C2391   1.371   .     S
C2250  C2409   1.499   .     S
C2252  C2261   1.422   .     A
C2252  C2290   1.481   .     S
C2252  C2259   1.425   .     A
C2253  C2256   1.462   .     S
C2253  C1414   1.365   1_565 S
C2253  C1433   1.530   1_565 S
C2254  C2255   1.433   .     S
C2255  O2375   1.264   .     A
C2255  O2369   1.281   .     A
C2256  O2370   1.263   .     A
C2256  O2376   1.273   .     A
C2257  C2260   1.457   .     S
C2257  O2361   1.276   .     A
C2257  O2359   1.274   .     A
C2258  C2259   1.506   .     S
C2258  O2362   1.301   .     A
C2258  O2360   1.289   .     A
C2259  C2263   1.410   .     A
C2261  C2285   1.438   .     A
C2261  C2287   1.533   .     S
C2262  H2357   1.099   .     S
C2262  C2295   1.528   .     S
C2262  H2297   1.111   .     S
C2262  C2264   1.544   .     S
C2263  C2291   1.490   .     S
C2263  C2274   1.417   .     A
C2264  H2356   1.109   .     S
C2264  H2355   1.111   .     S
C2264  C1425   1.529   1_565 S
C2265  H2351   1.111   .     S
C2265  H2340   1.111   .     S
C2265  H2329   1.110   .     S
C2266  C2267   1.538   .     S
C2266  H2304   1.111   .     S
C2267  H2302   1.112   .     S
C2267  H2301   1.107   .     S
C2268  H2298   1.111   .     S
C2268  C167    1.528   1_566 S
C2268  H1039   1.111   1_556 S
C2268  H1040   1.109   1_556 S
C2269  O2364   1.399   .     S
C2269  O2363   1.223   .     D
C2270  H2313   1.111   .     S
C2270  H2312   1.112   .     S
C2270  C2391   1.536   .     S
C2270  C2411   1.538   .     S
C2271  H2310   1.110   .     S
C2271  H2311   1.112   .     S
C2272  H2306   1.108   .     S
C2272  H2308   1.110   .     S
C2272  H2309   1.110   .     S
C2272  C2411   1.526   .     S
C2273  C2275   1.535   .     S
C2273  H2321   1.110   .     S
C2274  C2285   1.428   .     A
C2274  C2292   1.418   .     A
C2275  C2276   1.527   .     S
C2275  H2317   1.112   .     S
C2276  H2316   1.111   .     S
C2276  H2315   1.111   .     S
C2276  H2314   1.111   .     S
C2277  H2328   1.112   .     S
C2277  H2327   1.113   .     S
C2277  C1414   1.538   1_565 S
C2277  C1438   1.538   1_565 S
C2278  H2326   1.111   .     S
C2278  H2325   1.112   .     S
C2279  H2322   1.111   .     S
C2279  H2323   1.111   .     S
C2279  C1438   1.528   1_565 S
C2279  H1344   1.107   1_565 S
C2280  H2335   1.112   .     S
C2280  H2336   1.106   .     S
C2280  C2281   1.534   .     S
C2281  C2282   1.526   .     S
C2281  H2333   1.112   .     S
C2281  H2334   1.110   .     S
C2282  H2331   1.111   .     S
C2282  H2330   1.111   .     S
C2282  H2472   1.110   .     S
C2283  C2284   1.536   .     S
C2283  H2344   1.111   .     S
C2283  H2343   1.103   .     S
C2284  H2341   1.112   .     S
C2284  C2426   1.526   .     S
C2284  H1082   1.107   1_556 S
C2285  C1035   1.440   1_556 S
C2286  H2339   1.109   .     S
C2286  H2338   1.110   .     S
C2286  H2337   1.111   .     S
C2287  C2288   1.546   .     S
C2287  H2350   1.111   .     S
C2287  H1092   1.102   1_556 S
C2288  H2349   1.109   .     S
C2288  H2348   1.111   .     S
C2288  C189    1.528   1_566 S
C2289  H2347   1.111   .     S
C2290  O2365   1.223   .     D
C2290  O2366   1.398   .     S
C2291  O2368   1.397   .     S
C2291  O2367   1.223   .     D
C2292  C1033   1.403   1_556 S
C2293  C2294   1.406   .     A
C2294  H2307   1.072   .     S
C2294  C2295   1.404   .     A
H2303  C1006   1.103   1_556 S
H2305  O2364   1.014   .     S
H2319  C1435   1.112   1_565 S
H2320  C1433   1.112   1_565 S
H2345  C1449   1.111   1_565 S
H2346  C1449   1.110   1_565 S
H2353  O2366   1.014   .     S
H2354  O2368   1.014   .     S
O2358  Zn2377  1.971   .     S
O2358  Zn2380  1.923   .     S
O2358  Zn2379  1.935   .     S
O2358  Zn2378  1.933   .     S
O2359  Zn2378  1.915   .     S
O2360  Zn2380  1.928   .     S
O2361  Zn2379  1.914   .     S
O2362  Zn2377  1.903   .     S
O2369  Zn2377  1.930   .     S
O2370  Zn2380  1.941   .     S
O2371  Zn2378  1.932   .     S
O2372  Zn2379  1.946   .     S
O2373  Zn2380  1.937   .     S
O2374  Zn2377  1.928   .     S
O2375  Zn2378  1.949   .     S
O2376  Zn2379  1.935   .     S
C2381  C2391   1.430   .     S
C2381  O2513   1.255   .     A
C2381  O2511   1.260   .     A
C2382  H2458   1.083   .     S
C2382  C2432   1.406   .     A
C2382  C2383   1.399   .     A
C2383  C2423   1.529   .     S
C2383  C1125   1.420   1_556 S
C2384  O2512   1.294   .     A
C2384  C2390   1.468   .     S
C2384  O2514   1.274   .     A
C2385  C2386   1.423   .     A
C2385  C2387   1.423   .     A
C2386  C2433   1.426   .     A
C2386  C2389   1.402   .     A
C2387  C2388   1.420   .     A
C2387  C2406   1.524   .     S
C2388  C2400   1.412   .     A
C2388  C2420   1.524   .     S
C2389  C2400   1.389   .     A
C2389  H2436   1.077   .     S
C2390  C2111   1.371   1_655 S
C2390  C2129   1.499   1_655 S
C2392  C2401   1.422   .     A
C2392  C2430   1.481   .     S
C2392  C2399   1.425   .     A
C2393  C2396   1.462   .     S
C2393  C1554   1.365   1_565 S
C2393  C1573   1.530   1_565 S
C2394  C2395   1.433   .     S
C2395  O2515   1.264   .     A
C2395  O2509   1.281   .     A
C2396  O2510   1.263   .     A
C2396  O2516   1.273   .     A
C2397  C2400   1.457   .     S
C2397  O2501   1.276   .     A
C2397  O2499   1.274   .     A
C2398  C2399   1.506   .     S
C2398  O2502   1.301   .     A
C2398  O2500   1.289   .     A
C2399  C2403   1.410   .     A
C2401  C2425   1.438   .     A
C2401  C2427   1.533   .     S
C2402  H2497   1.099   .     S
C2402  C2435   1.528   .     S
C2402  H2437   1.111   .     S
C2402  C2404   1.544   .     S
C2403  C2431   1.490   .     S
C2403  C2414   1.417   .     A
C2404  H2496   1.109   .     S
C2404  H2495   1.111   .     S
C2404  C1565   1.529   1_565 S
C2405  H2491   1.111   .     S
C2405  H2480   1.111   .     S
C2405  H2469   1.110   .     S
C2406  C2407   1.538   .     S
C2406  H2444   1.111   .     S
C2407  H2442   1.112   .     S
C2407  H2441   1.107   .     S
C2408  H2438   1.111   .     S
C2408  C307    1.528   1_566 S
C2408  H1179   1.111   1_556 S
C2408  H1180   1.109   1_556 S
C2409  O2504   1.399   .     S
C2409  O2503   1.223   .     D
C2410  H2453   1.111   .     S
C2410  H2452   1.112   .     S
C2410  C2111   1.536   1_655 S
C2410  C2131   1.538   1_655 S
C2411  H2450   1.110   .     S
C2411  H2451   1.112   .     S
C2412  H2446   1.108   .     S
C2412  H2448   1.110   .     S
C2412  H2449   1.110   .     S
C2412  C2131   1.526   1_655 S
C2413  C2415   1.535   .     S
C2413  H2461   1.110   .     S
C2414  C2425   1.428   .     A
C2414  C2432   1.418   .     A
C2415  C2416   1.527   .     S
C2415  H2457   1.112   .     S
C2416  H2456   1.111   .     S
C2416  H2455   1.111   .     S
C2416  H2454   1.111   .     S
C2417  H2468   1.112   .     S
C2417  H2467   1.113   .     S
C2417  C1554   1.538   1_565 S
C2417  C1578   1.538   1_565 S
C2418  H2466   1.111   .     S
C2418  H2465   1.112   .     S
C2419  H2462   1.111   .     S
C2419  H2463   1.111   .     S
C2419  C1578   1.528   1_565 S
C2419  H1484   1.107   1_565 S
C2420  H2475   1.112   .     S
C2420  H2476   1.106   .     S
C2420  C2421   1.534   .     S
C2421  C2422   1.526   .     S
C2421  H2473   1.112   .     S
C2421  H2474   1.110   .     S
C2422  H2471   1.111   .     S
C2422  H2470   1.111   .     S
C2422  H2192   1.110   1_655 S
C2423  C2424   1.536   .     S
C2423  H2484   1.111   .     S
C2423  H2483   1.103   .     S
C2424  H2481   1.112   .     S
C2424  C2146   1.526   1_655 S
C2424  H1222   1.107   1_556 S
C2425  C1175   1.440   1_556 S
C2426  H2479   1.109   .     S
C2426  H2478   1.110   .     S
C2426  H2477   1.111   .     S
C2427  C2428   1.546   .     S
C2427  H2490   1.111   .     S
C2427  H1232   1.102   1_556 S
C2428  H2489   1.109   .     S
C2428  H2488   1.111   .     S
C2428  C329    1.528   1_566 S
C2429  H2487   1.111   .     S
C2430  O2505   1.223   .     D
C2430  O2506   1.398   .     S
C2431  O2508   1.397   .     S
C2431  O2507   1.223   .     D
C2432  C1173   1.403   1_556 S
C2433  C2434   1.406   .     A
C2434  H2447   1.072   .     S
C2434  C2435   1.404   .     A
H2443  C1146   1.103   1_556 S
H2445  O2504   1.014   .     S
H2459  C1575   1.112   1_565 S
H2460  C1573   1.112   1_565 S
H2464  C1719   1.107   1_655 S
H2485  C1589   1.111   1_565 S
H2486  C1589   1.110   1_565 S
H2493  O2506   1.014   .     S
H2494  O2508   1.014   .     S
O2498  Zn2517  1.971   .     S
O2498  Zn2520  1.923   .     S
O2498  Zn2519  1.935   .     S
O2498  Zn2518  1.933   .     S
O2499  Zn2518  1.915   .     S
O2500  Zn2520  1.928   .     S
O2501  Zn2519  1.914   .     S
O2502  Zn2517  1.903   .     S
O2509  Zn2517  1.930   .     S
O2510  Zn2520  1.941   .     S
O2511  Zn2518  1.932   .     S
O2512  Zn2519  1.946   .     S
O2513  Zn2520  1.937   .     S
O2514  Zn2517  1.928   .     S
O2515  Zn2518  1.949   .     S
O2516  Zn2519  1.935   .     S
