data_str_m1_o10_o16_pcu_sym.98
_audit_creation_date              2020-01-03
_audit_creation_method            'Materials Studio'
_symmetry_space_group_name_H-M    'P1'
_symmetry_Int_Tables_number       1
_symmetry_cell_setting            triclinic
loop_
_symmetry_equiv_pos_as_xyz
  x,y,z
_cell_length_a                    32.5764
_cell_length_b                    32.5139
_cell_length_c                    31.0643
_cell_angle_alpha                 96.1303
_cell_angle_beta                  74.3045
_cell_angle_gamma                 98.5442
loop_
_atom_site_label
_atom_site_type_symbol
_atom_site_fract_x
_atom_site_fract_y
_atom_site_fract_z
_atom_site_U_iso_or_equiv
_atom_site_adp_type
_atom_site_occupancy
C1     C     0.05269   0.15945   0.26050   0.00000  Uiso   1.00
C2     C     0.16581   0.15327   0.05944   0.00000  Uiso   1.00
C3     C     0.23574   0.13434   0.05627   0.00000  Uiso   1.00
C4     C     0.28102   0.17375   0.23962   0.00000  Uiso   1.00
C5     C     0.13762   0.18855   0.42020   0.00000  Uiso   1.00
C6     C     0.32749   0.17591   0.23438   0.00000  Uiso   1.00
C7     C     0.00749   0.15788   0.26405   0.00000  Uiso   1.00
C8     C     0.18068   0.32259   0.23621   0.00000  Uiso   1.00
C9     C     0.15216   0.01176   0.26390   0.00000  Uiso   1.00
C10    C     0.15632   0.05590   0.26011   0.00000  Uiso   1.00
C11    C     0.17668   0.27798   0.24007   0.00000  Uiso   1.00
C12    C     0.07765   0.18047   0.48558   0.00000  Uiso   1.00
C13    C     0.18556   0.14845   0.12932   0.00000  Uiso   1.00
C14    C     0.14905   0.18511   0.37083   0.00000  Uiso   1.00
C15    C     0.24871   0.13932   0.01057   0.00000  Uiso   1.00
C16    C     0.19476   0.14256   0.08086   0.00000  Uiso   1.00
C17    C     0.09473   0.19247   0.44228   0.00000  Uiso   1.00
C18    C     0.07691   0.09718   0.03820   0.00000  Uiso   1.00
C19    C     0.10292   0.16427   0.00794   0.00000  Uiso   1.00
C20    C     0.14846   0.16663   0.48923   0.00000  Uiso   1.00
C21    C     0.16587   0.17930   0.44453   0.00000  Uiso   1.00
C22    C     0.17726   0.15624   0.01265   0.00000  Uiso   1.00
C23    C     0.22057   0.15222   0.48912   0.00000  Uiso   1.00
C24    C     0.23680   0.16503   0.44586   0.00000  Uiso   1.00
C25    C     0.21089   0.18201   0.42498   0.00000  Uiso   1.00
H26    H     0.25861   0.12687   0.07300   0.00000  Uiso   1.00
H27    H     0.05267   0.15254   0.06443   0.00000  Uiso   1.00
H28    H     0.06188   0.08242   0.07030   0.00000  Uiso   1.00
H29    H     0.10889   0.08631   0.02371   0.00000  Uiso   1.00
H30    H     0.05624   0.08719   0.01482   0.00000  Uiso   1.00
H31    H     0.26088   0.20238   0.37789   0.00000  Uiso   1.00
H32    H     0.00904   0.20667   0.18063   0.00000  Uiso   1.00
H33    H     0.31849   0.14267   0.29220   0.00000  Uiso   1.00
H34    H     0.20703   0.00388   0.21067   0.00000  Uiso   1.00
H35    H     0.12551   0.33123   0.28961   0.00000  Uiso   1.00
H36    H     0.27073   0.16487   0.42956   0.00000  Uiso   1.00
H37    H     0.28158   0.13553   0.49254   0.00000  Uiso   1.00
H38    H     0.13655   0.16356   0.08064   0.00000  Uiso   1.00
H39    H     0.07300   0.20050   0.42444   0.00000  Uiso   1.00
H40    H     0.04339   0.17997   0.00020   0.00000  Uiso   1.00
N41    N     0.08121   0.14206   0.04646   0.00000  Uiso   1.00
O42    O     0.16667   0.16667   0.25000   0.00000  Uiso   1.00
O43    O     0.15451   0.12637   0.15459   0.00000  Uiso   1.00
O44    O     0.12940   0.20391   0.34968   0.00000  Uiso   1.00
O45    O     0.20824   0.17759   0.14606   0.00000  Uiso   1.00
O46    O     0.17451   0.15880   0.34968   0.00000  Uiso   1.00
O47    O     0.22939   0.20336   0.38683   0.00000  Uiso   1.00
O48    O     0.02420   0.19581   0.19983   0.00000  Uiso   1.00
O49    O     0.17930   0.08019   0.28214   0.00000  Uiso   1.00
O50    O     0.14632   0.26085   0.27014   0.00000  Uiso   1.00
O51    O     0.07412   0.13291   0.23413   0.00000  Uiso   1.00
O52    O     0.26693   0.19272   0.21361   0.00000  Uiso   1.00
O53    O     0.07071   0.18878   0.28213   0.00000  Uiso   1.00
O54    O     0.25491   0.15226   0.27014   0.00000  Uiso   1.00
O55    O     0.13760   0.06944   0.23413   0.00000  Uiso   1.00
O56    O     0.20345   0.25620   0.21361   0.00000  Uiso   1.00
Zn57   Zn    0.19338   0.13994   0.28734   0.00000  Uiso   1.00
Zn58   Zn    0.13379   0.12458   0.21876   0.00000  Uiso   1.00
Zn59   Zn    0.21056   0.19775   0.20657   0.00000  Uiso   1.00
Zn60   Zn    0.12893   0.20439   0.28734   0.00000  Uiso   1.00
C61    C     0.38602   0.15945   0.26050   0.00000  Uiso   1.00
C62    C     0.49914   0.15327   0.05944   0.00000  Uiso   1.00
C63    C     0.56907   0.13434   0.05627   0.00000  Uiso   1.00
C64    C     0.61435   0.17375   0.23962   0.00000  Uiso   1.00
C65    C     0.47095   0.18855   0.42020   0.00000  Uiso   1.00
C66    C     0.66082   0.17591   0.23438   0.00000  Uiso   1.00
C67    C     0.34083   0.15788   0.26405   0.00000  Uiso   1.00
C68    C     0.51401   0.32259   0.23621   0.00000  Uiso   1.00
C69    C     0.48549   0.01176   0.26390   0.00000  Uiso   1.00
C70    C     0.48965   0.05590   0.26011   0.00000  Uiso   1.00
C71    C     0.51002   0.27798   0.24007   0.00000  Uiso   1.00
C72    C     0.41098   0.18047   0.48558   0.00000  Uiso   1.00
C73    C     0.51889   0.14845   0.12932   0.00000  Uiso   1.00
C74    C     0.48238   0.18511   0.37083   0.00000  Uiso   1.00
C75    C     0.58205   0.13932   0.01057   0.00000  Uiso   1.00
C76    C     0.52810   0.14256   0.08086   0.00000  Uiso   1.00
C77    C     0.42806   0.19247   0.44228   0.00000  Uiso   1.00
C78    C     0.41025   0.09718   0.03820   0.00000  Uiso   1.00
C79    C     0.43625   0.16427   0.00794   0.00000  Uiso   1.00
C80    C     0.48179   0.16663   0.48923   0.00000  Uiso   1.00
C81    C     0.49920   0.17930   0.44453   0.00000  Uiso   1.00
C82    C     0.51060   0.15624   0.01265   0.00000  Uiso   1.00
C83    C     0.55390   0.15222   0.48912   0.00000  Uiso   1.00
C84    C     0.57013   0.16503   0.44586   0.00000  Uiso   1.00
C85    C     0.54422   0.18201   0.42498   0.00000  Uiso   1.00
H86    H     0.59194   0.12687   0.07300   0.00000  Uiso   1.00
H87    H     0.38600   0.15254   0.06443   0.00000  Uiso   1.00
H88    H     0.39522   0.08242   0.07030   0.00000  Uiso   1.00
H89    H     0.44222   0.08631   0.02371   0.00000  Uiso   1.00
H90    H     0.38957   0.08719   0.01482   0.00000  Uiso   1.00
H91    H     0.59421   0.20238   0.37789   0.00000  Uiso   1.00
H92    H     0.34237   0.20667   0.18063   0.00000  Uiso   1.00
H93    H     0.65182   0.14267   0.29220   0.00000  Uiso   1.00
H94    H     0.54037   0.00388   0.21067   0.00000  Uiso   1.00
H95    H     0.45884   0.33123   0.28961   0.00000  Uiso   1.00
H96    H     0.60406   0.16487   0.42956   0.00000  Uiso   1.00
H97    H     0.61492   0.13553   0.49254   0.00000  Uiso   1.00
H98    H     0.46988   0.16356   0.08064   0.00000  Uiso   1.00
H99    H     0.40633   0.20050   0.42444   0.00000  Uiso   1.00
H100   H     0.37672   0.17997   0.00020   0.00000  Uiso   1.00
N101   N     0.41455   0.14206   0.04646   0.00000  Uiso   1.00
O102   O     0.50000   0.16667   0.25000   0.00000  Uiso   1.00
O103   O     0.48784   0.12637   0.15459   0.00000  Uiso   1.00
O104   O     0.46274   0.20391   0.34968   0.00000  Uiso   1.00
O105   O     0.54157   0.17759   0.14606   0.00000  Uiso   1.00
O106   O     0.50785   0.15880   0.34968   0.00000  Uiso   1.00
O107   O     0.56273   0.20336   0.38683   0.00000  Uiso   1.00
O108   O     0.35753   0.19581   0.19983   0.00000  Uiso   1.00
O109   O     0.51264   0.08019   0.28214   0.00000  Uiso   1.00
O110   O     0.47965   0.26085   0.27014   0.00000  Uiso   1.00
O111   O     0.40745   0.13291   0.23413   0.00000  Uiso   1.00
O112   O     0.60026   0.19272   0.21361   0.00000  Uiso   1.00
O113   O     0.40405   0.18878   0.28213   0.00000  Uiso   1.00
O114   O     0.58824   0.15226   0.27014   0.00000  Uiso   1.00
O115   O     0.47093   0.06944   0.23413   0.00000  Uiso   1.00
O116   O     0.53678   0.25620   0.21361   0.00000  Uiso   1.00
Zn117  Zn    0.52672   0.13994   0.28734   0.00000  Uiso   1.00
Zn118  Zn    0.46713   0.12458   0.21876   0.00000  Uiso   1.00
Zn119  Zn    0.54389   0.19775   0.20657   0.00000  Uiso   1.00
Zn120  Zn    0.46226   0.20439   0.28734   0.00000  Uiso   1.00
C121   C     0.71935   0.15945   0.26050   0.00000  Uiso   1.00
C122   C     0.83247   0.15327   0.05944   0.00000  Uiso   1.00
C123   C     0.90241   0.13434   0.05627   0.00000  Uiso   1.00
C124   C     0.94769   0.17375   0.23962   0.00000  Uiso   1.00
C125   C     0.80428   0.18855   0.42020   0.00000  Uiso   1.00
C126   C     0.99415   0.17591   0.23438   0.00000  Uiso   1.00
C127   C     0.67416   0.15788   0.26405   0.00000  Uiso   1.00
C128   C     0.84735   0.32259   0.23621   0.00000  Uiso   1.00
C129   C     0.81883   0.01176   0.26390   0.00000  Uiso   1.00
C130   C     0.82298   0.05590   0.26011   0.00000  Uiso   1.00
C131   C     0.84335   0.27798   0.24007   0.00000  Uiso   1.00
C132   C     0.74431   0.18047   0.48558   0.00000  Uiso   1.00
C133   C     0.85223   0.14845   0.12932   0.00000  Uiso   1.00
C134   C     0.81572   0.18511   0.37083   0.00000  Uiso   1.00
C135   C     0.91538   0.13932   0.01057   0.00000  Uiso   1.00
C136   C     0.86143   0.14256   0.08086   0.00000  Uiso   1.00
C137   C     0.76139   0.19247   0.44228   0.00000  Uiso   1.00
C138   C     0.74358   0.09718   0.03820   0.00000  Uiso   1.00
C139   C     0.76958   0.16427   0.00794   0.00000  Uiso   1.00
C140   C     0.81512   0.16663   0.48923   0.00000  Uiso   1.00
C141   C     0.83253   0.17930   0.44453   0.00000  Uiso   1.00
C142   C     0.84393   0.15624   0.01265   0.00000  Uiso   1.00
C143   C     0.88723   0.15222   0.48912   0.00000  Uiso   1.00
C144   C     0.90346   0.16503   0.44586   0.00000  Uiso   1.00
C145   C     0.87756   0.18201   0.42498   0.00000  Uiso   1.00
H146   H     0.92527   0.12687   0.07300   0.00000  Uiso   1.00
H147   H     0.71934   0.15254   0.06443   0.00000  Uiso   1.00
H148   H     0.72855   0.08242   0.07030   0.00000  Uiso   1.00
H149   H     0.77555   0.08631   0.02371   0.00000  Uiso   1.00
H150   H     0.72291   0.08719   0.01482   0.00000  Uiso   1.00
H151   H     0.92755   0.20238   0.37789   0.00000  Uiso   1.00
H152   H     0.67571   0.20667   0.18063   0.00000  Uiso   1.00
H153   H     0.98515   0.14267   0.29220   0.00000  Uiso   1.00
H154   H     0.87370   0.00388   0.21067   0.00000  Uiso   1.00
H155   H     0.79217   0.33123   0.28961   0.00000  Uiso   1.00
H156   H     0.93740   0.16487   0.42956   0.00000  Uiso   1.00
H157   H     0.94825   0.13553   0.49254   0.00000  Uiso   1.00
H158   H     0.80322   0.16356   0.08064   0.00000  Uiso   1.00
H159   H     0.73967   0.20050   0.42444   0.00000  Uiso   1.00
H160   H     0.71005   0.17997   0.00020   0.00000  Uiso   1.00
N161   N     0.74788   0.14206   0.04646   0.00000  Uiso   1.00
O162   O     0.83333   0.16667   0.25000   0.00000  Uiso   1.00
O163   O     0.82118   0.12637   0.15459   0.00000  Uiso   1.00
O164   O     0.79607   0.20391   0.34968   0.00000  Uiso   1.00
O165   O     0.87491   0.17759   0.14606   0.00000  Uiso   1.00
O166   O     0.84118   0.15880   0.34968   0.00000  Uiso   1.00
O167   O     0.89606   0.20336   0.38683   0.00000  Uiso   1.00
O168   O     0.69086   0.19581   0.19983   0.00000  Uiso   1.00
O169   O     0.84597   0.08019   0.28214   0.00000  Uiso   1.00
O170   O     0.81298   0.26085   0.27014   0.00000  Uiso   1.00
O171   O     0.74078   0.13291   0.23413   0.00000  Uiso   1.00
O172   O     0.93360   0.19272   0.21361   0.00000  Uiso   1.00
O173   O     0.73738   0.18878   0.28213   0.00000  Uiso   1.00
O174   O     0.92158   0.15226   0.27014   0.00000  Uiso   1.00
O175   O     0.80426   0.06944   0.23413   0.00000  Uiso   1.00
O176   O     0.87012   0.25620   0.21361   0.00000  Uiso   1.00
Zn177  Zn    0.86005   0.13994   0.28734   0.00000  Uiso   1.00
Zn178  Zn    0.80046   0.12458   0.21876   0.00000  Uiso   1.00
Zn179  Zn    0.87723   0.19775   0.20657   0.00000  Uiso   1.00
Zn180  Zn    0.79560   0.20439   0.28734   0.00000  Uiso   1.00
C181   C     0.05269   0.49279   0.26050   0.00000  Uiso   1.00
C182   C     0.16581   0.48660   0.05944   0.00000  Uiso   1.00
C183   C     0.23574   0.46768   0.05627   0.00000  Uiso   1.00
C184   C     0.28102   0.50708   0.23962   0.00000  Uiso   1.00
C185   C     0.13762   0.52189   0.42020   0.00000  Uiso   1.00
C186   C     0.32749   0.50924   0.23438   0.00000  Uiso   1.00
C187   C     0.00749   0.49121   0.26405   0.00000  Uiso   1.00
C188   C     0.18068   0.65592   0.23621   0.00000  Uiso   1.00
C189   C     0.15216   0.34510   0.26390   0.00000  Uiso   1.00
C190   C     0.15632   0.38923   0.26011   0.00000  Uiso   1.00
C191   C     0.17668   0.61131   0.24007   0.00000  Uiso   1.00
C192   C     0.07765   0.51380   0.48558   0.00000  Uiso   1.00
C193   C     0.18556   0.48179   0.12932   0.00000  Uiso   1.00
C194   C     0.14905   0.51844   0.37083   0.00000  Uiso   1.00
C195   C     0.24871   0.47265   0.01057   0.00000  Uiso   1.00
C196   C     0.19476   0.47590   0.08086   0.00000  Uiso   1.00
C197   C     0.09473   0.52580   0.44228   0.00000  Uiso   1.00
C198   C     0.07691   0.43052   0.03820   0.00000  Uiso   1.00
C199   C     0.10292   0.49760   0.00794   0.00000  Uiso   1.00
C200   C     0.14846   0.49997   0.48923   0.00000  Uiso   1.00
C201   C     0.16587   0.51263   0.44453   0.00000  Uiso   1.00
C202   C     0.17726   0.48957   0.01265   0.00000  Uiso   1.00
C203   C     0.22057   0.48555   0.48912   0.00000  Uiso   1.00
C204   C     0.23680   0.49836   0.44586   0.00000  Uiso   1.00
C205   C     0.21089   0.51534   0.42498   0.00000  Uiso   1.00
H206   H     0.25861   0.46020   0.07300   0.00000  Uiso   1.00
H207   H     0.05267   0.48588   0.06443   0.00000  Uiso   1.00
H208   H     0.06188   0.41576   0.07030   0.00000  Uiso   1.00
H209   H     0.10889   0.41965   0.02371   0.00000  Uiso   1.00
H210   H     0.05624   0.42053   0.01482   0.00000  Uiso   1.00
H211   H     0.26088   0.53572   0.37789   0.00000  Uiso   1.00
H212   H     0.00904   0.54000   0.18063   0.00000  Uiso   1.00
H213   H     0.31849   0.47601   0.29220   0.00000  Uiso   1.00
H214   H     0.20703   0.33721   0.21067   0.00000  Uiso   1.00
H215   H     0.12551   0.66456   0.28961   0.00000  Uiso   1.00
H216   H     0.27073   0.49821   0.42956   0.00000  Uiso   1.00
H217   H     0.28158   0.46886   0.49254   0.00000  Uiso   1.00
H218   H     0.13655   0.49689   0.08064   0.00000  Uiso   1.00
H219   H     0.07300   0.53383   0.42444   0.00000  Uiso   1.00
H220   H     0.04339   0.51330   0.00020   0.00000  Uiso   1.00
N221   N     0.08121   0.47539   0.04646   0.00000  Uiso   1.00
O222   O     0.16667   0.50000   0.25000   0.00000  Uiso   1.00
O223   O     0.15451   0.45970   0.15459   0.00000  Uiso   1.00
O224   O     0.12940   0.53724   0.34968   0.00000  Uiso   1.00
O225   O     0.20824   0.51092   0.14606   0.00000  Uiso   1.00
O226   O     0.17451   0.49213   0.34968   0.00000  Uiso   1.00
O227   O     0.22939   0.53670   0.38683   0.00000  Uiso   1.00
O228   O     0.02420   0.52915   0.19983   0.00000  Uiso   1.00
O229   O     0.17930   0.41352   0.28214   0.00000  Uiso   1.00
O230   O     0.14632   0.59418   0.27014   0.00000  Uiso   1.00
O231   O     0.07412   0.46625   0.23413   0.00000  Uiso   1.00
O232   O     0.26693   0.52605   0.21361   0.00000  Uiso   1.00
O233   O     0.07071   0.52211   0.28213   0.00000  Uiso   1.00
O234   O     0.25491   0.48559   0.27014   0.00000  Uiso   1.00
O235   O     0.13760   0.40277   0.23413   0.00000  Uiso   1.00
O236   O     0.20345   0.58953   0.21361   0.00000  Uiso   1.00
Zn237  Zn    0.19338   0.47327   0.28734   0.00000  Uiso   1.00
Zn238  Zn    0.13379   0.45791   0.21876   0.00000  Uiso   1.00
Zn239  Zn    0.21056   0.53109   0.20657   0.00000  Uiso   1.00
Zn240  Zn    0.12893   0.53773   0.28734   0.00000  Uiso   1.00
C241   C     0.38602   0.49279   0.26050   0.00000  Uiso   1.00
C242   C     0.49914   0.48660   0.05944   0.00000  Uiso   1.00
C243   C     0.56907   0.46768   0.05627   0.00000  Uiso   1.00
C244   C     0.61435   0.50708   0.23962   0.00000  Uiso   1.00
C245   C     0.47095   0.52189   0.42020   0.00000  Uiso   1.00
C246   C     0.66082   0.50924   0.23438   0.00000  Uiso   1.00
C247   C     0.34083   0.49121   0.26405   0.00000  Uiso   1.00
C248   C     0.51401   0.65592   0.23621   0.00000  Uiso   1.00
C249   C     0.48549   0.34510   0.26390   0.00000  Uiso   1.00
C250   C     0.48965   0.38923   0.26011   0.00000  Uiso   1.00
C251   C     0.51002   0.61131   0.24007   0.00000  Uiso   1.00
C252   C     0.41098   0.51380   0.48558   0.00000  Uiso   1.00
C253   C     0.51889   0.48179   0.12932   0.00000  Uiso   1.00
C254   C     0.48238   0.51844   0.37083   0.00000  Uiso   1.00
C255   C     0.58205   0.47265   0.01057   0.00000  Uiso   1.00
C256   C     0.52810   0.47590   0.08086   0.00000  Uiso   1.00
C257   C     0.42806   0.52580   0.44228   0.00000  Uiso   1.00
C258   C     0.41025   0.43052   0.03820   0.00000  Uiso   1.00
C259   C     0.43625   0.49760   0.00794   0.00000  Uiso   1.00
C260   C     0.48179   0.49997   0.48923   0.00000  Uiso   1.00
C261   C     0.49920   0.51263   0.44453   0.00000  Uiso   1.00
C262   C     0.51060   0.48957   0.01265   0.00000  Uiso   1.00
C263   C     0.55390   0.48555   0.48912   0.00000  Uiso   1.00
C264   C     0.57013   0.49836   0.44586   0.00000  Uiso   1.00
C265   C     0.54422   0.51534   0.42498   0.00000  Uiso   1.00
H266   H     0.59194   0.46020   0.07300   0.00000  Uiso   1.00
H267   H     0.38600   0.48588   0.06443   0.00000  Uiso   1.00
H268   H     0.39522   0.41576   0.07030   0.00000  Uiso   1.00
H269   H     0.44222   0.41965   0.02371   0.00000  Uiso   1.00
H270   H     0.38957   0.42053   0.01482   0.00000  Uiso   1.00
H271   H     0.59421   0.53572   0.37789   0.00000  Uiso   1.00
H272   H     0.34237   0.54000   0.18063   0.00000  Uiso   1.00
H273   H     0.65182   0.47601   0.29220   0.00000  Uiso   1.00
H274   H     0.54037   0.33721   0.21067   0.00000  Uiso   1.00
H275   H     0.45884   0.66456   0.28961   0.00000  Uiso   1.00
H276   H     0.60406   0.49821   0.42956   0.00000  Uiso   1.00
H277   H     0.61492   0.46886   0.49254   0.00000  Uiso   1.00
H278   H     0.46988   0.49689   0.08064   0.00000  Uiso   1.00
H279   H     0.40633   0.53383   0.42444   0.00000  Uiso   1.00
H280   H     0.37672   0.51330   0.00020   0.00000  Uiso   1.00
N281   N     0.41455   0.47539   0.04646   0.00000  Uiso   1.00
O282   O     0.50000   0.50000   0.25000   0.00000  Uiso   1.00
O283   O     0.48784   0.45970   0.15459   0.00000  Uiso   1.00
O284   O     0.46274   0.53724   0.34968   0.00000  Uiso   1.00
O285   O     0.54157   0.51092   0.14606   0.00000  Uiso   1.00
O286   O     0.50785   0.49213   0.34968   0.00000  Uiso   1.00
O287   O     0.56273   0.53670   0.38683   0.00000  Uiso   1.00
O288   O     0.35753   0.52915   0.19983   0.00000  Uiso   1.00
O289   O     0.51264   0.41352   0.28214   0.00000  Uiso   1.00
O290   O     0.47965   0.59418   0.27014   0.00000  Uiso   1.00
O291   O     0.40745   0.46625   0.23413   0.00000  Uiso   1.00
O292   O     0.60026   0.52605   0.21361   0.00000  Uiso   1.00
O293   O     0.40405   0.52211   0.28213   0.00000  Uiso   1.00
O294   O     0.58824   0.48559   0.27014   0.00000  Uiso   1.00
O295   O     0.47093   0.40277   0.23413   0.00000  Uiso   1.00
O296   O     0.53678   0.58953   0.21361   0.00000  Uiso   1.00
Zn297  Zn    0.52672   0.47327   0.28734   0.00000  Uiso   1.00
Zn298  Zn    0.46713   0.45791   0.21876   0.00000  Uiso   1.00
Zn299  Zn    0.54389   0.53109   0.20657   0.00000  Uiso   1.00
Zn300  Zn    0.46226   0.53773   0.28734   0.00000  Uiso   1.00
C301   C     0.71935   0.49279   0.26050   0.00000  Uiso   1.00
C302   C     0.83247   0.48660   0.05944   0.00000  Uiso   1.00
C303   C     0.90241   0.46768   0.05627   0.00000  Uiso   1.00
C304   C     0.94769   0.50708   0.23962   0.00000  Uiso   1.00
C305   C     0.80428   0.52189   0.42020   0.00000  Uiso   1.00
C306   C     0.99415   0.50924   0.23438   0.00000  Uiso   1.00
C307   C     0.67416   0.49121   0.26405   0.00000  Uiso   1.00
C308   C     0.84735   0.65592   0.23621   0.00000  Uiso   1.00
C309   C     0.81883   0.34510   0.26390   0.00000  Uiso   1.00
C310   C     0.82298   0.38923   0.26011   0.00000  Uiso   1.00
C311   C     0.84335   0.61131   0.24007   0.00000  Uiso   1.00
C312   C     0.74431   0.51380   0.48558   0.00000  Uiso   1.00
C313   C     0.85223   0.48179   0.12932   0.00000  Uiso   1.00
C314   C     0.81572   0.51844   0.37083   0.00000  Uiso   1.00
C315   C     0.91538   0.47265   0.01057   0.00000  Uiso   1.00
C316   C     0.86143   0.47590   0.08086   0.00000  Uiso   1.00
C317   C     0.76139   0.52580   0.44228   0.00000  Uiso   1.00
C318   C     0.74358   0.43052   0.03820   0.00000  Uiso   1.00
C319   C     0.76958   0.49760   0.00794   0.00000  Uiso   1.00
C320   C     0.81512   0.49997   0.48923   0.00000  Uiso   1.00
C321   C     0.83253   0.51263   0.44453   0.00000  Uiso   1.00
C322   C     0.84393   0.48957   0.01265   0.00000  Uiso   1.00
C323   C     0.88723   0.48555   0.48912   0.00000  Uiso   1.00
C324   C     0.90346   0.49836   0.44586   0.00000  Uiso   1.00
C325   C     0.87756   0.51534   0.42498   0.00000  Uiso   1.00
H326   H     0.92527   0.46020   0.07300   0.00000  Uiso   1.00
H327   H     0.71934   0.48588   0.06443   0.00000  Uiso   1.00
H328   H     0.72855   0.41576   0.07030   0.00000  Uiso   1.00
H329   H     0.77555   0.41965   0.02371   0.00000  Uiso   1.00
H330   H     0.72291   0.42053   0.01482   0.00000  Uiso   1.00
H331   H     0.92755   0.53572   0.37789   0.00000  Uiso   1.00
H332   H     0.67571   0.54000   0.18063   0.00000  Uiso   1.00
H333   H     0.98515   0.47601   0.29220   0.00000  Uiso   1.00
H334   H     0.87370   0.33721   0.21067   0.00000  Uiso   1.00
H335   H     0.79217   0.66456   0.28961   0.00000  Uiso   1.00
H336   H     0.93740   0.49821   0.42956   0.00000  Uiso   1.00
H337   H     0.94825   0.46886   0.49254   0.00000  Uiso   1.00
H338   H     0.80322   0.49689   0.08064   0.00000  Uiso   1.00
H339   H     0.73967   0.53383   0.42444   0.00000  Uiso   1.00
H340   H     0.71005   0.51330   0.00020   0.00000  Uiso   1.00
N341   N     0.74788   0.47539   0.04646   0.00000  Uiso   1.00
O342   O     0.83333   0.50000   0.25000   0.00000  Uiso   1.00
O343   O     0.82118   0.45970   0.15459   0.00000  Uiso   1.00
O344   O     0.79607   0.53724   0.34968   0.00000  Uiso   1.00
O345   O     0.87491   0.51092   0.14606   0.00000  Uiso   1.00
O346   O     0.84118   0.49213   0.34968   0.00000  Uiso   1.00
O347   O     0.89606   0.53670   0.38683   0.00000  Uiso   1.00
O348   O     0.69086   0.52915   0.19983   0.00000  Uiso   1.00
O349   O     0.84597   0.41352   0.28214   0.00000  Uiso   1.00
O350   O     0.81298   0.59418   0.27014   0.00000  Uiso   1.00
O351   O     0.74078   0.46625   0.23413   0.00000  Uiso   1.00
O352   O     0.93360   0.52605   0.21361   0.00000  Uiso   1.00
O353   O     0.73738   0.52211   0.28213   0.00000  Uiso   1.00
O354   O     0.92158   0.48559   0.27014   0.00000  Uiso   1.00
O355   O     0.80426   0.40277   0.23413   0.00000  Uiso   1.00
O356   O     0.87012   0.58953   0.21361   0.00000  Uiso   1.00
Zn357  Zn    0.86005   0.47327   0.28734   0.00000  Uiso   1.00
Zn358  Zn    0.80046   0.45791   0.21876   0.00000  Uiso   1.00
Zn359  Zn    0.87723   0.53109   0.20657   0.00000  Uiso   1.00
Zn360  Zn    0.79560   0.53773   0.28734   0.00000  Uiso   1.00
C361   C     0.05269   0.82612   0.26050   0.00000  Uiso   1.00
C362   C     0.16581   0.81993   0.05944   0.00000  Uiso   1.00
C363   C     0.23574   0.80101   0.05627   0.00000  Uiso   1.00
C364   C     0.28102   0.84042   0.23962   0.00000  Uiso   1.00
C365   C     0.13762   0.85522   0.42020   0.00000  Uiso   1.00
C366   C     0.32749   0.84258   0.23438   0.00000  Uiso   1.00
C367   C     0.00749   0.82455   0.26405   0.00000  Uiso   1.00
C368   C     0.18068   0.98925   0.23621   0.00000  Uiso   1.00
C369   C     0.15216   0.67843   0.26390   0.00000  Uiso   1.00
C370   C     0.15632   0.72256   0.26011   0.00000  Uiso   1.00
C371   C     0.17668   0.94465   0.24007   0.00000  Uiso   1.00
C372   C     0.07765   0.84713   0.48558   0.00000  Uiso   1.00
C373   C     0.18556   0.81512   0.12932   0.00000  Uiso   1.00
C374   C     0.14905   0.85177   0.37083   0.00000  Uiso   1.00
C375   C     0.24871   0.80598   0.01057   0.00000  Uiso   1.00
C376   C     0.19476   0.80923   0.08086   0.00000  Uiso   1.00
C377   C     0.09473   0.85913   0.44228   0.00000  Uiso   1.00
C378   C     0.07691   0.76385   0.03820   0.00000  Uiso   1.00
C379   C     0.10292   0.83093   0.00794   0.00000  Uiso   1.00
C380   C     0.14846   0.83330   0.48923   0.00000  Uiso   1.00
C381   C     0.16587   0.84597   0.44453   0.00000  Uiso   1.00
C382   C     0.17726   0.82291   0.01265   0.00000  Uiso   1.00
C383   C     0.22057   0.81889   0.48912   0.00000  Uiso   1.00
C384   C     0.23680   0.83170   0.44586   0.00000  Uiso   1.00
C385   C     0.21089   0.84867   0.42498   0.00000  Uiso   1.00
H386   H     0.25861   0.79353   0.07300   0.00000  Uiso   1.00
H387   H     0.05267   0.81921   0.06443   0.00000  Uiso   1.00
H388   H     0.06188   0.74909   0.07030   0.00000  Uiso   1.00
H389   H     0.10889   0.75298   0.02371   0.00000  Uiso   1.00
H390   H     0.05624   0.75386   0.01482   0.00000  Uiso   1.00
H391   H     0.26088   0.86905   0.37789   0.00000  Uiso   1.00
H392   H     0.00904   0.87334   0.18063   0.00000  Uiso   1.00
H393   H     0.31849   0.80934   0.29220   0.00000  Uiso   1.00
H394   H     0.20703   0.67054   0.21067   0.00000  Uiso   1.00
H395   H     0.12551   0.99789   0.28961   0.00000  Uiso   1.00
H396   H     0.27073   0.83154   0.42956   0.00000  Uiso   1.00
H397   H     0.28158   0.80219   0.49254   0.00000  Uiso   1.00
H398   H     0.13655   0.83022   0.08064   0.00000  Uiso   1.00
H399   H     0.07300   0.86717   0.42444   0.00000  Uiso   1.00
H400   H     0.04339   0.84663   0.00020   0.00000  Uiso   1.00
N401   N     0.08121   0.80873   0.04646   0.00000  Uiso   1.00
O402   O     0.16667   0.83333   0.25000   0.00000  Uiso   1.00
O403   O     0.15451   0.79304   0.15459   0.00000  Uiso   1.00
O404   O     0.12940   0.87058   0.34968   0.00000  Uiso   1.00
O405   O     0.20824   0.84425   0.14606   0.00000  Uiso   1.00
O406   O     0.17451   0.82546   0.34968   0.00000  Uiso   1.00
O407   O     0.22939   0.87003   0.38683   0.00000  Uiso   1.00
O408   O     0.02420   0.86248   0.19983   0.00000  Uiso   1.00
O409   O     0.17930   0.74686   0.28214   0.00000  Uiso   1.00
O410   O     0.14632   0.92751   0.27014   0.00000  Uiso   1.00
O411   O     0.07412   0.79958   0.23413   0.00000  Uiso   1.00
O412   O     0.26693   0.85939   0.21361   0.00000  Uiso   1.00
O413   O     0.07071   0.85544   0.28213   0.00000  Uiso   1.00
O414   O     0.25491   0.81892   0.27014   0.00000  Uiso   1.00
O415   O     0.13760   0.73610   0.23413   0.00000  Uiso   1.00
O416   O     0.20345   0.92286   0.21361   0.00000  Uiso   1.00
Zn417  Zn    0.19338   0.80661   0.28734   0.00000  Uiso   1.00
Zn418  Zn    0.13379   0.79124   0.21876   0.00000  Uiso   1.00
Zn419  Zn    0.21056   0.86442   0.20657   0.00000  Uiso   1.00
Zn420  Zn    0.12893   0.87106   0.28734   0.00000  Uiso   1.00
C421   C     0.38602   0.82612   0.26050   0.00000  Uiso   1.00
C422   C     0.49914   0.81993   0.05944   0.00000  Uiso   1.00
C423   C     0.56907   0.80101   0.05627   0.00000  Uiso   1.00
C424   C     0.61435   0.84042   0.23962   0.00000  Uiso   1.00
C425   C     0.47095   0.85522   0.42020   0.00000  Uiso   1.00
C426   C     0.66082   0.84258   0.23438   0.00000  Uiso   1.00
C427   C     0.34083   0.82455   0.26405   0.00000  Uiso   1.00
C428   C     0.51401   0.98925   0.23621   0.00000  Uiso   1.00
C429   C     0.48549   0.67843   0.26390   0.00000  Uiso   1.00
C430   C     0.48965   0.72256   0.26011   0.00000  Uiso   1.00
C431   C     0.51002   0.94465   0.24007   0.00000  Uiso   1.00
C432   C     0.41098   0.84713   0.48558   0.00000  Uiso   1.00
C433   C     0.51889   0.81512   0.12932   0.00000  Uiso   1.00
C434   C     0.48238   0.85177   0.37083   0.00000  Uiso   1.00
C435   C     0.58205   0.80598   0.01057   0.00000  Uiso   1.00
C436   C     0.52810   0.80923   0.08086   0.00000  Uiso   1.00
C437   C     0.42806   0.85913   0.44228   0.00000  Uiso   1.00
C438   C     0.41025   0.76385   0.03820   0.00000  Uiso   1.00
C439   C     0.43625   0.83093   0.00794   0.00000  Uiso   1.00
C440   C     0.48179   0.83330   0.48923   0.00000  Uiso   1.00
C441   C     0.49920   0.84597   0.44453   0.00000  Uiso   1.00
C442   C     0.51060   0.82291   0.01265   0.00000  Uiso   1.00
C443   C     0.55390   0.81889   0.48912   0.00000  Uiso   1.00
C444   C     0.57013   0.83170   0.44586   0.00000  Uiso   1.00
C445   C     0.54422   0.84867   0.42498   0.00000  Uiso   1.00
H446   H     0.59194   0.79353   0.07300   0.00000  Uiso   1.00
H447   H     0.38600   0.81921   0.06443   0.00000  Uiso   1.00
H448   H     0.39522   0.74909   0.07030   0.00000  Uiso   1.00
H449   H     0.44222   0.75298   0.02371   0.00000  Uiso   1.00
H450   H     0.38957   0.75386   0.01482   0.00000  Uiso   1.00
H451   H     0.59421   0.86905   0.37789   0.00000  Uiso   1.00
H452   H     0.34237   0.87334   0.18063   0.00000  Uiso   1.00
H453   H     0.65182   0.80934   0.29220   0.00000  Uiso   1.00
H454   H     0.54037   0.67054   0.21067   0.00000  Uiso   1.00
H455   H     0.45884   0.99789   0.28961   0.00000  Uiso   1.00
H456   H     0.60406   0.83154   0.42956   0.00000  Uiso   1.00
H457   H     0.61492   0.80219   0.49254   0.00000  Uiso   1.00
H458   H     0.46988   0.83022   0.08064   0.00000  Uiso   1.00
H459   H     0.40633   0.86717   0.42444   0.00000  Uiso   1.00
H460   H     0.37672   0.84663   0.00020   0.00000  Uiso   1.00
N461   N     0.41455   0.80873   0.04646   0.00000  Uiso   1.00
O462   O     0.50000   0.83333   0.25000   0.00000  Uiso   1.00
O463   O     0.48784   0.79304   0.15459   0.00000  Uiso   1.00
O464   O     0.46274   0.87058   0.34968   0.00000  Uiso   1.00
O465   O     0.54157   0.84425   0.14606   0.00000  Uiso   1.00
O466   O     0.50785   0.82546   0.34968   0.00000  Uiso   1.00
O467   O     0.56273   0.87003   0.38683   0.00000  Uiso   1.00
O468   O     0.35753   0.86248   0.19983   0.00000  Uiso   1.00
O469   O     0.51264   0.74686   0.28214   0.00000  Uiso   1.00
O470   O     0.47965   0.92751   0.27014   0.00000  Uiso   1.00
O471   O     0.40745   0.79958   0.23413   0.00000  Uiso   1.00
O472   O     0.60026   0.85939   0.21361   0.00000  Uiso   1.00
O473   O     0.40405   0.85544   0.28213   0.00000  Uiso   1.00
O474   O     0.58824   0.81892   0.27014   0.00000  Uiso   1.00
O475   O     0.47093   0.73610   0.23413   0.00000  Uiso   1.00
O476   O     0.53678   0.92286   0.21361   0.00000  Uiso   1.00
Zn477  Zn    0.52672   0.80661   0.28734   0.00000  Uiso   1.00
Zn478  Zn    0.46713   0.79124   0.21876   0.00000  Uiso   1.00
Zn479  Zn    0.54389   0.86442   0.20657   0.00000  Uiso   1.00
Zn480  Zn    0.46226   0.87106   0.28734   0.00000  Uiso   1.00
C481   C     0.71935   0.82612   0.26050   0.00000  Uiso   1.00
C482   C     0.83247   0.81993   0.05944   0.00000  Uiso   1.00
C483   C     0.90241   0.80101   0.05627   0.00000  Uiso   1.00
C484   C     0.94769   0.84042   0.23962   0.00000  Uiso   1.00
C485   C     0.80428   0.85522   0.42020   0.00000  Uiso   1.00
C486   C     0.99415   0.84258   0.23438   0.00000  Uiso   1.00
C487   C     0.67416   0.82455   0.26405   0.00000  Uiso   1.00
C488   C     0.84735   0.98925   0.23621   0.00000  Uiso   1.00
C489   C     0.81883   0.67843   0.26390   0.00000  Uiso   1.00
C490   C     0.82298   0.72256   0.26011   0.00000  Uiso   1.00
C491   C     0.84335   0.94465   0.24007   0.00000  Uiso   1.00
C492   C     0.74431   0.84713   0.48558   0.00000  Uiso   1.00
C493   C     0.85223   0.81512   0.12932   0.00000  Uiso   1.00
C494   C     0.81572   0.85177   0.37083   0.00000  Uiso   1.00
C495   C     0.91538   0.80598   0.01057   0.00000  Uiso   1.00
C496   C     0.86143   0.80923   0.08086   0.00000  Uiso   1.00
C497   C     0.76139   0.85913   0.44228   0.00000  Uiso   1.00
C498   C     0.74358   0.76385   0.03820   0.00000  Uiso   1.00
C499   C     0.76958   0.83093   0.00794   0.00000  Uiso   1.00
C500   C     0.81512   0.83330   0.48923   0.00000  Uiso   1.00
C501   C     0.83253   0.84597   0.44453   0.00000  Uiso   1.00
C502   C     0.84393   0.82291   0.01265   0.00000  Uiso   1.00
C503   C     0.88723   0.81889   0.48912   0.00000  Uiso   1.00
C504   C     0.90346   0.83170   0.44586   0.00000  Uiso   1.00
C505   C     0.87756   0.84867   0.42498   0.00000  Uiso   1.00
H506   H     0.92527   0.79353   0.07300   0.00000  Uiso   1.00
H507   H     0.71934   0.81921   0.06443   0.00000  Uiso   1.00
H508   H     0.72855   0.74909   0.07030   0.00000  Uiso   1.00
H509   H     0.77555   0.75298   0.02371   0.00000  Uiso   1.00
H510   H     0.72291   0.75386   0.01482   0.00000  Uiso   1.00
H511   H     0.92755   0.86905   0.37789   0.00000  Uiso   1.00
H512   H     0.67571   0.87334   0.18063   0.00000  Uiso   1.00
H513   H     0.98515   0.80934   0.29220   0.00000  Uiso   1.00
H514   H     0.87370   0.67054   0.21067   0.00000  Uiso   1.00
H515   H     0.79217   0.99789   0.28961   0.00000  Uiso   1.00
H516   H     0.93740   0.83154   0.42956   0.00000  Uiso   1.00
H517   H     0.94825   0.80219   0.49254   0.00000  Uiso   1.00
H518   H     0.80322   0.83022   0.08064   0.00000  Uiso   1.00
H519   H     0.73967   0.86717   0.42444   0.00000  Uiso   1.00
H520   H     0.71005   0.84663   0.00020   0.00000  Uiso   1.00
N521   N     0.74788   0.80873   0.04646   0.00000  Uiso   1.00
O522   O     0.83333   0.83333   0.25000   0.00000  Uiso   1.00
O523   O     0.82118   0.79304   0.15459   0.00000  Uiso   1.00
O524   O     0.79607   0.87058   0.34968   0.00000  Uiso   1.00
O525   O     0.87491   0.84425   0.14606   0.00000  Uiso   1.00
O526   O     0.84118   0.82546   0.34968   0.00000  Uiso   1.00
O527   O     0.89606   0.87003   0.38683   0.00000  Uiso   1.00
O528   O     0.69086   0.86248   0.19983   0.00000  Uiso   1.00
O529   O     0.84597   0.74686   0.28214   0.00000  Uiso   1.00
O530   O     0.81298   0.92751   0.27014   0.00000  Uiso   1.00
O531   O     0.74078   0.79958   0.23413   0.00000  Uiso   1.00
O532   O     0.93360   0.85939   0.21361   0.00000  Uiso   1.00
O533   O     0.73738   0.85544   0.28213   0.00000  Uiso   1.00
O534   O     0.92158   0.81892   0.27014   0.00000  Uiso   1.00
O535   O     0.80426   0.73610   0.23413   0.00000  Uiso   1.00
O536   O     0.87012   0.92286   0.21361   0.00000  Uiso   1.00
Zn537  Zn    0.86005   0.80661   0.28734   0.00000  Uiso   1.00
Zn538  Zn    0.80046   0.79124   0.21876   0.00000  Uiso   1.00
Zn539  Zn    0.87723   0.86442   0.20657   0.00000  Uiso   1.00
Zn540  Zn    0.79560   0.87106   0.28734   0.00000  Uiso   1.00
C541   C     0.05269   0.15945   0.76050   0.00000  Uiso   1.00
C542   C     0.16581   0.15327   0.55944   0.00000  Uiso   1.00
C543   C     0.23574   0.13434   0.55627   0.00000  Uiso   1.00
C544   C     0.28102   0.17375   0.73962   0.00000  Uiso   1.00
C545   C     0.13762   0.18855   0.92020   0.00000  Uiso   1.00
C546   C     0.32749   0.17591   0.73438   0.00000  Uiso   1.00
C547   C     0.00749   0.15788   0.76405   0.00000  Uiso   1.00
C548   C     0.18068   0.32259   0.73621   0.00000  Uiso   1.00
C549   C     0.15216   0.01176   0.76390   0.00000  Uiso   1.00
C550   C     0.15632   0.05590   0.76011   0.00000  Uiso   1.00
C551   C     0.17668   0.27798   0.74007   0.00000  Uiso   1.00
C552   C     0.07765   0.18047   0.98558   0.00000  Uiso   1.00
C553   C     0.18556   0.14845   0.62932   0.00000  Uiso   1.00
C554   C     0.14905   0.18511   0.87083   0.00000  Uiso   1.00
C555   C     0.24871   0.13932   0.51057   0.00000  Uiso   1.00
C556   C     0.19476   0.14256   0.58086   0.00000  Uiso   1.00
C557   C     0.09473   0.19247   0.94228   0.00000  Uiso   1.00
C558   C     0.07691   0.09718   0.53820   0.00000  Uiso   1.00
C559   C     0.10292   0.16427   0.50794   0.00000  Uiso   1.00
C560   C     0.14846   0.16663   0.98923   0.00000  Uiso   1.00
C561   C     0.16587   0.17930   0.94453   0.00000  Uiso   1.00
C562   C     0.17726   0.15624   0.51265   0.00000  Uiso   1.00
C563   C     0.22057   0.15222   0.98912   0.00000  Uiso   1.00
C564   C     0.23680   0.16503   0.94586   0.00000  Uiso   1.00
C565   C     0.21089   0.18201   0.92498   0.00000  Uiso   1.00
H566   H     0.25861   0.12687   0.57300   0.00000  Uiso   1.00
H567   H     0.05267   0.15254   0.56443   0.00000  Uiso   1.00
H568   H     0.06188   0.08242   0.57030   0.00000  Uiso   1.00
H569   H     0.10889   0.08631   0.52371   0.00000  Uiso   1.00
H570   H     0.05624   0.08719   0.51482   0.00000  Uiso   1.00
H571   H     0.26088   0.20238   0.87789   0.00000  Uiso   1.00
H572   H     0.00904   0.20667   0.68063   0.00000  Uiso   1.00
H573   H     0.31849   0.14267   0.79220   0.00000  Uiso   1.00
H574   H     0.20703   0.00388   0.71067   0.00000  Uiso   1.00
H575   H     0.12551   0.33123   0.78961   0.00000  Uiso   1.00
H576   H     0.27073   0.16487   0.92956   0.00000  Uiso   1.00
H577   H     0.28158   0.13553   0.99254   0.00000  Uiso   1.00
H578   H     0.13655   0.16356   0.58064   0.00000  Uiso   1.00
H579   H     0.07300   0.20050   0.92444   0.00000  Uiso   1.00
H580   H     0.04339   0.17997   0.50020   0.00000  Uiso   1.00
N581   N     0.08121   0.14206   0.54646   0.00000  Uiso   1.00
O582   O     0.16667   0.16667   0.75000   0.00000  Uiso   1.00
O583   O     0.15451   0.12637   0.65459   0.00000  Uiso   1.00
O584   O     0.12940   0.20391   0.84968   0.00000  Uiso   1.00
O585   O     0.20824   0.17759   0.64606   0.00000  Uiso   1.00
O586   O     0.17451   0.15880   0.84968   0.00000  Uiso   1.00
O587   O     0.22939   0.20336   0.88683   0.00000  Uiso   1.00
O588   O     0.02420   0.19581   0.69983   0.00000  Uiso   1.00
O589   O     0.17930   0.08019   0.78214   0.00000  Uiso   1.00
O590   O     0.14632   0.26085   0.77014   0.00000  Uiso   1.00
O591   O     0.07412   0.13291   0.73413   0.00000  Uiso   1.00
O592   O     0.26693   0.19272   0.71361   0.00000  Uiso   1.00
O593   O     0.07071   0.18878   0.78213   0.00000  Uiso   1.00
O594   O     0.25491   0.15226   0.77014   0.00000  Uiso   1.00
O595   O     0.13760   0.06944   0.73413   0.00000  Uiso   1.00
O596   O     0.20345   0.25620   0.71361   0.00000  Uiso   1.00
Zn597  Zn    0.19338   0.13994   0.78734   0.00000  Uiso   1.00
Zn598  Zn    0.13379   0.12458   0.71876   0.00000  Uiso   1.00
Zn599  Zn    0.21056   0.19775   0.70657   0.00000  Uiso   1.00
Zn600  Zn    0.12893   0.20439   0.78734   0.00000  Uiso   1.00
C601   C     0.38602   0.15945   0.76050   0.00000  Uiso   1.00
C602   C     0.49914   0.15327   0.55944   0.00000  Uiso   1.00
C603   C     0.56907   0.13434   0.55627   0.00000  Uiso   1.00
C604   C     0.61435   0.17375   0.73962   0.00000  Uiso   1.00
C605   C     0.47095   0.18855   0.92020   0.00000  Uiso   1.00
C606   C     0.66082   0.17591   0.73438   0.00000  Uiso   1.00
C607   C     0.34083   0.15788   0.76405   0.00000  Uiso   1.00
C608   C     0.51401   0.32259   0.73621   0.00000  Uiso   1.00
C609   C     0.48549   0.01176   0.76390   0.00000  Uiso   1.00
C610   C     0.48965   0.05590   0.76011   0.00000  Uiso   1.00
C611   C     0.51002   0.27798   0.74007   0.00000  Uiso   1.00
C612   C     0.41098   0.18047   0.98558   0.00000  Uiso   1.00
C613   C     0.51889   0.14845   0.62932   0.00000  Uiso   1.00
C614   C     0.48238   0.18511   0.87083   0.00000  Uiso   1.00
C615   C     0.58205   0.13932   0.51057   0.00000  Uiso   1.00
C616   C     0.52810   0.14256   0.58086   0.00000  Uiso   1.00
C617   C     0.42806   0.19247   0.94228   0.00000  Uiso   1.00
C618   C     0.41025   0.09718   0.53820   0.00000  Uiso   1.00
C619   C     0.43625   0.16427   0.50794   0.00000  Uiso   1.00
C620   C     0.48179   0.16663   0.98923   0.00000  Uiso   1.00
C621   C     0.49920   0.17930   0.94453   0.00000  Uiso   1.00
C622   C     0.51060   0.15624   0.51265   0.00000  Uiso   1.00
C623   C     0.55390   0.15222   0.98912   0.00000  Uiso   1.00
C624   C     0.57013   0.16503   0.94586   0.00000  Uiso   1.00
C625   C     0.54422   0.18201   0.92498   0.00000  Uiso   1.00
H626   H     0.59194   0.12687   0.57300   0.00000  Uiso   1.00
H627   H     0.38600   0.15254   0.56443   0.00000  Uiso   1.00
H628   H     0.39522   0.08242   0.57030   0.00000  Uiso   1.00
H629   H     0.44222   0.08631   0.52371   0.00000  Uiso   1.00
H630   H     0.38957   0.08719   0.51482   0.00000  Uiso   1.00
H631   H     0.59421   0.20238   0.87789   0.00000  Uiso   1.00
H632   H     0.34237   0.20667   0.68063   0.00000  Uiso   1.00
H633   H     0.65182   0.14267   0.79220   0.00000  Uiso   1.00
H634   H     0.54037   0.00388   0.71067   0.00000  Uiso   1.00
H635   H     0.45884   0.33123   0.78961   0.00000  Uiso   1.00
H636   H     0.60406   0.16487   0.92956   0.00000  Uiso   1.00
H637   H     0.61492   0.13553   0.99254   0.00000  Uiso   1.00
H638   H     0.46988   0.16356   0.58064   0.00000  Uiso   1.00
H639   H     0.40633   0.20050   0.92444   0.00000  Uiso   1.00
H640   H     0.37672   0.17997   0.50020   0.00000  Uiso   1.00
N641   N     0.41455   0.14206   0.54646   0.00000  Uiso   1.00
O642   O     0.50000   0.16667   0.75000   0.00000  Uiso   1.00
O643   O     0.48784   0.12637   0.65459   0.00000  Uiso   1.00
O644   O     0.46274   0.20391   0.84968   0.00000  Uiso   1.00
O645   O     0.54157   0.17759   0.64606   0.00000  Uiso   1.00
O646   O     0.50785   0.15880   0.84968   0.00000  Uiso   1.00
O647   O     0.56273   0.20336   0.88683   0.00000  Uiso   1.00
O648   O     0.35753   0.19581   0.69983   0.00000  Uiso   1.00
O649   O     0.51264   0.08019   0.78214   0.00000  Uiso   1.00
O650   O     0.47965   0.26085   0.77014   0.00000  Uiso   1.00
O651   O     0.40745   0.13291   0.73413   0.00000  Uiso   1.00
O652   O     0.60026   0.19272   0.71361   0.00000  Uiso   1.00
O653   O     0.40405   0.18878   0.78213   0.00000  Uiso   1.00
O654   O     0.58824   0.15226   0.77014   0.00000  Uiso   1.00
O655   O     0.47093   0.06944   0.73413   0.00000  Uiso   1.00
O656   O     0.53678   0.25620   0.71361   0.00000  Uiso   1.00
Zn657  Zn    0.52672   0.13994   0.78734   0.00000  Uiso   1.00
Zn658  Zn    0.46713   0.12458   0.71876   0.00000  Uiso   1.00
Zn659  Zn    0.54389   0.19775   0.70657   0.00000  Uiso   1.00
Zn660  Zn    0.46226   0.20439   0.78734   0.00000  Uiso   1.00
C661   C     0.71935   0.15945   0.76050   0.00000  Uiso   1.00
C662   C     0.83247   0.15327   0.55944   0.00000  Uiso   1.00
C663   C     0.90241   0.13434   0.55627   0.00000  Uiso   1.00
C664   C     0.94769   0.17375   0.73962   0.00000  Uiso   1.00
C665   C     0.80428   0.18855   0.92020   0.00000  Uiso   1.00
C666   C     0.99415   0.17591   0.73438   0.00000  Uiso   1.00
C667   C     0.67416   0.15788   0.76405   0.00000  Uiso   1.00
C668   C     0.84735   0.32259   0.73621   0.00000  Uiso   1.00
C669   C     0.81883   0.01176   0.76390   0.00000  Uiso   1.00
C670   C     0.82298   0.05590   0.76011   0.00000  Uiso   1.00
C671   C     0.84335   0.27798   0.74007   0.00000  Uiso   1.00
C672   C     0.74431   0.18047   0.98558   0.00000  Uiso   1.00
C673   C     0.85223   0.14845   0.62932   0.00000  Uiso   1.00
C674   C     0.81572   0.18511   0.87083   0.00000  Uiso   1.00
C675   C     0.91538   0.13932   0.51057   0.00000  Uiso   1.00
C676   C     0.86143   0.14256   0.58086   0.00000  Uiso   1.00
C677   C     0.76139   0.19247   0.94228   0.00000  Uiso   1.00
C678   C     0.74358   0.09718   0.53820   0.00000  Uiso   1.00
C679   C     0.76958   0.16427   0.50794   0.00000  Uiso   1.00
C680   C     0.81512   0.16663   0.98923   0.00000  Uiso   1.00
C681   C     0.83253   0.17930   0.94453   0.00000  Uiso   1.00
C682   C     0.84393   0.15624   0.51265   0.00000  Uiso   1.00
C683   C     0.88723   0.15222   0.98912   0.00000  Uiso   1.00
C684   C     0.90346   0.16503   0.94586   0.00000  Uiso   1.00
C685   C     0.87756   0.18201   0.92498   0.00000  Uiso   1.00
H686   H     0.92527   0.12687   0.57300   0.00000  Uiso   1.00
H687   H     0.71934   0.15254   0.56443   0.00000  Uiso   1.00
H688   H     0.72855   0.08242   0.57030   0.00000  Uiso   1.00
H689   H     0.77555   0.08631   0.52371   0.00000  Uiso   1.00
H690   H     0.72291   0.08719   0.51482   0.00000  Uiso   1.00
H691   H     0.92755   0.20238   0.87789   0.00000  Uiso   1.00
H692   H     0.67571   0.20667   0.68063   0.00000  Uiso   1.00
H693   H     0.98515   0.14267   0.79220   0.00000  Uiso   1.00
H694   H     0.87370   0.00388   0.71067   0.00000  Uiso   1.00
H695   H     0.79217   0.33123   0.78961   0.00000  Uiso   1.00
H696   H     0.93740   0.16487   0.92956   0.00000  Uiso   1.00
H697   H     0.94825   0.13553   0.99254   0.00000  Uiso   1.00
H698   H     0.80322   0.16356   0.58064   0.00000  Uiso   1.00
H699   H     0.73967   0.20050   0.92444   0.00000  Uiso   1.00
H700   H     0.71005   0.17997   0.50020   0.00000  Uiso   1.00
N701   N     0.74788   0.14206   0.54646   0.00000  Uiso   1.00
O702   O     0.83333   0.16667   0.75000   0.00000  Uiso   1.00
O703   O     0.82118   0.12637   0.65459   0.00000  Uiso   1.00
O704   O     0.79607   0.20391   0.84968   0.00000  Uiso   1.00
O705   O     0.87491   0.17759   0.64606   0.00000  Uiso   1.00
O706   O     0.84118   0.15880   0.84968   0.00000  Uiso   1.00
O707   O     0.89606   0.20336   0.88683   0.00000  Uiso   1.00
O708   O     0.69086   0.19581   0.69983   0.00000  Uiso   1.00
O709   O     0.84597   0.08019   0.78214   0.00000  Uiso   1.00
O710   O     0.81298   0.26085   0.77014   0.00000  Uiso   1.00
O711   O     0.74078   0.13291   0.73413   0.00000  Uiso   1.00
O712   O     0.93360   0.19272   0.71361   0.00000  Uiso   1.00
O713   O     0.73738   0.18878   0.78213   0.00000  Uiso   1.00
O714   O     0.92158   0.15226   0.77014   0.00000  Uiso   1.00
O715   O     0.80426   0.06944   0.73413   0.00000  Uiso   1.00
O716   O     0.87012   0.25620   0.71361   0.00000  Uiso   1.00
Zn717  Zn    0.86005   0.13994   0.78734   0.00000  Uiso   1.00
Zn718  Zn    0.80046   0.12458   0.71876   0.00000  Uiso   1.00
Zn719  Zn    0.87723   0.19775   0.70657   0.00000  Uiso   1.00
Zn720  Zn    0.79560   0.20439   0.78734   0.00000  Uiso   1.00
C721   C     0.05269   0.49279   0.76050   0.00000  Uiso   1.00
C722   C     0.16581   0.48660   0.55944   0.00000  Uiso   1.00
C723   C     0.23574   0.46768   0.55627   0.00000  Uiso   1.00
C724   C     0.28102   0.50708   0.73962   0.00000  Uiso   1.00
C725   C     0.13762   0.52189   0.92020   0.00000  Uiso   1.00
C726   C     0.32749   0.50924   0.73438   0.00000  Uiso   1.00
C727   C     0.00749   0.49121   0.76405   0.00000  Uiso   1.00
C728   C     0.18068   0.65592   0.73621   0.00000  Uiso   1.00
C729   C     0.15216   0.34510   0.76390   0.00000  Uiso   1.00
C730   C     0.15632   0.38923   0.76011   0.00000  Uiso   1.00
C731   C     0.17668   0.61131   0.74007   0.00000  Uiso   1.00
C732   C     0.07765   0.51380   0.98558   0.00000  Uiso   1.00
C733   C     0.18556   0.48179   0.62932   0.00000  Uiso   1.00
C734   C     0.14905   0.51844   0.87083   0.00000  Uiso   1.00
C735   C     0.24871   0.47265   0.51057   0.00000  Uiso   1.00
C736   C     0.19476   0.47590   0.58086   0.00000  Uiso   1.00
C737   C     0.09473   0.52580   0.94228   0.00000  Uiso   1.00
C738   C     0.07691   0.43052   0.53820   0.00000  Uiso   1.00
C739   C     0.10292   0.49760   0.50794   0.00000  Uiso   1.00
C740   C     0.14846   0.49997   0.98923   0.00000  Uiso   1.00
C741   C     0.16587   0.51263   0.94453   0.00000  Uiso   1.00
C742   C     0.17726   0.48957   0.51265   0.00000  Uiso   1.00
C743   C     0.22057   0.48555   0.98912   0.00000  Uiso   1.00
C744   C     0.23680   0.49836   0.94586   0.00000  Uiso   1.00
C745   C     0.21089   0.51534   0.92498   0.00000  Uiso   1.00
H746   H     0.25861   0.46020   0.57300   0.00000  Uiso   1.00
H747   H     0.05267   0.48588   0.56443   0.00000  Uiso   1.00
H748   H     0.06188   0.41576   0.57030   0.00000  Uiso   1.00
H749   H     0.10889   0.41965   0.52371   0.00000  Uiso   1.00
H750   H     0.05624   0.42053   0.51482   0.00000  Uiso   1.00
H751   H     0.26088   0.53572   0.87789   0.00000  Uiso   1.00
H752   H     0.00904   0.54000   0.68063   0.00000  Uiso   1.00
H753   H     0.31849   0.47601   0.79220   0.00000  Uiso   1.00
H754   H     0.20703   0.33721   0.71067   0.00000  Uiso   1.00
H755   H     0.12551   0.66456   0.78961   0.00000  Uiso   1.00
H756   H     0.27073   0.49821   0.92956   0.00000  Uiso   1.00
H757   H     0.28158   0.46886   0.99254   0.00000  Uiso   1.00
H758   H     0.13655   0.49689   0.58064   0.00000  Uiso   1.00
H759   H     0.07300   0.53383   0.92444   0.00000  Uiso   1.00
H760   H     0.04339   0.51330   0.50020   0.00000  Uiso   1.00
N761   N     0.08121   0.47539   0.54646   0.00000  Uiso   1.00
O762   O     0.16667   0.50000   0.75000   0.00000  Uiso   1.00
O763   O     0.15451   0.45970   0.65459   0.00000  Uiso   1.00
O764   O     0.12940   0.53724   0.84968   0.00000  Uiso   1.00
O765   O     0.20824   0.51092   0.64606   0.00000  Uiso   1.00
O766   O     0.17451   0.49213   0.84968   0.00000  Uiso   1.00
O767   O     0.22939   0.53670   0.88683   0.00000  Uiso   1.00
O768   O     0.02420   0.52915   0.69983   0.00000  Uiso   1.00
O769   O     0.17930   0.41352   0.78214   0.00000  Uiso   1.00
O770   O     0.14632   0.59418   0.77014   0.00000  Uiso   1.00
O771   O     0.07412   0.46625   0.73413   0.00000  Uiso   1.00
O772   O     0.26693   0.52605   0.71361   0.00000  Uiso   1.00
O773   O     0.07071   0.52211   0.78213   0.00000  Uiso   1.00
O774   O     0.25491   0.48559   0.77014   0.00000  Uiso   1.00
O775   O     0.13760   0.40277   0.73413   0.00000  Uiso   1.00
O776   O     0.20345   0.58953   0.71361   0.00000  Uiso   1.00
Zn777  Zn    0.19338   0.47327   0.78734   0.00000  Uiso   1.00
Zn778  Zn    0.13379   0.45791   0.71876   0.00000  Uiso   1.00
Zn779  Zn    0.21056   0.53109   0.70657   0.00000  Uiso   1.00
Zn780  Zn    0.12893   0.53773   0.78734   0.00000  Uiso   1.00
C781   C     0.38602   0.49279   0.76050   0.00000  Uiso   1.00
C782   C     0.49914   0.48660   0.55944   0.00000  Uiso   1.00
C783   C     0.56907   0.46768   0.55627   0.00000  Uiso   1.00
C784   C     0.61435   0.50708   0.73962   0.00000  Uiso   1.00
C785   C     0.47095   0.52189   0.92020   0.00000  Uiso   1.00
C786   C     0.66082   0.50924   0.73438   0.00000  Uiso   1.00
C787   C     0.34083   0.49121   0.76405   0.00000  Uiso   1.00
C788   C     0.51401   0.65592   0.73621   0.00000  Uiso   1.00
C789   C     0.48549   0.34510   0.76390   0.00000  Uiso   1.00
C790   C     0.48965   0.38923   0.76011   0.00000  Uiso   1.00
C791   C     0.51002   0.61131   0.74007   0.00000  Uiso   1.00
C792   C     0.41098   0.51380   0.98558   0.00000  Uiso   1.00
C793   C     0.51889   0.48179   0.62932   0.00000  Uiso   1.00
C794   C     0.48238   0.51844   0.87083   0.00000  Uiso   1.00
C795   C     0.58205   0.47265   0.51057   0.00000  Uiso   1.00
C796   C     0.52810   0.47590   0.58086   0.00000  Uiso   1.00
C797   C     0.42806   0.52580   0.94228   0.00000  Uiso   1.00
C798   C     0.41025   0.43052   0.53820   0.00000  Uiso   1.00
C799   C     0.43625   0.49760   0.50794   0.00000  Uiso   1.00
C800   C     0.48179   0.49997   0.98923   0.00000  Uiso   1.00
C801   C     0.49920   0.51263   0.94453   0.00000  Uiso   1.00
C802   C     0.51060   0.48957   0.51265   0.00000  Uiso   1.00
C803   C     0.55390   0.48555   0.98912   0.00000  Uiso   1.00
C804   C     0.57013   0.49836   0.94586   0.00000  Uiso   1.00
C805   C     0.54422   0.51534   0.92498   0.00000  Uiso   1.00
H806   H     0.59194   0.46020   0.57300   0.00000  Uiso   1.00
H807   H     0.38600   0.48588   0.56443   0.00000  Uiso   1.00
H808   H     0.39522   0.41576   0.57030   0.00000  Uiso   1.00
H809   H     0.44222   0.41965   0.52371   0.00000  Uiso   1.00
H810   H     0.38957   0.42053   0.51482   0.00000  Uiso   1.00
H811   H     0.59421   0.53572   0.87789   0.00000  Uiso   1.00
H812   H     0.34237   0.54000   0.68063   0.00000  Uiso   1.00
H813   H     0.65182   0.47601   0.79220   0.00000  Uiso   1.00
H814   H     0.54037   0.33721   0.71067   0.00000  Uiso   1.00
H815   H     0.45884   0.66456   0.78961   0.00000  Uiso   1.00
H816   H     0.60406   0.49821   0.92956   0.00000  Uiso   1.00
H817   H     0.61492   0.46886   0.99254   0.00000  Uiso   1.00
H818   H     0.46988   0.49689   0.58064   0.00000  Uiso   1.00
H819   H     0.40633   0.53383   0.92444   0.00000  Uiso   1.00
H820   H     0.37672   0.51330   0.50020   0.00000  Uiso   1.00
N821   N     0.41455   0.47539   0.54646   0.00000  Uiso   1.00
O822   O     0.50000   0.50000   0.75000   0.00000  Uiso   1.00
O823   O     0.48784   0.45970   0.65459   0.00000  Uiso   1.00
O824   O     0.46274   0.53724   0.84968   0.00000  Uiso   1.00
O825   O     0.54157   0.51092   0.64606   0.00000  Uiso   1.00
O826   O     0.50785   0.49213   0.84968   0.00000  Uiso   1.00
O827   O     0.56273   0.53670   0.88683   0.00000  Uiso   1.00
O828   O     0.35753   0.52915   0.69983   0.00000  Uiso   1.00
O829   O     0.51264   0.41352   0.78214   0.00000  Uiso   1.00
O830   O     0.47965   0.59418   0.77014   0.00000  Uiso   1.00
O831   O     0.40745   0.46625   0.73413   0.00000  Uiso   1.00
O832   O     0.60026   0.52605   0.71361   0.00000  Uiso   1.00
O833   O     0.40405   0.52211   0.78213   0.00000  Uiso   1.00
O834   O     0.58824   0.48559   0.77014   0.00000  Uiso   1.00
O835   O     0.47093   0.40277   0.73413   0.00000  Uiso   1.00
O836   O     0.53678   0.58953   0.71361   0.00000  Uiso   1.00
Zn837  Zn    0.52672   0.47327   0.78734   0.00000  Uiso   1.00
Zn838  Zn    0.46713   0.45791   0.71876   0.00000  Uiso   1.00
Zn839  Zn    0.54389   0.53109   0.70657   0.00000  Uiso   1.00
Zn840  Zn    0.46226   0.53773   0.78734   0.00000  Uiso   1.00
C841   C     0.71935   0.49279   0.76050   0.00000  Uiso   1.00
C842   C     0.83247   0.48660   0.55944   0.00000  Uiso   1.00
C843   C     0.90241   0.46768   0.55627   0.00000  Uiso   1.00
C844   C     0.94769   0.50708   0.73962   0.00000  Uiso   1.00
C845   C     0.80428   0.52189   0.92020   0.00000  Uiso   1.00
C846   C     0.99415   0.50924   0.73438   0.00000  Uiso   1.00
C847   C     0.67416   0.49121   0.76405   0.00000  Uiso   1.00
C848   C     0.84735   0.65592   0.73621   0.00000  Uiso   1.00
C849   C     0.81883   0.34510   0.76390   0.00000  Uiso   1.00
C850   C     0.82298   0.38923   0.76011   0.00000  Uiso   1.00
C851   C     0.84335   0.61131   0.74007   0.00000  Uiso   1.00
C852   C     0.74431   0.51380   0.98558   0.00000  Uiso   1.00
C853   C     0.85223   0.48179   0.62932   0.00000  Uiso   1.00
C854   C     0.81572   0.51844   0.87083   0.00000  Uiso   1.00
C855   C     0.91538   0.47265   0.51057   0.00000  Uiso   1.00
C856   C     0.86143   0.47590   0.58086   0.00000  Uiso   1.00
C857   C     0.76139   0.52580   0.94228   0.00000  Uiso   1.00
C858   C     0.74358   0.43052   0.53820   0.00000  Uiso   1.00
C859   C     0.76958   0.49760   0.50794   0.00000  Uiso   1.00
C860   C     0.81512   0.49997   0.98923   0.00000  Uiso   1.00
C861   C     0.83253   0.51263   0.94453   0.00000  Uiso   1.00
C862   C     0.84393   0.48957   0.51265   0.00000  Uiso   1.00
C863   C     0.88723   0.48555   0.98912   0.00000  Uiso   1.00
C864   C     0.90346   0.49836   0.94586   0.00000  Uiso   1.00
C865   C     0.87756   0.51534   0.92498   0.00000  Uiso   1.00
H866   H     0.92527   0.46020   0.57300   0.00000  Uiso   1.00
H867   H     0.71934   0.48588   0.56443   0.00000  Uiso   1.00
H868   H     0.72855   0.41576   0.57030   0.00000  Uiso   1.00
H869   H     0.77555   0.41965   0.52371   0.00000  Uiso   1.00
H870   H     0.72291   0.42053   0.51482   0.00000  Uiso   1.00
H871   H     0.92755   0.53572   0.87789   0.00000  Uiso   1.00
H872   H     0.67571   0.54000   0.68063   0.00000  Uiso   1.00
H873   H     0.98515   0.47601   0.79220   0.00000  Uiso   1.00
H874   H     0.87370   0.33721   0.71067   0.00000  Uiso   1.00
H875   H     0.79217   0.66456   0.78961   0.00000  Uiso   1.00
H876   H     0.93740   0.49821   0.92956   0.00000  Uiso   1.00
H877   H     0.94825   0.46886   0.99254   0.00000  Uiso   1.00
H878   H     0.80322   0.49689   0.58064   0.00000  Uiso   1.00
H879   H     0.73967   0.53383   0.92444   0.00000  Uiso   1.00
H880   H     0.71005   0.51330   0.50020   0.00000  Uiso   1.00
N881   N     0.74788   0.47539   0.54646   0.00000  Uiso   1.00
O882   O     0.83333   0.50000   0.75000   0.00000  Uiso   1.00
O883   O     0.82118   0.45970   0.65459   0.00000  Uiso   1.00
O884   O     0.79607   0.53724   0.84968   0.00000  Uiso   1.00
O885   O     0.87491   0.51092   0.64606   0.00000  Uiso   1.00
O886   O     0.84118   0.49213   0.84968   0.00000  Uiso   1.00
O887   O     0.89606   0.53670   0.88683   0.00000  Uiso   1.00
O888   O     0.69086   0.52915   0.69983   0.00000  Uiso   1.00
O889   O     0.84597   0.41352   0.78214   0.00000  Uiso   1.00
O890   O     0.81298   0.59418   0.77014   0.00000  Uiso   1.00
O891   O     0.74078   0.46625   0.73413   0.00000  Uiso   1.00
O892   O     0.93360   0.52605   0.71361   0.00000  Uiso   1.00
O893   O     0.73738   0.52211   0.78213   0.00000  Uiso   1.00
O894   O     0.92158   0.48559   0.77014   0.00000  Uiso   1.00
O895   O     0.80426   0.40277   0.73413   0.00000  Uiso   1.00
O896   O     0.87012   0.58953   0.71361   0.00000  Uiso   1.00
Zn897  Zn    0.86005   0.47327   0.78734   0.00000  Uiso   1.00
Zn898  Zn    0.80046   0.45791   0.71876   0.00000  Uiso   1.00
Zn899  Zn    0.87723   0.53109   0.70657   0.00000  Uiso   1.00
Zn900  Zn    0.79560   0.53773   0.78734   0.00000  Uiso   1.00
C901   C     0.05269   0.82612   0.76050   0.00000  Uiso   1.00
C902   C     0.16581   0.81993   0.55944   0.00000  Uiso   1.00
C903   C     0.23574   0.80101   0.55627   0.00000  Uiso   1.00
C904   C     0.28102   0.84042   0.73962   0.00000  Uiso   1.00
C905   C     0.13762   0.85522   0.92020   0.00000  Uiso   1.00
C906   C     0.32749   0.84258   0.73438   0.00000  Uiso   1.00
C907   C     0.00749   0.82455   0.76405   0.00000  Uiso   1.00
C908   C     0.18068   0.98925   0.73621   0.00000  Uiso   1.00
C909   C     0.15216   0.67843   0.76390   0.00000  Uiso   1.00
C910   C     0.15632   0.72256   0.76011   0.00000  Uiso   1.00
C911   C     0.17668   0.94465   0.74007   0.00000  Uiso   1.00
C912   C     0.07765   0.84713   0.98558   0.00000  Uiso   1.00
C913   C     0.18556   0.81512   0.62932   0.00000  Uiso   1.00
C914   C     0.14905   0.85177   0.87083   0.00000  Uiso   1.00
C915   C     0.24871   0.80598   0.51057   0.00000  Uiso   1.00
C916   C     0.19476   0.80923   0.58086   0.00000  Uiso   1.00
C917   C     0.09473   0.85913   0.94228   0.00000  Uiso   1.00
C918   C     0.07691   0.76385   0.53820   0.00000  Uiso   1.00
C919   C     0.10292   0.83093   0.50794   0.00000  Uiso   1.00
C920   C     0.14846   0.83330   0.98923   0.00000  Uiso   1.00
C921   C     0.16587   0.84597   0.94453   0.00000  Uiso   1.00
C922   C     0.17726   0.82291   0.51265   0.00000  Uiso   1.00
C923   C     0.22057   0.81889   0.98912   0.00000  Uiso   1.00
C924   C     0.23680   0.83170   0.94586   0.00000  Uiso   1.00
C925   C     0.21089   0.84867   0.92498   0.00000  Uiso   1.00
H926   H     0.25861   0.79353   0.57300   0.00000  Uiso   1.00
H927   H     0.05267   0.81921   0.56443   0.00000  Uiso   1.00
H928   H     0.06188   0.74909   0.57030   0.00000  Uiso   1.00
H929   H     0.10889   0.75298   0.52371   0.00000  Uiso   1.00
H930   H     0.05624   0.75386   0.51482   0.00000  Uiso   1.00
H931   H     0.26088   0.86905   0.87789   0.00000  Uiso   1.00
H932   H     0.00904   0.87334   0.68063   0.00000  Uiso   1.00
H933   H     0.31849   0.80934   0.79220   0.00000  Uiso   1.00
H934   H     0.20703   0.67054   0.71067   0.00000  Uiso   1.00
H935   H     0.12551   0.99789   0.78961   0.00000  Uiso   1.00
H936   H     0.27073   0.83154   0.92956   0.00000  Uiso   1.00
H937   H     0.28158   0.80219   0.99254   0.00000  Uiso   1.00
H938   H     0.13655   0.83022   0.58064   0.00000  Uiso   1.00
H939   H     0.07300   0.86717   0.92444   0.00000  Uiso   1.00
H940   H     0.04339   0.84663   0.50020   0.00000  Uiso   1.00
N941   N     0.08121   0.80873   0.54646   0.00000  Uiso   1.00
O942   O     0.16667   0.83333   0.75000   0.00000  Uiso   1.00
O943   O     0.15451   0.79304   0.65459   0.00000  Uiso   1.00
O944   O     0.12940   0.87058   0.84968   0.00000  Uiso   1.00
O945   O     0.20824   0.84425   0.64606   0.00000  Uiso   1.00
O946   O     0.17451   0.82546   0.84968   0.00000  Uiso   1.00
O947   O     0.22939   0.87003   0.88683   0.00000  Uiso   1.00
O948   O     0.02420   0.86248   0.69983   0.00000  Uiso   1.00
O949   O     0.17930   0.74686   0.78214   0.00000  Uiso   1.00
O950   O     0.14632   0.92751   0.77014   0.00000  Uiso   1.00
O951   O     0.07412   0.79958   0.73413   0.00000  Uiso   1.00
O952   O     0.26693   0.85939   0.71361   0.00000  Uiso   1.00
O953   O     0.07071   0.85544   0.78213   0.00000  Uiso   1.00
O954   O     0.25491   0.81892   0.77014   0.00000  Uiso   1.00
O955   O     0.13760   0.73610   0.73413   0.00000  Uiso   1.00
O956   O     0.20345   0.92286   0.71361   0.00000  Uiso   1.00
Zn957  Zn    0.19338   0.80661   0.78734   0.00000  Uiso   1.00
Zn958  Zn    0.13379   0.79124   0.71876   0.00000  Uiso   1.00
Zn959  Zn    0.21056   0.86442   0.70657   0.00000  Uiso   1.00
Zn960  Zn    0.12893   0.87106   0.78734   0.00000  Uiso   1.00
C961   C     0.38602   0.82612   0.76050   0.00000  Uiso   1.00
C962   C     0.49914   0.81993   0.55944   0.00000  Uiso   1.00
C963   C     0.56907   0.80101   0.55627   0.00000  Uiso   1.00
C964   C     0.61435   0.84042   0.73962   0.00000  Uiso   1.00
C965   C     0.47095   0.85522   0.92020   0.00000  Uiso   1.00
C966   C     0.66082   0.84258   0.73438   0.00000  Uiso   1.00
C967   C     0.34083   0.82455   0.76405   0.00000  Uiso   1.00
C968   C     0.51401   0.98925   0.73621   0.00000  Uiso   1.00
C969   C     0.48549   0.67843   0.76390   0.00000  Uiso   1.00
C970   C     0.48965   0.72256   0.76011   0.00000  Uiso   1.00
C971   C     0.51002   0.94465   0.74007   0.00000  Uiso   1.00
C972   C     0.41098   0.84713   0.98558   0.00000  Uiso   1.00
C973   C     0.51889   0.81512   0.62932   0.00000  Uiso   1.00
C974   C     0.48238   0.85177   0.87083   0.00000  Uiso   1.00
C975   C     0.58205   0.80598   0.51057   0.00000  Uiso   1.00
C976   C     0.52810   0.80923   0.58086   0.00000  Uiso   1.00
C977   C     0.42806   0.85913   0.94228   0.00000  Uiso   1.00
C978   C     0.41025   0.76385   0.53820   0.00000  Uiso   1.00
C979   C     0.43625   0.83093   0.50794   0.00000  Uiso   1.00
C980   C     0.48179   0.83330   0.98923   0.00000  Uiso   1.00
C981   C     0.49920   0.84597   0.94453   0.00000  Uiso   1.00
C982   C     0.51060   0.82291   0.51265   0.00000  Uiso   1.00
C983   C     0.55390   0.81889   0.98912   0.00000  Uiso   1.00
C984   C     0.57013   0.83170   0.94586   0.00000  Uiso   1.00
C985   C     0.54422   0.84867   0.92498   0.00000  Uiso   1.00
H986   H     0.59194   0.79353   0.57300   0.00000  Uiso   1.00
H987   H     0.38600   0.81921   0.56443   0.00000  Uiso   1.00
H988   H     0.39522   0.74909   0.57030   0.00000  Uiso   1.00
H989   H     0.44222   0.75298   0.52371   0.00000  Uiso   1.00
H990   H     0.38957   0.75386   0.51482   0.00000  Uiso   1.00
H991   H     0.59421   0.86905   0.87789   0.00000  Uiso   1.00
H992   H     0.34237   0.87334   0.68063   0.00000  Uiso   1.00
H993   H     0.65182   0.80934   0.79220   0.00000  Uiso   1.00
H994   H     0.54037   0.67054   0.71067   0.00000  Uiso   1.00
H995   H     0.45884   0.99789   0.78961   0.00000  Uiso   1.00
H996   H     0.60406   0.83154   0.92956   0.00000  Uiso   1.00
H997   H     0.61492   0.80219   0.99254   0.00000  Uiso   1.00
H998   H     0.46988   0.83022   0.58064   0.00000  Uiso   1.00
H999   H     0.40633   0.86717   0.92444   0.00000  Uiso   1.00
H1000  H     0.37672   0.84663   0.50020   0.00000  Uiso   1.00
N1001  N     0.41455   0.80873   0.54646   0.00000  Uiso   1.00
O1002  O     0.50000   0.83333   0.75000   0.00000  Uiso   1.00
O1003  O     0.48784   0.79304   0.65459   0.00000  Uiso   1.00
O1004  O     0.46274   0.87058   0.84968   0.00000  Uiso   1.00
O1005  O     0.54157   0.84425   0.64606   0.00000  Uiso   1.00
O1006  O     0.50785   0.82546   0.84968   0.00000  Uiso   1.00
O1007  O     0.56273   0.87003   0.88683   0.00000  Uiso   1.00
O1008  O     0.35753   0.86248   0.69983   0.00000  Uiso   1.00
O1009  O     0.51264   0.74686   0.78214   0.00000  Uiso   1.00
O1010  O     0.47965   0.92751   0.77014   0.00000  Uiso   1.00
O1011  O     0.40745   0.79958   0.73413   0.00000  Uiso   1.00
O1012  O     0.60026   0.85939   0.71361   0.00000  Uiso   1.00
O1013  O     0.40405   0.85544   0.78213   0.00000  Uiso   1.00
O1014  O     0.58824   0.81892   0.77014   0.00000  Uiso   1.00
O1015  O     0.47093   0.73610   0.73413   0.00000  Uiso   1.00
O1016  O     0.53678   0.92286   0.71361   0.00000  Uiso   1.00
Zn1017 Zn    0.52672   0.80661   0.78734   0.00000  Uiso   1.00
Zn1018 Zn    0.46713   0.79124   0.71876   0.00000  Uiso   1.00
Zn1019 Zn    0.54389   0.86442   0.70657   0.00000  Uiso   1.00
Zn1020 Zn    0.46226   0.87106   0.78734   0.00000  Uiso   1.00
C1021  C     0.71935   0.82612   0.76050   0.00000  Uiso   1.00
C1022  C     0.83247   0.81993   0.55944   0.00000  Uiso   1.00
C1023  C     0.90241   0.80101   0.55627   0.00000  Uiso   1.00
C1024  C     0.94769   0.84042   0.73962   0.00000  Uiso   1.00
C1025  C     0.80428   0.85522   0.92020   0.00000  Uiso   1.00
C1026  C     0.99415   0.84258   0.73438   0.00000  Uiso   1.00
C1027  C     0.67416   0.82455   0.76405   0.00000  Uiso   1.00
C1028  C     0.84735   0.98925   0.73621   0.00000  Uiso   1.00
C1029  C     0.81883   0.67843   0.76390   0.00000  Uiso   1.00
C1030  C     0.82298   0.72256   0.76011   0.00000  Uiso   1.00
C1031  C     0.84335   0.94465   0.74007   0.00000  Uiso   1.00
C1032  C     0.74431   0.84713   0.98558   0.00000  Uiso   1.00
C1033  C     0.85223   0.81512   0.62932   0.00000  Uiso   1.00
C1034  C     0.81572   0.85177   0.87083   0.00000  Uiso   1.00
C1035  C     0.91538   0.80598   0.51057   0.00000  Uiso   1.00
C1036  C     0.86143   0.80923   0.58086   0.00000  Uiso   1.00
C1037  C     0.76139   0.85913   0.94228   0.00000  Uiso   1.00
C1038  C     0.74358   0.76385   0.53820   0.00000  Uiso   1.00
C1039  C     0.76958   0.83093   0.50794   0.00000  Uiso   1.00
C1040  C     0.81512   0.83330   0.98923   0.00000  Uiso   1.00
C1041  C     0.83253   0.84597   0.94453   0.00000  Uiso   1.00
C1042  C     0.84393   0.82291   0.51265   0.00000  Uiso   1.00
C1043  C     0.88723   0.81889   0.98912   0.00000  Uiso   1.00
C1044  C     0.90346   0.83170   0.94586   0.00000  Uiso   1.00
C1045  C     0.87756   0.84867   0.92498   0.00000  Uiso   1.00
H1046  H     0.92527   0.79353   0.57300   0.00000  Uiso   1.00
H1047  H     0.71934   0.81921   0.56443   0.00000  Uiso   1.00
H1048  H     0.72855   0.74909   0.57030   0.00000  Uiso   1.00
H1049  H     0.77555   0.75298   0.52371   0.00000  Uiso   1.00
H1050  H     0.72291   0.75386   0.51482   0.00000  Uiso   1.00
H1051  H     0.92755   0.86905   0.87789   0.00000  Uiso   1.00
H1052  H     0.67571   0.87334   0.68063   0.00000  Uiso   1.00
H1053  H     0.98515   0.80934   0.79220   0.00000  Uiso   1.00
H1054  H     0.87370   0.67054   0.71067   0.00000  Uiso   1.00
H1055  H     0.79217   0.99789   0.78961   0.00000  Uiso   1.00
H1056  H     0.93740   0.83154   0.92956   0.00000  Uiso   1.00
H1057  H     0.94825   0.80219   0.99254   0.00000  Uiso   1.00
H1058  H     0.80322   0.83022   0.58064   0.00000  Uiso   1.00
H1059  H     0.73967   0.86717   0.92444   0.00000  Uiso   1.00
H1060  H     0.71005   0.84663   0.50020   0.00000  Uiso   1.00
N1061  N     0.74788   0.80873   0.54646   0.00000  Uiso   1.00
O1062  O     0.83333   0.83333   0.75000   0.00000  Uiso   1.00
O1063  O     0.82118   0.79304   0.65459   0.00000  Uiso   1.00
O1064  O     0.79607   0.87058   0.84968   0.00000  Uiso   1.00
O1065  O     0.87491   0.84425   0.64606   0.00000  Uiso   1.00
O1066  O     0.84118   0.82546   0.84968   0.00000  Uiso   1.00
O1067  O     0.89606   0.87003   0.88683   0.00000  Uiso   1.00
O1068  O     0.69086   0.86248   0.69983   0.00000  Uiso   1.00
O1069  O     0.84597   0.74686   0.78214   0.00000  Uiso   1.00
O1070  O     0.81298   0.92751   0.77014   0.00000  Uiso   1.00
O1071  O     0.74078   0.79958   0.73413   0.00000  Uiso   1.00
O1072  O     0.93360   0.85939   0.71361   0.00000  Uiso   1.00
O1073  O     0.73738   0.85544   0.78213   0.00000  Uiso   1.00
O1074  O     0.92158   0.81892   0.77014   0.00000  Uiso   1.00
O1075  O     0.80426   0.73610   0.73413   0.00000  Uiso   1.00
O1076  O     0.87012   0.92286   0.71361   0.00000  Uiso   1.00
Zn1077 Zn    0.86005   0.80661   0.78734   0.00000  Uiso   1.00
Zn1078 Zn    0.80046   0.79124   0.71876   0.00000  Uiso   1.00
Zn1079 Zn    0.87723   0.86442   0.70657   0.00000  Uiso   1.00
Zn1080 Zn    0.79560   0.87106   0.78734   0.00000  Uiso   1.00
loop_
_geom_bond_atom_site_label_1
_geom_bond_atom_site_label_2
_geom_bond_distance
_geom_bond_site_symmetry_2
_ccdc_geom_bond_type
C1     O51     1.273   .     A
C1     O53     1.271   .     A
C1     C7      1.440   .     S
C2     C22     1.410   .     A
C2     C16     1.393   .     A
C2     H38     1.078   .     S
C3     C15     1.387   .     A
C3     H26     1.084   .     S
C3     C16     1.396   .     A
C4     O52     1.279   .     A
C4     C6      1.470   .     S
C4     O54     1.280   .     A
C5     C14     1.473   .     S
C5     C17     1.398   .     A
C5     C21     1.420   .     A
C6     C67     1.338   .     S
C6     O108    1.386   .     S
C7     C126    1.338   1_455 S
C7     H153    1.086   1_455 S
C8     C11     1.452   .     S
C8     C189    1.332   .     S
C8     H214    1.088   .     S
C9     C10     1.436   .     S
C9     C368    1.332   1_545 S
C9     H395    1.086   1_545 S
C10    O55     1.280   .     A
C10    O49     1.280   .     A
C11    O56     1.269   .     A
C11    O50     1.268   .     A
C12    C17     1.383   .     A
C12    C559    1.398   .     S
C12    H580    1.084   .     S
C13    C16     1.450   .     S
C13    O45     1.268   .     A
C13    O43     1.277   .     A
C14    O46     1.284   .     A
C14    O44     1.282   .     A
C15    C563    1.402   1_554 S
C15    H577    1.084   1_554 S
C17    H39     1.084   .     S
C18    H30     1.112   .     S
C18    N41     1.447   .     S
C18    H29     1.111   .     S
C18    H28     1.110   .     S
C19    N41     1.424   .     S
C19    C552    1.398   1_554 S
C19    C560    1.433   1_554 S
C20    C21     1.430   .     A
C20    C559    1.433   .     S
C20    C562    1.428   .     S
C21    C25     1.421   .     A
C22    C560    1.428   1_554 S
C22    C563    1.421   1_554 S
C23    C24     1.389   .     A
C23    C555    1.402   .     S
C23    C562    1.421   .     S
C24    C25     1.396   .     A
C24    H36     1.085   .     S
C25    O47     1.384   .     S
H27    N41     1.032   .     S
H31    O47     0.992   .     S
H32    O48     0.990   .     S
H33    C67     1.086   .     S
H34    C368    1.088   1_545 S
H35    C189    1.086   .     S
H37    C555    1.084   .     S
H40    C552    1.084   1_554 S
O42    Zn59    1.925   .     S
O42    Zn58    1.951   .     S
O42    Zn57    1.961   .     S
O42    Zn60    1.932   .     S
O43    Zn58    1.928   .     S
O44    Zn60    1.943   .     S
O45    Zn59    1.941   .     S
O46    Zn57    1.928   .     S
O48    C126    1.386   1_455 S
O49    Zn57    1.928   .     S
O50    Zn60    1.927   .     S
O51    Zn58    1.925   .     S
O52    Zn59    1.939   .     S
O53    Zn60    1.935   .     S
O54    Zn57    1.921   .     S
O55    Zn58    1.934   .     S
O56    Zn59    1.931   .     S
C61    O111    1.273   .     A
C61    O113    1.271   .     A
C61    C67     1.440   .     S
C62    C82     1.410   .     A
C62    C76     1.393   .     A
C62    H98     1.078   .     S
C63    C75     1.387   .     A
C63    H86     1.084   .     S
C63    C76     1.396   .     A
C64    O112    1.279   .     A
C64    C66     1.470   .     S
C64    O114    1.280   .     A
C65    C74     1.473   .     S
C65    C77     1.398   .     A
C65    C81     1.420   .     A
C66    C127    1.338   .     S
C66    O168    1.386   .     S
C68    C71     1.452   .     S
C68    C249    1.332   .     S
C68    H274    1.088   .     S
C69    C70     1.436   .     S
C69    C428    1.332   1_545 S
C69    H455    1.086   1_545 S
C70    O115    1.280   .     A
C70    O109    1.280   .     A
C71    O116    1.269   .     A
C71    O110    1.268   .     A
C72    C77     1.383   .     A
C72    C619    1.398   .     S
C72    H640    1.084   .     S
C73    C76     1.450   .     S
C73    O105    1.268   .     A
C73    O103    1.277   .     A
C74    O106    1.284   .     A
C74    O104    1.282   .     A
C75    C623    1.402   1_554 S
C75    H637    1.084   1_554 S
C77    H99     1.084   .     S
C78    H90     1.112   .     S
C78    N101    1.447   .     S
C78    H89     1.111   .     S
C78    H88     1.110   .     S
C79    N101    1.424   .     S
C79    C612    1.398   1_554 S
C79    C620    1.433   1_554 S
C80    C81     1.430   .     A
C80    C619    1.433   .     S
C80    C622    1.428   .     S
C81    C85     1.421   .     A
C82    C620    1.428   1_554 S
C82    C623    1.421   1_554 S
C83    C84     1.389   .     A
C83    C615    1.402   .     S
C83    C622    1.421   .     S
C84    C85     1.396   .     A
C84    H96     1.085   .     S
C85    O107    1.384   .     S
H87    N101    1.032   .     S
H91    O107    0.992   .     S
H92    O108    0.990   .     S
H93    C127    1.086   .     S
H94    C428    1.088   1_545 S
H95    C249    1.086   .     S
H97    C615    1.084   .     S
H100   C612    1.084   1_554 S
O102   Zn119   1.925   .     S
O102   Zn118   1.951   .     S
O102   Zn117   1.961   .     S
O102   Zn120   1.932   .     S
O103   Zn118   1.928   .     S
O104   Zn120   1.943   .     S
O105   Zn119   1.941   .     S
O106   Zn117   1.928   .     S
O109   Zn117   1.928   .     S
O110   Zn120   1.927   .     S
O111   Zn118   1.925   .     S
O112   Zn119   1.939   .     S
O113   Zn120   1.935   .     S
O114   Zn117   1.921   .     S
O115   Zn118   1.934   .     S
O116   Zn119   1.931   .     S
C121   O171    1.273   .     A
C121   O173    1.271   .     A
C121   C127    1.440   .     S
C122   C142    1.410   .     A
C122   C136    1.393   .     A
C122   H158    1.078   .     S
C123   C135    1.387   .     A
C123   H146    1.084   .     S
C123   C136    1.396   .     A
C124   O172    1.279   .     A
C124   C126    1.470   .     S
C124   O174    1.280   .     A
C125   C134    1.473   .     S
C125   C137    1.398   .     A
C125   C141    1.420   .     A
C126   C7      1.338   1_655 S
C126   O48     1.386   1_655 S
C128   C131    1.452   .     S
C128   C309    1.332   .     S
C128   H334    1.088   .     S
C129   C130    1.436   .     S
C129   C488    1.332   1_545 S
C129   H515    1.086   1_545 S
C130   O175    1.280   .     A
C130   O169    1.280   .     A
C131   O176    1.269   .     A
C131   O170    1.268   .     A
C132   C137    1.383   .     A
C132   C679    1.398   .     S
C132   H700    1.084   .     S
C133   C136    1.450   .     S
C133   O165    1.268   .     A
C133   O163    1.277   .     A
C134   O166    1.284   .     A
C134   O164    1.282   .     A
C135   C683    1.402   1_554 S
C135   H697    1.084   1_554 S
C137   H159    1.084   .     S
C138   H150    1.112   .     S
C138   N161    1.447   .     S
C138   H149    1.111   .     S
C138   H148    1.110   .     S
C139   N161    1.424   .     S
C139   C672    1.398   1_554 S
C139   C680    1.433   1_554 S
C140   C141    1.430   .     A
C140   C679    1.433   .     S
C140   C682    1.428   .     S
C141   C145    1.421   .     A
C142   C680    1.428   1_554 S
C142   C683    1.421   1_554 S
C143   C144    1.389   .     A
C143   C675    1.402   .     S
C143   C682    1.421   .     S
C144   C145    1.396   .     A
C144   H156    1.085   .     S
C145   O167    1.384   .     S
H147   N161    1.032   .     S
H151   O167    0.992   .     S
H152   O168    0.990   .     S
H153   C7      1.086   1_655 S
H154   C488    1.088   1_545 S
H155   C309    1.086   .     S
H157   C675    1.084   .     S
H160   C672    1.084   1_554 S
O162   Zn179   1.925   .     S
O162   Zn178   1.951   .     S
O162   Zn177   1.961   .     S
O162   Zn180   1.932   .     S
O163   Zn178   1.928   .     S
O164   Zn180   1.943   .     S
O165   Zn179   1.941   .     S
O166   Zn177   1.928   .     S
O169   Zn177   1.928   .     S
O170   Zn180   1.927   .     S
O171   Zn178   1.925   .     S
O172   Zn179   1.939   .     S
O173   Zn180   1.935   .     S
O174   Zn177   1.921   .     S
O175   Zn178   1.934   .     S
O176   Zn179   1.931   .     S
C181   O231    1.273   .     A
C181   O233    1.271   .     A
C181   C187    1.440   .     S
C182   C202    1.410   .     A
C182   C196    1.393   .     A
C182   H218    1.078   .     S
C183   C195    1.387   .     A
C183   H206    1.084   .     S
C183   C196    1.396   .     A
C184   O232    1.279   .     A
C184   C186    1.470   .     S
C184   O234    1.280   .     A
C185   C194    1.473   .     S
C185   C197    1.398   .     A
C185   C201    1.420   .     A
C186   C247    1.338   .     S
C186   O288    1.386   .     S
C187   C306    1.338   1_455 S
C187   H333    1.086   1_455 S
C188   C191    1.452   .     S
C188   C369    1.332   .     S
C188   H394    1.088   .     S
C189   C190    1.436   .     S
C190   O235    1.280   .     A
C190   O229    1.280   .     A
C191   O236    1.269   .     A
C191   O230    1.268   .     A
C192   C197    1.383   .     A
C192   C739    1.398   .     S
C192   H760    1.084   .     S
C193   C196    1.450   .     S
C193   O225    1.268   .     A
C193   O223    1.277   .     A
C194   O226    1.284   .     A
C194   O224    1.282   .     A
C195   C743    1.402   1_554 S
C195   H757    1.084   1_554 S
C197   H219    1.084   .     S
C198   H210    1.112   .     S
C198   N221    1.447   .     S
C198   H209    1.111   .     S
C198   H208    1.110   .     S
C199   N221    1.424   .     S
C199   C732    1.398   1_554 S
C199   C740    1.433   1_554 S
C200   C201    1.430   .     A
C200   C739    1.433   .     S
C200   C742    1.428   .     S
C201   C205    1.421   .     A
C202   C740    1.428   1_554 S
C202   C743    1.421   1_554 S
C203   C204    1.389   .     A
C203   C735    1.402   .     S
C203   C742    1.421   .     S
C204   C205    1.396   .     A
C204   H216    1.085   .     S
C205   O227    1.384   .     S
H207   N221    1.032   .     S
H211   O227    0.992   .     S
H212   O228    0.990   .     S
H213   C247    1.086   .     S
H215   C369    1.086   .     S
H217   C735    1.084   .     S
H220   C732    1.084   1_554 S
O222   Zn239   1.925   .     S
O222   Zn238   1.951   .     S
O222   Zn237   1.961   .     S
O222   Zn240   1.932   .     S
O223   Zn238   1.928   .     S
O224   Zn240   1.943   .     S
O225   Zn239   1.941   .     S
O226   Zn237   1.928   .     S
O228   C306    1.386   1_455 S
O229   Zn237   1.928   .     S
O230   Zn240   1.927   .     S
O231   Zn238   1.925   .     S
O232   Zn239   1.939   .     S
O233   Zn240   1.935   .     S
O234   Zn237   1.921   .     S
O235   Zn238   1.934   .     S
O236   Zn239   1.931   .     S
C241   O291    1.273   .     A
C241   O293    1.271   .     A
C241   C247    1.440   .     S
C242   C262    1.410   .     A
C242   C256    1.393   .     A
C242   H278    1.078   .     S
C243   C255    1.387   .     A
C243   H266    1.084   .     S
C243   C256    1.396   .     A
C244   O292    1.279   .     A
C244   C246    1.470   .     S
C244   O294    1.280   .     A
C245   C254    1.473   .     S
C245   C257    1.398   .     A
C245   C261    1.420   .     A
C246   C307    1.338   .     S
C246   O348    1.386   .     S
C248   C251    1.452   .     S
C248   C429    1.332   .     S
C248   H454    1.088   .     S
C249   C250    1.436   .     S
C250   O295    1.280   .     A
C250   O289    1.280   .     A
C251   O296    1.269   .     A
C251   O290    1.268   .     A
C252   C257    1.383   .     A
C252   C799    1.398   .     S
C252   H820    1.084   .     S
C253   C256    1.450   .     S
C253   O285    1.268   .     A
C253   O283    1.277   .     A
C254   O286    1.284   .     A
C254   O284    1.282   .     A
C255   C803    1.402   1_554 S
C255   H817    1.084   1_554 S
C257   H279    1.084   .     S
C258   H270    1.112   .     S
C258   N281    1.447   .     S
C258   H269    1.111   .     S
C258   H268    1.110   .     S
C259   N281    1.424   .     S
C259   C792    1.398   1_554 S
C259   C800    1.433   1_554 S
C260   C261    1.430   .     A
C260   C799    1.433   .     S
C260   C802    1.428   .     S
C261   C265    1.421   .     A
C262   C800    1.428   1_554 S
C262   C803    1.421   1_554 S
C263   C264    1.389   .     A
C263   C795    1.402   .     S
C263   C802    1.421   .     S
C264   C265    1.396   .     A
C264   H276    1.085   .     S
C265   O287    1.384   .     S
H267   N281    1.032   .     S
H271   O287    0.992   .     S
H272   O288    0.990   .     S
H273   C307    1.086   .     S
H275   C429    1.086   .     S
H277   C795    1.084   .     S
H280   C792    1.084   1_554 S
O282   Zn299   1.925   .     S
O282   Zn298   1.951   .     S
O282   Zn297   1.961   .     S
O282   Zn300   1.932   .     S
O283   Zn298   1.928   .     S
O284   Zn300   1.943   .     S
O285   Zn299   1.941   .     S
O286   Zn297   1.928   .     S
O289   Zn297   1.928   .     S
O290   Zn300   1.927   .     S
O291   Zn298   1.925   .     S
O292   Zn299   1.939   .     S
O293   Zn300   1.935   .     S
O294   Zn297   1.921   .     S
O295   Zn298   1.934   .     S
O296   Zn299   1.931   .     S
C301   O351    1.273   .     A
C301   O353    1.271   .     A
C301   C307    1.440   .     S
C302   C322    1.410   .     A
C302   C316    1.393   .     A
C302   H338    1.078   .     S
C303   C315    1.387   .     A
C303   H326    1.084   .     S
C303   C316    1.396   .     A
C304   O352    1.279   .     A
C304   C306    1.470   .     S
C304   O354    1.280   .     A
C305   C314    1.473   .     S
C305   C317    1.398   .     A
C305   C321    1.420   .     A
C306   C187    1.338   1_655 S
C306   O228    1.386   1_655 S
C308   C311    1.452   .     S
C308   C489    1.332   .     S
C308   H514    1.088   .     S
C309   C310    1.436   .     S
C310   O355    1.280   .     A
C310   O349    1.280   .     A
C311   O356    1.269   .     A
C311   O350    1.268   .     A
C312   C317    1.383   .     A
C312   C859    1.398   .     S
C312   H880    1.084   .     S
C313   C316    1.450   .     S
C313   O345    1.268   .     A
C313   O343    1.277   .     A
C314   O346    1.284   .     A
C314   O344    1.282   .     A
C315   C863    1.402   1_554 S
C315   H877    1.084   1_554 S
C317   H339    1.084   .     S
C318   H330    1.112   .     S
C318   N341    1.447   .     S
C318   H329    1.111   .     S
C318   H328    1.110   .     S
C319   N341    1.424   .     S
C319   C852    1.398   1_554 S
C319   C860    1.433   1_554 S
C320   C321    1.430   .     A
C320   C859    1.433   .     S
C320   C862    1.428   .     S
C321   C325    1.421   .     A
C322   C860    1.428   1_554 S
C322   C863    1.421   1_554 S
C323   C324    1.389   .     A
C323   C855    1.402   .     S
C323   C862    1.421   .     S
C324   C325    1.396   .     A
C324   H336    1.085   .     S
C325   O347    1.384   .     S
H327   N341    1.032   .     S
H331   O347    0.992   .     S
H332   O348    0.990   .     S
H333   C187    1.086   1_655 S
H335   C489    1.086   .     S
H337   C855    1.084   .     S
H340   C852    1.084   1_554 S
O342   Zn359   1.925   .     S
O342   Zn358   1.951   .     S
O342   Zn357   1.961   .     S
O342   Zn360   1.932   .     S
O343   Zn358   1.928   .     S
O344   Zn360   1.943   .     S
O345   Zn359   1.941   .     S
O346   Zn357   1.928   .     S
O349   Zn357   1.928   .     S
O350   Zn360   1.927   .     S
O351   Zn358   1.925   .     S
O352   Zn359   1.939   .     S
O353   Zn360   1.935   .     S
O354   Zn357   1.921   .     S
O355   Zn358   1.934   .     S
O356   Zn359   1.931   .     S
C361   O411    1.273   .     A
C361   O413    1.271   .     A
C361   C367    1.440   .     S
C362   C382    1.410   .     A
C362   C376    1.393   .     A
C362   H398    1.078   .     S
C363   C375    1.387   .     A
C363   H386    1.084   .     S
C363   C376    1.396   .     A
C364   O412    1.279   .     A
C364   C366    1.470   .     S
C364   O414    1.280   .     A
C365   C374    1.473   .     S
C365   C377    1.398   .     A
C365   C381    1.420   .     A
C366   C427    1.338   .     S
C366   O468    1.386   .     S
C367   C486    1.338   1_455 S
C367   H513    1.086   1_455 S
C368   C371    1.452   .     S
C368   C9      1.332   1_565 S
C368   H34     1.088   1_565 S
C369   C370    1.436   .     S
C370   O415    1.280   .     A
C370   O409    1.280   .     A
C371   O416    1.269   .     A
C371   O410    1.268   .     A
C372   C377    1.383   .     A
C372   C919    1.398   .     S
C372   H940    1.084   .     S
C373   C376    1.450   .     S
C373   O405    1.268   .     A
C373   O403    1.277   .     A
C374   O406    1.284   .     A
C374   O404    1.282   .     A
C375   C923    1.402   1_554 S
C375   H937    1.084   1_554 S
C377   H399    1.084   .     S
C378   H390    1.112   .     S
C378   N401    1.447   .     S
C378   H389    1.111   .     S
C378   H388    1.110   .     S
C379   N401    1.424   .     S
C379   C912    1.398   1_554 S
C379   C920    1.433   1_554 S
C380   C381    1.430   .     A
C380   C919    1.433   .     S
C380   C922    1.428   .     S
C381   C385    1.421   .     A
C382   C920    1.428   1_554 S
C382   C923    1.421   1_554 S
C383   C384    1.389   .     A
C383   C915    1.402   .     S
C383   C922    1.421   .     S
C384   C385    1.396   .     A
C384   H396    1.085   .     S
C385   O407    1.384   .     S
H387   N401    1.032   .     S
H391   O407    0.992   .     S
H392   O408    0.990   .     S
H393   C427    1.086   .     S
H395   C9      1.086   1_565 S
H397   C915    1.084   .     S
H400   C912    1.084   1_554 S
O402   Zn419   1.925   .     S
O402   Zn418   1.951   .     S
O402   Zn417   1.961   .     S
O402   Zn420   1.932   .     S
O403   Zn418   1.928   .     S
O404   Zn420   1.943   .     S
O405   Zn419   1.941   .     S
O406   Zn417   1.928   .     S
O408   C486    1.386   1_455 S
O409   Zn417   1.928   .     S
O410   Zn420   1.927   .     S
O411   Zn418   1.925   .     S
O412   Zn419   1.939   .     S
O413   Zn420   1.935   .     S
O414   Zn417   1.921   .     S
O415   Zn418   1.934   .     S
O416   Zn419   1.931   .     S
C421   O471    1.273   .     A
C421   O473    1.271   .     A
C421   C427    1.440   .     S
C422   C442    1.410   .     A
C422   C436    1.393   .     A
C422   H458    1.078   .     S
C423   C435    1.387   .     A
C423   H446    1.084   .     S
C423   C436    1.396   .     A
C424   O472    1.279   .     A
C424   C426    1.470   .     S
C424   O474    1.280   .     A
C425   C434    1.473   .     S
C425   C437    1.398   .     A
C425   C441    1.420   .     A
C426   C487    1.338   .     S
C426   O528    1.386   .     S
C428   C431    1.452   .     S
C428   C69     1.332   1_565 S
C428   H94     1.088   1_565 S
C429   C430    1.436   .     S
C430   O475    1.280   .     A
C430   O469    1.280   .     A
C431   O476    1.269   .     A
C431   O470    1.268   .     A
C432   C437    1.383   .     A
C432   C979    1.398   .     S
C432   H1000   1.084   .     S
C433   C436    1.450   .     S
C433   O465    1.268   .     A
C433   O463    1.277   .     A
C434   O466    1.284   .     A
C434   O464    1.282   .     A
C435   C983    1.402   1_554 S
C435   H997    1.084   1_554 S
C437   H459    1.084   .     S
C438   H450    1.112   .     S
C438   N461    1.447   .     S
C438   H449    1.111   .     S
C438   H448    1.110   .     S
C439   N461    1.424   .     S
C439   C972    1.398   1_554 S
C439   C980    1.433   1_554 S
C440   C441    1.430   .     A
C440   C979    1.433   .     S
C440   C982    1.428   .     S
C441   C445    1.421   .     A
C442   C980    1.428   1_554 S
C442   C983    1.421   1_554 S
C443   C444    1.389   .     A
C443   C975    1.402   .     S
C443   C982    1.421   .     S
C444   C445    1.396   .     A
C444   H456    1.085   .     S
C445   O467    1.384   .     S
H447   N461    1.032   .     S
H451   O467    0.992   .     S
H452   O468    0.990   .     S
H453   C487    1.086   .     S
H455   C69     1.086   1_565 S
H457   C975    1.084   .     S
H460   C972    1.084   1_554 S
O462   Zn479   1.925   .     S
O462   Zn478   1.951   .     S
O462   Zn477   1.961   .     S
O462   Zn480   1.932   .     S
O463   Zn478   1.928   .     S
O464   Zn480   1.943   .     S
O465   Zn479   1.941   .     S
O466   Zn477   1.928   .     S
O469   Zn477   1.928   .     S
O470   Zn480   1.927   .     S
O471   Zn478   1.925   .     S
O472   Zn479   1.939   .     S
O473   Zn480   1.935   .     S
O474   Zn477   1.921   .     S
O475   Zn478   1.934   .     S
O476   Zn479   1.931   .     S
C481   O531    1.273   .     A
C481   O533    1.271   .     A
C481   C487    1.440   .     S
C482   C502    1.410   .     A
C482   C496    1.393   .     A
C482   H518    1.078   .     S
C483   C495    1.387   .     A
C483   H506    1.084   .     S
C483   C496    1.396   .     A
C484   O532    1.279   .     A
C484   C486    1.470   .     S
C484   O534    1.280   .     A
C485   C494    1.473   .     S
C485   C497    1.398   .     A
C485   C501    1.420   .     A
C486   C367    1.338   1_655 S
C486   O408    1.386   1_655 S
C488   C491    1.452   .     S
C488   C129    1.332   1_565 S
C488   H154    1.088   1_565 S
C489   C490    1.436   .     S
C490   O535    1.280   .     A
C490   O529    1.280   .     A
C491   O536    1.269   .     A
C491   O530    1.268   .     A
C492   C497    1.383   .     A
C492   C1039   1.398   .     S
C492   H1060   1.084   .     S
C493   C496    1.450   .     S
C493   O525    1.268   .     A
C493   O523    1.277   .     A
C494   O526    1.284   .     A
C494   O524    1.282   .     A
C495   C1043   1.402   1_554 S
C495   H1057   1.084   1_554 S
C497   H519    1.084   .     S
C498   H510    1.112   .     S
C498   N521    1.447   .     S
C498   H509    1.111   .     S
C498   H508    1.110   .     S
C499   N521    1.424   .     S
C499   C1032   1.398   1_554 S
C499   C1040   1.433   1_554 S
C500   C501    1.430   .     A
C500   C1039   1.433   .     S
C500   C1042   1.428   .     S
C501   C505    1.421   .     A
C502   C1040   1.428   1_554 S
C502   C1043   1.421   1_554 S
C503   C504    1.389   .     A
C503   C1035   1.402   .     S
C503   C1042   1.421   .     S
C504   C505    1.396   .     A
C504   H516    1.085   .     S
C505   O527    1.384   .     S
H507   N521    1.032   .     S
H511   O527    0.992   .     S
H512   O528    0.990   .     S
H513   C367    1.086   1_655 S
H515   C129    1.086   1_565 S
H517   C1035   1.084   .     S
H520   C1032   1.084   1_554 S
O522   Zn539   1.925   .     S
O522   Zn538   1.951   .     S
O522   Zn537   1.961   .     S
O522   Zn540   1.932   .     S
O523   Zn538   1.928   .     S
O524   Zn540   1.943   .     S
O525   Zn539   1.941   .     S
O526   Zn537   1.928   .     S
O529   Zn537   1.928   .     S
O530   Zn540   1.927   .     S
O531   Zn538   1.925   .     S
O532   Zn539   1.939   .     S
O533   Zn540   1.935   .     S
O534   Zn537   1.921   .     S
O535   Zn538   1.934   .     S
O536   Zn539   1.931   .     S
C541   O591    1.273   .     A
C541   O593    1.271   .     A
C541   C547    1.440   .     S
C542   C562    1.410   .     A
C542   C556    1.393   .     A
C542   H578    1.078   .     S
C543   C555    1.387   .     A
C543   H566    1.084   .     S
C543   C556    1.396   .     A
C544   O592    1.279   .     A
C544   C546    1.470   .     S
C544   O594    1.280   .     A
C545   C554    1.473   .     S
C545   C557    1.398   .     A
C545   C561    1.420   .     A
C546   C607    1.338   .     S
C546   O648    1.386   .     S
C547   C666    1.338   1_455 S
C547   H693    1.086   1_455 S
C548   C551    1.452   .     S
C548   C729    1.332   .     S
C548   H754    1.088   .     S
C549   C550    1.436   .     S
C549   C908    1.332   1_545 S
C549   H935    1.086   1_545 S
C550   O595    1.280   .     A
C550   O589    1.280   .     A
C551   O596    1.269   .     A
C551   O590    1.268   .     A
C552   C557    1.383   .     A
C552   C19     1.398   1_556 S
C552   H40     1.084   1_556 S
C553   C556    1.450   .     S
C553   O585    1.268   .     A
C553   O583    1.277   .     A
C554   O586    1.284   .     A
C554   O584    1.282   .     A
C557   H579    1.084   .     S
C558   H570    1.112   .     S
C558   N581    1.447   .     S
C558   H569    1.111   .     S
C558   H568    1.110   .     S
C559   N581    1.424   .     S
C560   C561    1.430   .     A
C560   C19     1.433   1_556 S
C560   C22     1.428   1_556 S
C561   C565    1.421   .     A
C563   C564    1.389   .     A
C563   C15     1.402   1_556 S
C563   C22     1.421   1_556 S
C564   C565    1.396   .     A
C564   H576    1.085   .     S
C565   O587    1.384   .     S
H567   N581    1.032   .     S
H571   O587    0.992   .     S
H572   O588    0.990   .     S
H573   C607    1.086   .     S
H574   C908    1.088   1_545 S
H575   C729    1.086   .     S
H577   C15     1.084   1_556 S
O582   Zn599   1.925   .     S
O582   Zn598   1.951   .     S
O582   Zn597   1.961   .     S
O582   Zn600   1.932   .     S
O583   Zn598   1.928   .     S
O584   Zn600   1.943   .     S
O585   Zn599   1.941   .     S
O586   Zn597   1.928   .     S
O588   C666    1.386   1_455 S
O589   Zn597   1.928   .     S
O590   Zn600   1.927   .     S
O591   Zn598   1.925   .     S
O592   Zn599   1.939   .     S
O593   Zn600   1.935   .     S
O594   Zn597   1.921   .     S
O595   Zn598   1.934   .     S
O596   Zn599   1.931   .     S
C601   O651    1.273   .     A
C601   O653    1.271   .     A
C601   C607    1.440   .     S
C602   C622    1.410   .     A
C602   C616    1.393   .     A
C602   H638    1.078   .     S
C603   C615    1.387   .     A
C603   H626    1.084   .     S
C603   C616    1.396   .     A
C604   O652    1.279   .     A
C604   C606    1.470   .     S
C604   O654    1.280   .     A
C605   C614    1.473   .     S
C605   C617    1.398   .     A
C605   C621    1.420   .     A
C606   C667    1.338   .     S
C606   O708    1.386   .     S
C608   C611    1.452   .     S
C608   C789    1.332   .     S
C608   H814    1.088   .     S
C609   C610    1.436   .     S
C609   C968    1.332   1_545 S
C609   H995    1.086   1_545 S
C610   O655    1.280   .     A
C610   O649    1.280   .     A
C611   O656    1.269   .     A
C611   O650    1.268   .     A
C612   C617    1.383   .     A
C612   C79     1.398   1_556 S
C612   H100    1.084   1_556 S
C613   C616    1.450   .     S
C613   O645    1.268   .     A
C613   O643    1.277   .     A
C614   O646    1.284   .     A
C614   O644    1.282   .     A
C617   H639    1.084   .     S
C618   H630    1.112   .     S
C618   N641    1.447   .     S
C618   H629    1.111   .     S
C618   H628    1.110   .     S
C619   N641    1.424   .     S
C620   C621    1.430   .     A
C620   C79     1.433   1_556 S
C620   C82     1.428   1_556 S
C621   C625    1.421   .     A
C623   C624    1.389   .     A
C623   C75     1.402   1_556 S
C623   C82     1.421   1_556 S
C624   C625    1.396   .     A
C624   H636    1.085   .     S
C625   O647    1.384   .     S
H627   N641    1.032   .     S
H631   O647    0.992   .     S
H632   O648    0.990   .     S
H633   C667    1.086   .     S
H634   C968    1.088   1_545 S
H635   C789    1.086   .     S
H637   C75     1.084   1_556 S
O642   Zn659   1.925   .     S
O642   Zn658   1.951   .     S
O642   Zn657   1.961   .     S
O642   Zn660   1.932   .     S
O643   Zn658   1.928   .     S
O644   Zn660   1.943   .     S
O645   Zn659   1.941   .     S
O646   Zn657   1.928   .     S
O649   Zn657   1.928   .     S
O650   Zn660   1.927   .     S
O651   Zn658   1.925   .     S
O652   Zn659   1.939   .     S
O653   Zn660   1.935   .     S
O654   Zn657   1.921   .     S
O655   Zn658   1.934   .     S
O656   Zn659   1.931   .     S
C661   O711    1.273   .     A
C661   O713    1.271   .     A
C661   C667    1.440   .     S
C662   C682    1.410   .     A
C662   C676    1.393   .     A
C662   H698    1.078   .     S
C663   C675    1.387   .     A
C663   H686    1.084   .     S
C663   C676    1.396   .     A
C664   O712    1.279   .     A
C664   C666    1.470   .     S
C664   O714    1.280   .     A
C665   C674    1.473   .     S
C665   C677    1.398   .     A
C665   C681    1.420   .     A
C666   C547    1.338   1_655 S
C666   O588    1.386   1_655 S
C668   C671    1.452   .     S
C668   C849    1.332   .     S
C668   H874    1.088   .     S
C669   C670    1.436   .     S
C669   C1028   1.332   1_545 S
C669   H1055   1.086   1_545 S
C670   O715    1.280   .     A
C670   O709    1.280   .     A
C671   O716    1.269   .     A
C671   O710    1.268   .     A
C672   C677    1.383   .     A
C672   C139    1.398   1_556 S
C672   H160    1.084   1_556 S
C673   C676    1.450   .     S
C673   O705    1.268   .     A
C673   O703    1.277   .     A
C674   O706    1.284   .     A
C674   O704    1.282   .     A
C677   H699    1.084   .     S
C678   H690    1.112   .     S
C678   N701    1.447   .     S
C678   H689    1.111   .     S
C678   H688    1.110   .     S
C679   N701    1.424   .     S
C680   C681    1.430   .     A
C680   C139    1.433   1_556 S
C680   C142    1.428   1_556 S
C681   C685    1.421   .     A
C683   C684    1.389   .     A
C683   C135    1.402   1_556 S
C683   C142    1.421   1_556 S
C684   C685    1.396   .     A
C684   H696    1.085   .     S
C685   O707    1.384   .     S
H687   N701    1.032   .     S
H691   O707    0.992   .     S
H692   O708    0.990   .     S
H693   C547    1.086   1_655 S
H694   C1028   1.088   1_545 S
H695   C849    1.086   .     S
H697   C135    1.084   1_556 S
O702   Zn719   1.925   .     S
O702   Zn718   1.951   .     S
O702   Zn717   1.961   .     S
O702   Zn720   1.932   .     S
O703   Zn718   1.928   .     S
O704   Zn720   1.943   .     S
O705   Zn719   1.941   .     S
O706   Zn717   1.928   .     S
O709   Zn717   1.928   .     S
O710   Zn720   1.927   .     S
O711   Zn718   1.925   .     S
O712   Zn719   1.939   .     S
O713   Zn720   1.935   .     S
O714   Zn717   1.921   .     S
O715   Zn718   1.934   .     S
O716   Zn719   1.931   .     S
C721   O771    1.273   .     A
C721   O773    1.271   .     A
C721   C727    1.440   .     S
C722   C742    1.410   .     A
C722   C736    1.393   .     A
C722   H758    1.078   .     S
C723   C735    1.387   .     A
C723   H746    1.084   .     S
C723   C736    1.396   .     A
C724   O772    1.279   .     A
C724   C726    1.470   .     S
C724   O774    1.280   .     A
C725   C734    1.473   .     S
C725   C737    1.398   .     A
C725   C741    1.420   .     A
C726   C787    1.338   .     S
C726   O828    1.386   .     S
C727   C846    1.338   1_455 S
C727   H873    1.086   1_455 S
C728   C731    1.452   .     S
C728   C909    1.332   .     S
C728   H934    1.088   .     S
C729   C730    1.436   .     S
C730   O775    1.280   .     A
C730   O769    1.280   .     A
C731   O776    1.269   .     A
C731   O770    1.268   .     A
C732   C737    1.383   .     A
C732   C199    1.398   1_556 S
C732   H220    1.084   1_556 S
C733   C736    1.450   .     S
C733   O765    1.268   .     A
C733   O763    1.277   .     A
C734   O766    1.284   .     A
C734   O764    1.282   .     A
C737   H759    1.084   .     S
C738   H750    1.112   .     S
C738   N761    1.447   .     S
C738   H749    1.111   .     S
C738   H748    1.110   .     S
C739   N761    1.424   .     S
C740   C741    1.430   .     A
C740   C199    1.433   1_556 S
C740   C202    1.428   1_556 S
C741   C745    1.421   .     A
C743   C744    1.389   .     A
C743   C195    1.402   1_556 S
C743   C202    1.421   1_556 S
C744   C745    1.396   .     A
C744   H756    1.085   .     S
C745   O767    1.384   .     S
H747   N761    1.032   .     S
H751   O767    0.992   .     S
H752   O768    0.990   .     S
H753   C787    1.086   .     S
H755   C909    1.086   .     S
H757   C195    1.084   1_556 S
O762   Zn779   1.925   .     S
O762   Zn778   1.951   .     S
O762   Zn777   1.961   .     S
O762   Zn780   1.932   .     S
O763   Zn778   1.928   .     S
O764   Zn780   1.943   .     S
O765   Zn779   1.941   .     S
O766   Zn777   1.928   .     S
O768   C846    1.386   1_455 S
O769   Zn777   1.928   .     S
O770   Zn780   1.927   .     S
O771   Zn778   1.925   .     S
O772   Zn779   1.939   .     S
O773   Zn780   1.935   .     S
O774   Zn777   1.921   .     S
O775   Zn778   1.934   .     S
O776   Zn779   1.931   .     S
C781   O831    1.273   .     A
C781   O833    1.271   .     A
C781   C787    1.440   .     S
C782   C802    1.410   .     A
C782   C796    1.393   .     A
C782   H818    1.078   .     S
C783   C795    1.387   .     A
C783   H806    1.084   .     S
C783   C796    1.396   .     A
C784   O832    1.279   .     A
C784   C786    1.470   .     S
C784   O834    1.280   .     A
C785   C794    1.473   .     S
C785   C797    1.398   .     A
C785   C801    1.420   .     A
C786   C847    1.338   .     S
C786   O888    1.386   .     S
C788   C791    1.452   .     S
C788   C969    1.332   .     S
C788   H994    1.088   .     S
C789   C790    1.436   .     S
C790   O835    1.280   .     A
C790   O829    1.280   .     A
C791   O836    1.269   .     A
C791   O830    1.268   .     A
C792   C797    1.383   .     A
C792   C259    1.398   1_556 S
C792   H280    1.084   1_556 S
C793   C796    1.450   .     S
C793   O825    1.268   .     A
C793   O823    1.277   .     A
C794   O826    1.284   .     A
C794   O824    1.282   .     A
C797   H819    1.084   .     S
C798   H810    1.112   .     S
C798   N821    1.447   .     S
C798   H809    1.111   .     S
C798   H808    1.110   .     S
C799   N821    1.424   .     S
C800   C801    1.430   .     A
C800   C259    1.433   1_556 S
C800   C262    1.428   1_556 S
C801   C805    1.421   .     A
C803   C804    1.389   .     A
C803   C255    1.402   1_556 S
C803   C262    1.421   1_556 S
C804   C805    1.396   .     A
C804   H816    1.085   .     S
C805   O827    1.384   .     S
H807   N821    1.032   .     S
H811   O827    0.992   .     S
H812   O828    0.990   .     S
H813   C847    1.086   .     S
H815   C969    1.086   .     S
H817   C255    1.084   1_556 S
O822   Zn839   1.925   .     S
O822   Zn838   1.951   .     S
O822   Zn837   1.961   .     S
O822   Zn840   1.932   .     S
O823   Zn838   1.928   .     S
O824   Zn840   1.943   .     S
O825   Zn839   1.941   .     S
O826   Zn837   1.928   .     S
O829   Zn837   1.928   .     S
O830   Zn840   1.927   .     S
O831   Zn838   1.925   .     S
O832   Zn839   1.939   .     S
O833   Zn840   1.935   .     S
O834   Zn837   1.921   .     S
O835   Zn838   1.934   .     S
O836   Zn839   1.931   .     S
C841   O891    1.273   .     A
C841   O893    1.271   .     A
C841   C847    1.440   .     S
C842   C862    1.410   .     A
C842   C856    1.393   .     A
C842   H878    1.078   .     S
C843   C855    1.387   .     A
C843   H866    1.084   .     S
C843   C856    1.396   .     A
C844   O892    1.279   .     A
C844   C846    1.470   .     S
C844   O894    1.280   .     A
C845   C854    1.473   .     S
C845   C857    1.398   .     A
C845   C861    1.420   .     A
C846   C727    1.338   1_655 S
C846   O768    1.386   1_655 S
C848   C851    1.452   .     S
C848   C1029   1.332   .     S
C848   H1054   1.088   .     S
C849   C850    1.436   .     S
C850   O895    1.280   .     A
C850   O889    1.280   .     A
C851   O896    1.269   .     A
C851   O890    1.268   .     A
C852   C857    1.383   .     A
C852   C319    1.398   1_556 S
C852   H340    1.084   1_556 S
C853   C856    1.450   .     S
C853   O885    1.268   .     A
C853   O883    1.277   .     A
C854   O886    1.284   .     A
C854   O884    1.282   .     A
C857   H879    1.084   .     S
C858   H870    1.112   .     S
C858   N881    1.447   .     S
C858   H869    1.111   .     S
C858   H868    1.110   .     S
C859   N881    1.424   .     S
C860   C861    1.430   .     A
C860   C319    1.433   1_556 S
C860   C322    1.428   1_556 S
C861   C865    1.421   .     A
C863   C864    1.389   .     A
C863   C315    1.402   1_556 S
C863   C322    1.421   1_556 S
C864   C865    1.396   .     A
C864   H876    1.085   .     S
C865   O887    1.384   .     S
H867   N881    1.032   .     S
H871   O887    0.992   .     S
H872   O888    0.990   .     S
H873   C727    1.086   1_655 S
H875   C1029   1.086   .     S
H877   C315    1.084   1_556 S
O882   Zn899   1.925   .     S
O882   Zn898   1.951   .     S
O882   Zn897   1.961   .     S
O882   Zn900   1.932   .     S
O883   Zn898   1.928   .     S
O884   Zn900   1.943   .     S
O885   Zn899   1.941   .     S
O886   Zn897   1.928   .     S
O889   Zn897   1.928   .     S
O890   Zn900   1.927   .     S
O891   Zn898   1.925   .     S
O892   Zn899   1.939   .     S
O893   Zn900   1.935   .     S
O894   Zn897   1.921   .     S
O895   Zn898   1.934   .     S
O896   Zn899   1.931   .     S
C901   O951    1.273   .     A
C901   O953    1.271   .     A
C901   C907    1.440   .     S
C902   C922    1.410   .     A
C902   C916    1.393   .     A
C902   H938    1.078   .     S
C903   C915    1.387   .     A
C903   H926    1.084   .     S
C903   C916    1.396   .     A
C904   O952    1.279   .     A
C904   C906    1.470   .     S
C904   O954    1.280   .     A
C905   C914    1.473   .     S
C905   C917    1.398   .     A
C905   C921    1.420   .     A
C906   C967    1.338   .     S
C906   O1008   1.386   .     S
C907   C1026   1.338   1_455 S
C907   H1053   1.086   1_455 S
C908   C911    1.452   .     S
C908   C549    1.332   1_565 S
C908   H574    1.088   1_565 S
C909   C910    1.436   .     S
C910   O955    1.280   .     A
C910   O949    1.280   .     A
C911   O956    1.269   .     A
C911   O950    1.268   .     A
C912   C917    1.383   .     A
C912   C379    1.398   1_556 S
C912   H400    1.084   1_556 S
C913   C916    1.450   .     S
C913   O945    1.268   .     A
C913   O943    1.277   .     A
C914   O946    1.284   .     A
C914   O944    1.282   .     A
C917   H939    1.084   .     S
C918   H930    1.112   .     S
C918   N941    1.447   .     S
C918   H929    1.111   .     S
C918   H928    1.110   .     S
C919   N941    1.424   .     S
C920   C921    1.430   .     A
C920   C379    1.433   1_556 S
C920   C382    1.428   1_556 S
C921   C925    1.421   .     A
C923   C924    1.389   .     A
C923   C375    1.402   1_556 S
C923   C382    1.421   1_556 S
C924   C925    1.396   .     A
C924   H936    1.085   .     S
C925   O947    1.384   .     S
H927   N941    1.032   .     S
H931   O947    0.992   .     S
H932   O948    0.990   .     S
H933   C967    1.086   .     S
H935   C549    1.086   1_565 S
H937   C375    1.084   1_556 S
O942   Zn959   1.925   .     S
O942   Zn958   1.951   .     S
O942   Zn957   1.961   .     S
O942   Zn960   1.932   .     S
O943   Zn958   1.928   .     S
O944   Zn960   1.943   .     S
O945   Zn959   1.941   .     S
O946   Zn957   1.928   .     S
O948   C1026   1.386   1_455 S
O949   Zn957   1.928   .     S
O950   Zn960   1.927   .     S
O951   Zn958   1.925   .     S
O952   Zn959   1.939   .     S
O953   Zn960   1.935   .     S
O954   Zn957   1.921   .     S
O955   Zn958   1.934   .     S
O956   Zn959   1.931   .     S
C961   O1011   1.273   .     A
C961   O1013   1.271   .     A
C961   C967    1.440   .     S
C962   C982    1.410   .     A
C962   C976    1.393   .     A
C962   H998    1.078   .     S
C963   C975    1.387   .     A
C963   H986    1.084   .     S
C963   C976    1.396   .     A
C964   O1012   1.279   .     A
C964   C966    1.470   .     S
C964   O1014   1.280   .     A
C965   C974    1.473   .     S
C965   C977    1.398   .     A
C965   C981    1.420   .     A
C966   C1027   1.338   .     S
C966   O1068   1.386   .     S
C968   C971    1.452   .     S
C968   C609    1.332   1_565 S
C968   H634    1.088   1_565 S
C969   C970    1.436   .     S
C970   O1015   1.280   .     A
C970   O1009   1.280   .     A
C971   O1016   1.269   .     A
C971   O1010   1.268   .     A
C972   C977    1.383   .     A
C972   C439    1.398   1_556 S
C972   H460    1.084   1_556 S
C973   C976    1.450   .     S
C973   O1005   1.268   .     A
C973   O1003   1.277   .     A
C974   O1006   1.284   .     A
C974   O1004   1.282   .     A
C977   H999    1.084   .     S
C978   H990    1.112   .     S
C978   N1001   1.447   .     S
C978   H989    1.111   .     S
C978   H988    1.110   .     S
C979   N1001   1.424   .     S
C980   C981    1.430   .     A
C980   C439    1.433   1_556 S
C980   C442    1.428   1_556 S
C981   C985    1.421   .     A
C983   C984    1.389   .     A
C983   C435    1.402   1_556 S
C983   C442    1.421   1_556 S
C984   C985    1.396   .     A
C984   H996    1.085   .     S
C985   O1007   1.384   .     S
H987   N1001   1.032   .     S
H991   O1007   0.992   .     S
H992   O1008   0.990   .     S
H993   C1027   1.086   .     S
H995   C609    1.086   1_565 S
H997   C435    1.084   1_556 S
O1002  Zn1019  1.925   .     S
O1002  Zn1018  1.951   .     S
O1002  Zn1017  1.961   .     S
O1002  Zn1020  1.932   .     S
O1003  Zn1018  1.928   .     S
O1004  Zn1020  1.943   .     S
O1005  Zn1019  1.941   .     S
O1006  Zn1017  1.928   .     S
O1009  Zn1017  1.928   .     S
O1010  Zn1020  1.927   .     S
O1011  Zn1018  1.925   .     S
O1012  Zn1019  1.939   .     S
O1013  Zn1020  1.935   .     S
O1014  Zn1017  1.921   .     S
O1015  Zn1018  1.934   .     S
O1016  Zn1019  1.931   .     S
C1021  O1071   1.273   .     A
C1021  O1073   1.271   .     A
C1021  C1027   1.440   .     S
C1022  C1042   1.410   .     A
C1022  C1036   1.393   .     A
C1022  H1058   1.078   .     S
C1023  C1035   1.387   .     A
C1023  H1046   1.084   .     S
C1023  C1036   1.396   .     A
C1024  O1072   1.279   .     A
C1024  C1026   1.470   .     S
C1024  O1074   1.280   .     A
C1025  C1034   1.473   .     S
C1025  C1037   1.398   .     A
C1025  C1041   1.420   .     A
C1026  C907    1.338   1_655 S
C1026  O948    1.386   1_655 S
C1028  C1031   1.452   .     S
C1028  C669    1.332   1_565 S
C1028  H694    1.088   1_565 S
C1029  C1030   1.436   .     S
C1030  O1075   1.280   .     A
C1030  O1069   1.280   .     A
C1031  O1076   1.269   .     A
C1031  O1070   1.268   .     A
C1032  C1037   1.383   .     A
C1032  C499    1.398   1_556 S
C1032  H520    1.084   1_556 S
C1033  C1036   1.450   .     S
C1033  O1065   1.268   .     A
C1033  O1063   1.277   .     A
C1034  O1066   1.284   .     A
C1034  O1064   1.282   .     A
C1037  H1059   1.084   .     S
C1038  H1050   1.112   .     S
C1038  N1061   1.447   .     S
C1038  H1049   1.111   .     S
C1038  H1048   1.110   .     S
C1039  N1061   1.424   .     S
C1040  C1041   1.430   .     A
C1040  C499    1.433   1_556 S
C1040  C502    1.428   1_556 S
C1041  C1045   1.421   .     A
C1043  C1044   1.389   .     A
C1043  C495    1.402   1_556 S
C1043  C502    1.421   1_556 S
C1044  C1045   1.396   .     A
C1044  H1056   1.085   .     S
C1045  O1067   1.384   .     S
H1047  N1061   1.032   .     S
H1051  O1067   0.992   .     S
H1052  O1068   0.990   .     S
H1053  C907    1.086   1_655 S
H1055  C669    1.086   1_565 S
H1057  C495    1.084   1_556 S
O1062  Zn1079  1.925   .     S
O1062  Zn1078  1.951   .     S
O1062  Zn1077  1.961   .     S
O1062  Zn1080  1.932   .     S
O1063  Zn1078  1.928   .     S
O1064  Zn1080  1.943   .     S
O1065  Zn1079  1.941   .     S
O1066  Zn1077  1.928   .     S
O1069  Zn1077  1.928   .     S
O1070  Zn1080  1.927   .     S
O1071  Zn1078  1.925   .     S
O1072  Zn1079  1.939   .     S
O1073  Zn1080  1.935   .     S
O1074  Zn1077  1.921   .     S
O1075  Zn1078  1.934   .     S
O1076  Zn1079  1.931   .     S
