data_str_m1_o10_o18_pcu_sym.243
_audit_creation_date              2020-01-03
_audit_creation_method            'Materials Studio'
_symmetry_space_group_name_H-M    'P1'
_symmetry_Int_Tables_number       1
_symmetry_cell_setting            triclinic
loop_
_symmetry_equiv_pos_as_xyz
  x,y,z
_cell_length_a                    32.5529
_cell_length_b                    32.6788
_cell_length_c                    35.5062
_cell_angle_alpha                 98.2650
_cell_angle_beta                  72.4431
_cell_angle_gamma                 98.6601
loop_
_atom_site_label
_atom_site_type_symbol
_atom_site_fract_x
_atom_site_fract_y
_atom_site_fract_z
_atom_site_U_iso_or_equiv
_atom_site_adp_type
_atom_site_occupancy
Br1    Br    0.23265   0.01299   0.20204   0.00000  Uiso   1.00
Br2    Br    0.09585   0.32749   0.29887   0.00000  Uiso   1.00
C3     C     0.05230   0.15969   0.25945   0.00000  Uiso   1.00
C4     C     0.20545   0.13525   0.45757   0.00000  Uiso   1.00
C5     C     0.23105   0.12135   0.47696   0.00000  Uiso   1.00
C6     C     0.28148   0.17254   0.23991   0.00000  Uiso   1.00
C7     C     0.21843   0.12341   0.01820   0.00000  Uiso   1.00
C8     C     0.17751   0.13637   0.04030   0.00000  Uiso   1.00
C9     C     0.24721   0.11456   0.03768   0.00000  Uiso   1.00
C10    C     0.23688   0.12082   0.07894   0.00000  Uiso   1.00
C11    C     0.16952   0.14558   0.08161   0.00000  Uiso   1.00
C12    C     0.32838   0.17174   0.23272   0.00000  Uiso   1.00
C13    C     0.00724   0.15957   0.26197   0.00000  Uiso   1.00
C14    C     0.08575   0.19768   0.42311   0.00000  Uiso   1.00
C15    C     0.18109   0.32236   0.23923   0.00000  Uiso   1.00
C16    C     0.15056   0.01279   0.26233   0.00000  Uiso   1.00
C17    C     0.15611   0.05634   0.25867   0.00000  Uiso   1.00
C18    C     0.17676   0.27777   0.24146   0.00000  Uiso   1.00
C19    C     0.18823   0.14559   0.14382   0.00000  Uiso   1.00
C20    C     0.14421   0.18690   0.35659   0.00000  Uiso   1.00
C21    C     0.12818   0.18848   0.40060   0.00000  Uiso   1.00
C22    C     0.19822   0.13676   0.10084   0.00000  Uiso   1.00
C23    C     0.07095   0.19055   0.46326   0.00000  Uiso   1.00
C24    C     0.02946   0.18327   0.19421   0.00000  Uiso   1.00
C25    C     0.15468   0.17463   0.41977   0.00000  Uiso   1.00
C26    C     0.01335   0.19394   0.16096   0.00000  Uiso   1.00
C27    C     0.05412   0.21273   0.40580   0.00000  Uiso   1.00
C28    C     0.03136   0.17671   0.38432   0.00000  Uiso   1.00
C29    C     0.07624   0.12075   0.07367   0.00000  Uiso   1.00
C30    C     0.08318   0.07471   0.06580   0.00000  Uiso   1.00
C31    C     0.13912   0.16556   0.45962   0.00000  Uiso   1.00
C32    C     0.09656   0.17374   0.48117   0.00000  Uiso   1.00
C33    C     0.16456   0.14865   0.47867   0.00000  Uiso   1.00
C34    C     0.14799   0.14370   0.02006   0.00000  Uiso   1.00
C35    C     0.10251   0.14489   0.03862   0.00000  Uiso   1.00
C36    C     0.07853   0.16256   0.01969   0.00000  Uiso   1.00
H37    H     0.04450   0.16557   0.03433   0.00000  Uiso   1.00
H38    H     0.32344   0.16815   0.15289   0.00000  Uiso   1.00
H39    H     0.33175   0.22353   0.16970   0.00000  Uiso   1.00
H40    H     0.04134   0.19846   0.13417   0.00000  Uiso   1.00
H41    H     0.05201   0.21019   0.20158   0.00000  Uiso   1.00
H42    H     0.04862   0.15655   0.18156   0.00000  Uiso   1.00
H43    H     0.00942   0.18894   0.37109   0.00000  Uiso   1.00
H44    H     0.05504   0.15966   0.36023   0.00000  Uiso   1.00
H45    H     0.01169   0.15457   0.40569   0.00000  Uiso   1.00
H46    H     0.02862   0.22785   0.42986   0.00000  Uiso   1.00
H47    H     0.07021   0.23748   0.38619   0.00000  Uiso   1.00
H48    H     0.27817   0.10390   0.02096   0.00000  Uiso   1.00
H49    H     0.07659   0.06100   0.03742   0.00000  Uiso   1.00
H50    H     0.11678   0.07045   0.06441   0.00000  Uiso   1.00
H51    H     0.06062   0.05769   0.09025   0.00000  Uiso   1.00
H52    H     0.08181   0.13415   0.10224   0.00000  Uiso   1.00
H53    H     0.04094   0.12189   0.07898   0.00000  Uiso   1.00
H54    H     0.31730   0.15313   0.29027   0.00000  Uiso   1.00
H55    H     0.14339   0.16314   0.09882   0.00000  Uiso   1.00
H56    H     0.25949   0.11431   0.09371   0.00000  Uiso   1.00
H57    H     0.26210   0.11121   0.45969   0.00000  Uiso   1.00
H58    H     0.03822   0.19641   0.48033   0.00000  Uiso   1.00
H59    H     0.18747   0.17056   0.40241   0.00000  Uiso   1.00
H60    H     0.21823   0.13398   0.42574   0.00000  Uiso   1.00
O61    O     0.16667   0.16667   0.25000   0.00000  Uiso   1.00
O62    O     0.15693   0.12393   0.16625   0.00000  Uiso   1.00
O63    O     0.12687   0.20646   0.33749   0.00000  Uiso   1.00
O64    O     0.21088   0.17493   0.15877   0.00000  Uiso   1.00
O65    O     0.17198   0.16135   0.33749   0.00000  Uiso   1.00
O66    O     0.17849   0.08101   0.27821   0.00000  Uiso   1.00
O67    O     0.14581   0.26136   0.26767   0.00000  Uiso   1.00
O68    O     0.07452   0.13251   0.23607   0.00000  Uiso   1.00
O69    O     0.26785   0.19179   0.21806   0.00000  Uiso   1.00
O70    O     0.06990   0.18960   0.27820   0.00000  Uiso   1.00
O71    O     0.25440   0.15277   0.26768   0.00000  Uiso   1.00
O72    O     0.13800   0.06903   0.23607   0.00000  Uiso   1.00
O73    O     0.20437   0.25527   0.21806   0.00000  Uiso   1.00
Zn74   Zn    0.19244   0.14090   0.28278   0.00000  Uiso   1.00
Zn75   Zn    0.13459   0.12378   0.22258   0.00000  Uiso   1.00
Zn76   Zn    0.21166   0.19664   0.21188   0.00000  Uiso   1.00
Zn77   Zn    0.12798   0.20535   0.28277   0.00000  Uiso   1.00
Br78   Br    0.56599   0.01299   0.20204   0.00000  Uiso   1.00
Br79   Br    0.42918   0.32749   0.29887   0.00000  Uiso   1.00
C80    C     0.38563   0.15969   0.25945   0.00000  Uiso   1.00
C81    C     0.53879   0.13525   0.45757   0.00000  Uiso   1.00
C82    C     0.56439   0.12135   0.47696   0.00000  Uiso   1.00
C83    C     0.61481   0.17254   0.23991   0.00000  Uiso   1.00
C84    C     0.55176   0.12341   0.01820   0.00000  Uiso   1.00
C85    C     0.51085   0.13637   0.04030   0.00000  Uiso   1.00
C86    C     0.58054   0.11456   0.03768   0.00000  Uiso   1.00
C87    C     0.57021   0.12082   0.07894   0.00000  Uiso   1.00
C88    C     0.50286   0.14558   0.08161   0.00000  Uiso   1.00
C89    C     0.66171   0.17174   0.23272   0.00000  Uiso   1.00
C90    C     0.34057   0.15957   0.26197   0.00000  Uiso   1.00
C91    C     0.41908   0.19768   0.42311   0.00000  Uiso   1.00
C92    C     0.51443   0.32236   0.23923   0.00000  Uiso   1.00
C93    C     0.48389   0.01279   0.26233   0.00000  Uiso   1.00
C94    C     0.48945   0.05634   0.25867   0.00000  Uiso   1.00
C95    C     0.51010   0.27777   0.24146   0.00000  Uiso   1.00
C96    C     0.52156   0.14559   0.14382   0.00000  Uiso   1.00
C97    C     0.47755   0.18690   0.35659   0.00000  Uiso   1.00
C98    C     0.46151   0.18848   0.40060   0.00000  Uiso   1.00
C99    C     0.53155   0.13676   0.10084   0.00000  Uiso   1.00
C100   C     0.40428   0.19055   0.46326   0.00000  Uiso   1.00
C101   C     0.36280   0.18327   0.19421   0.00000  Uiso   1.00
C102   C     0.48801   0.17463   0.41977   0.00000  Uiso   1.00
C103   C     0.34669   0.19394   0.16096   0.00000  Uiso   1.00
C104   C     0.38745   0.21273   0.40580   0.00000  Uiso   1.00
C105   C     0.36470   0.17671   0.38432   0.00000  Uiso   1.00
C106   C     0.40957   0.12075   0.07367   0.00000  Uiso   1.00
C107   C     0.41652   0.07471   0.06580   0.00000  Uiso   1.00
C108   C     0.47246   0.16556   0.45962   0.00000  Uiso   1.00
C109   C     0.42990   0.17374   0.48117   0.00000  Uiso   1.00
C110   C     0.49789   0.14865   0.47867   0.00000  Uiso   1.00
C111   C     0.48133   0.14370   0.02006   0.00000  Uiso   1.00
C112   C     0.43584   0.14489   0.03862   0.00000  Uiso   1.00
C113   C     0.41186   0.16256   0.01969   0.00000  Uiso   1.00
H114   H     0.37784   0.16557   0.03433   0.00000  Uiso   1.00
H115   H     0.65678   0.16815   0.15289   0.00000  Uiso   1.00
H116   H     0.66508   0.22353   0.16970   0.00000  Uiso   1.00
H117   H     0.37468   0.19846   0.13417   0.00000  Uiso   1.00
H118   H     0.38534   0.21019   0.20158   0.00000  Uiso   1.00
H119   H     0.38195   0.15655   0.18156   0.00000  Uiso   1.00
H120   H     0.34275   0.18894   0.37109   0.00000  Uiso   1.00
H121   H     0.38837   0.15966   0.36023   0.00000  Uiso   1.00
H122   H     0.34503   0.15457   0.40569   0.00000  Uiso   1.00
H123   H     0.36195   0.22785   0.42986   0.00000  Uiso   1.00
H124   H     0.40354   0.23748   0.38619   0.00000  Uiso   1.00
H125   H     0.61150   0.10390   0.02096   0.00000  Uiso   1.00
H126   H     0.40993   0.06100   0.03742   0.00000  Uiso   1.00
H127   H     0.45011   0.07045   0.06441   0.00000  Uiso   1.00
H128   H     0.39395   0.05769   0.09025   0.00000  Uiso   1.00
H129   H     0.41515   0.13415   0.10224   0.00000  Uiso   1.00
H130   H     0.37427   0.12189   0.07898   0.00000  Uiso   1.00
H131   H     0.65063   0.15313   0.29027   0.00000  Uiso   1.00
H132   H     0.47672   0.16314   0.09882   0.00000  Uiso   1.00
H133   H     0.59282   0.11431   0.09371   0.00000  Uiso   1.00
H134   H     0.59544   0.11121   0.45969   0.00000  Uiso   1.00
H135   H     0.37155   0.19641   0.48033   0.00000  Uiso   1.00
H136   H     0.52080   0.17056   0.40241   0.00000  Uiso   1.00
H137   H     0.55157   0.13398   0.42574   0.00000  Uiso   1.00
O138   O     0.50000   0.16667   0.25000   0.00000  Uiso   1.00
O139   O     0.49027   0.12393   0.16625   0.00000  Uiso   1.00
O140   O     0.46020   0.20646   0.33749   0.00000  Uiso   1.00
O141   O     0.54421   0.17493   0.15877   0.00000  Uiso   1.00
O142   O     0.50532   0.16135   0.33749   0.00000  Uiso   1.00
O143   O     0.51182   0.08101   0.27821   0.00000  Uiso   1.00
O144   O     0.47914   0.26136   0.26767   0.00000  Uiso   1.00
O145   O     0.40785   0.13251   0.23607   0.00000  Uiso   1.00
O146   O     0.60119   0.19179   0.21806   0.00000  Uiso   1.00
O147   O     0.40323   0.18960   0.27820   0.00000  Uiso   1.00
O148   O     0.58773   0.15277   0.26768   0.00000  Uiso   1.00
O149   O     0.47133   0.06903   0.23607   0.00000  Uiso   1.00
O150   O     0.53771   0.25527   0.21806   0.00000  Uiso   1.00
Zn151  Zn    0.52577   0.14090   0.28278   0.00000  Uiso   1.00
Zn152  Zn    0.46792   0.12378   0.22258   0.00000  Uiso   1.00
Zn153  Zn    0.54500   0.19664   0.21188   0.00000  Uiso   1.00
Zn154  Zn    0.46131   0.20535   0.28277   0.00000  Uiso   1.00
Br155  Br    0.89932   0.01299   0.20204   0.00000  Uiso   1.00
Br156  Br    0.76252   0.32749   0.29887   0.00000  Uiso   1.00
C157   C     0.71896   0.15969   0.25945   0.00000  Uiso   1.00
C158   C     0.87212   0.13525   0.45757   0.00000  Uiso   1.00
C159   C     0.89772   0.12135   0.47696   0.00000  Uiso   1.00
C160   C     0.94815   0.17254   0.23991   0.00000  Uiso   1.00
C161   C     0.88509   0.12341   0.01820   0.00000  Uiso   1.00
C162   C     0.84418   0.13637   0.04030   0.00000  Uiso   1.00
C163   C     0.91387   0.11456   0.03768   0.00000  Uiso   1.00
C164   C     0.90355   0.12082   0.07894   0.00000  Uiso   1.00
C165   C     0.83619   0.14558   0.08161   0.00000  Uiso   1.00
C166   C     0.99505   0.17174   0.23272   0.00000  Uiso   1.00
C167   C     0.67390   0.15957   0.26197   0.00000  Uiso   1.00
C168   C     0.75241   0.19768   0.42311   0.00000  Uiso   1.00
C169   C     0.84776   0.32236   0.23923   0.00000  Uiso   1.00
C170   C     0.81723   0.01279   0.26233   0.00000  Uiso   1.00
C171   C     0.82278   0.05634   0.25867   0.00000  Uiso   1.00
C172   C     0.84343   0.27777   0.24146   0.00000  Uiso   1.00
C173   C     0.85490   0.14559   0.14382   0.00000  Uiso   1.00
C174   C     0.81088   0.18690   0.35659   0.00000  Uiso   1.00
C175   C     0.79485   0.18848   0.40060   0.00000  Uiso   1.00
C176   C     0.86489   0.13676   0.10084   0.00000  Uiso   1.00
C177   C     0.73761   0.19055   0.46326   0.00000  Uiso   1.00
C178   C     0.69613   0.18327   0.19421   0.00000  Uiso   1.00
C179   C     0.82134   0.17463   0.41977   0.00000  Uiso   1.00
C180   C     0.68002   0.19394   0.16096   0.00000  Uiso   1.00
C181   C     0.72078   0.21273   0.40580   0.00000  Uiso   1.00
C182   C     0.69803   0.17671   0.38432   0.00000  Uiso   1.00
C183   C     0.74290   0.12075   0.07367   0.00000  Uiso   1.00
C184   C     0.74985   0.07471   0.06580   0.00000  Uiso   1.00
C185   C     0.80579   0.16556   0.45962   0.00000  Uiso   1.00
C186   C     0.76323   0.17374   0.48117   0.00000  Uiso   1.00
C187   C     0.83122   0.14865   0.47867   0.00000  Uiso   1.00
C188   C     0.81466   0.14370   0.02006   0.00000  Uiso   1.00
C189   C     0.76917   0.14489   0.03862   0.00000  Uiso   1.00
C190   C     0.74520   0.16256   0.01969   0.00000  Uiso   1.00
H191   H     0.71117   0.16557   0.03433   0.00000  Uiso   1.00
H192   H     0.99011   0.16815   0.15289   0.00000  Uiso   1.00
H193   H     0.99842   0.22353   0.16970   0.00000  Uiso   1.00
H194   H     0.70801   0.19846   0.13417   0.00000  Uiso   1.00
H195   H     0.71868   0.21019   0.20158   0.00000  Uiso   1.00
H196   H     0.71528   0.15655   0.18156   0.00000  Uiso   1.00
H197   H     0.67609   0.18894   0.37109   0.00000  Uiso   1.00
H198   H     0.72170   0.15966   0.36023   0.00000  Uiso   1.00
H199   H     0.67836   0.15457   0.40569   0.00000  Uiso   1.00
H200   H     0.69528   0.22785   0.42986   0.00000  Uiso   1.00
H201   H     0.73687   0.23748   0.38619   0.00000  Uiso   1.00
H202   H     0.94484   0.10390   0.02096   0.00000  Uiso   1.00
H203   H     0.74326   0.06100   0.03742   0.00000  Uiso   1.00
H204   H     0.78345   0.07045   0.06441   0.00000  Uiso   1.00
H205   H     0.72728   0.05769   0.09025   0.00000  Uiso   1.00
H206   H     0.74848   0.13415   0.10224   0.00000  Uiso   1.00
H207   H     0.70760   0.12189   0.07898   0.00000  Uiso   1.00
H208   H     0.98396   0.15313   0.29027   0.00000  Uiso   1.00
H209   H     0.81005   0.16314   0.09882   0.00000  Uiso   1.00
H210   H     0.92615   0.11431   0.09371   0.00000  Uiso   1.00
H211   H     0.92877   0.11121   0.45969   0.00000  Uiso   1.00
H212   H     0.70489   0.19641   0.48033   0.00000  Uiso   1.00
H213   H     0.85414   0.17056   0.40241   0.00000  Uiso   1.00
H214   H     0.88490   0.13398   0.42574   0.00000  Uiso   1.00
O215   O     0.83333   0.16667   0.25000   0.00000  Uiso   1.00
O216   O     0.82360   0.12393   0.16625   0.00000  Uiso   1.00
O217   O     0.79354   0.20646   0.33749   0.00000  Uiso   1.00
O218   O     0.87755   0.17493   0.15877   0.00000  Uiso   1.00
O219   O     0.83865   0.16135   0.33749   0.00000  Uiso   1.00
O220   O     0.84515   0.08101   0.27821   0.00000  Uiso   1.00
O221   O     0.81247   0.26136   0.26767   0.00000  Uiso   1.00
O222   O     0.74119   0.13251   0.23607   0.00000  Uiso   1.00
O223   O     0.93452   0.19179   0.21806   0.00000  Uiso   1.00
O224   O     0.73656   0.18960   0.27820   0.00000  Uiso   1.00
O225   O     0.92106   0.15277   0.26768   0.00000  Uiso   1.00
O226   O     0.80467   0.06903   0.23607   0.00000  Uiso   1.00
O227   O     0.87104   0.25527   0.21806   0.00000  Uiso   1.00
Zn228  Zn    0.85910   0.14090   0.28278   0.00000  Uiso   1.00
Zn229  Zn    0.80125   0.12378   0.22258   0.00000  Uiso   1.00
Zn230  Zn    0.87833   0.19664   0.21188   0.00000  Uiso   1.00
Zn231  Zn    0.79465   0.20535   0.28277   0.00000  Uiso   1.00
Br232  Br    0.23265   0.34632   0.20204   0.00000  Uiso   1.00
Br233  Br    0.09585   0.66082   0.29887   0.00000  Uiso   1.00
C234   C     0.05230   0.49303   0.25945   0.00000  Uiso   1.00
C235   C     0.20545   0.46859   0.45757   0.00000  Uiso   1.00
C236   C     0.23105   0.45469   0.47696   0.00000  Uiso   1.00
C237   C     0.28148   0.50587   0.23991   0.00000  Uiso   1.00
C238   C     0.21843   0.45674   0.01820   0.00000  Uiso   1.00
C239   C     0.17751   0.46970   0.04030   0.00000  Uiso   1.00
C240   C     0.24721   0.44790   0.03768   0.00000  Uiso   1.00
C241   C     0.23688   0.45415   0.07894   0.00000  Uiso   1.00
C242   C     0.16952   0.47892   0.08161   0.00000  Uiso   1.00
C243   C     0.32838   0.50507   0.23272   0.00000  Uiso   1.00
C244   C     0.00724   0.49290   0.26197   0.00000  Uiso   1.00
C245   C     0.08575   0.53101   0.42311   0.00000  Uiso   1.00
C246   C     0.18109   0.65569   0.23923   0.00000  Uiso   1.00
C247   C     0.15056   0.34613   0.26233   0.00000  Uiso   1.00
C248   C     0.15611   0.38967   0.25867   0.00000  Uiso   1.00
C249   C     0.17676   0.61110   0.24146   0.00000  Uiso   1.00
C250   C     0.18823   0.47892   0.14382   0.00000  Uiso   1.00
C251   C     0.14421   0.52023   0.35659   0.00000  Uiso   1.00
C252   C     0.12818   0.52181   0.40060   0.00000  Uiso   1.00
C253   C     0.19822   0.47009   0.10084   0.00000  Uiso   1.00
C254   C     0.07095   0.52388   0.46326   0.00000  Uiso   1.00
C255   C     0.02946   0.51661   0.19421   0.00000  Uiso   1.00
C256   C     0.15468   0.50796   0.41977   0.00000  Uiso   1.00
C257   C     0.01335   0.52727   0.16096   0.00000  Uiso   1.00
C258   C     0.05412   0.54606   0.40580   0.00000  Uiso   1.00
C259   C     0.03136   0.51004   0.38432   0.00000  Uiso   1.00
C260   C     0.07624   0.45408   0.07367   0.00000  Uiso   1.00
C261   C     0.08318   0.40804   0.06580   0.00000  Uiso   1.00
C262   C     0.13912   0.49889   0.45962   0.00000  Uiso   1.00
C263   C     0.09656   0.50708   0.48117   0.00000  Uiso   1.00
C264   C     0.16456   0.48199   0.47867   0.00000  Uiso   1.00
C265   C     0.14799   0.47703   0.02006   0.00000  Uiso   1.00
C266   C     0.10251   0.47823   0.03862   0.00000  Uiso   1.00
C267   C     0.07853   0.49589   0.01969   0.00000  Uiso   1.00
H268   H     0.04450   0.49890   0.03433   0.00000  Uiso   1.00
H269   H     0.32344   0.50148   0.15289   0.00000  Uiso   1.00
H270   H     0.33175   0.55687   0.16970   0.00000  Uiso   1.00
H271   H     0.04134   0.53179   0.13417   0.00000  Uiso   1.00
H272   H     0.05201   0.54352   0.20158   0.00000  Uiso   1.00
H273   H     0.04862   0.48989   0.18156   0.00000  Uiso   1.00
H274   H     0.00942   0.52228   0.37109   0.00000  Uiso   1.00
H275   H     0.05504   0.49300   0.36023   0.00000  Uiso   1.00
H276   H     0.01169   0.48790   0.40569   0.00000  Uiso   1.00
H277   H     0.02862   0.56119   0.42986   0.00000  Uiso   1.00
H278   H     0.07021   0.57082   0.38619   0.00000  Uiso   1.00
H279   H     0.27817   0.43723   0.02096   0.00000  Uiso   1.00
H280   H     0.07659   0.39434   0.03742   0.00000  Uiso   1.00
H281   H     0.11678   0.40378   0.06441   0.00000  Uiso   1.00
H282   H     0.06062   0.39103   0.09025   0.00000  Uiso   1.00
H283   H     0.08181   0.46748   0.10224   0.00000  Uiso   1.00
H284   H     0.04094   0.45523   0.07898   0.00000  Uiso   1.00
H285   H     0.31730   0.48647   0.29027   0.00000  Uiso   1.00
H286   H     0.14339   0.49647   0.09882   0.00000  Uiso   1.00
H287   H     0.25949   0.44764   0.09371   0.00000  Uiso   1.00
H288   H     0.26210   0.44455   0.45969   0.00000  Uiso   1.00
H289   H     0.03822   0.52974   0.48033   0.00000  Uiso   1.00
H290   H     0.18747   0.50389   0.40241   0.00000  Uiso   1.00
H291   H     0.21823   0.46731   0.42574   0.00000  Uiso   1.00
O292   O     0.16667   0.50000   0.25000   0.00000  Uiso   1.00
O293   O     0.15693   0.45726   0.16625   0.00000  Uiso   1.00
O294   O     0.12687   0.53979   0.33749   0.00000  Uiso   1.00
O295   O     0.21088   0.50826   0.15877   0.00000  Uiso   1.00
O296   O     0.17198   0.49468   0.33749   0.00000  Uiso   1.00
O297   O     0.17849   0.41434   0.27821   0.00000  Uiso   1.00
O298   O     0.14581   0.59469   0.26767   0.00000  Uiso   1.00
O299   O     0.07452   0.46584   0.23607   0.00000  Uiso   1.00
O300   O     0.26785   0.52512   0.21806   0.00000  Uiso   1.00
O301   O     0.06990   0.52293   0.27820   0.00000  Uiso   1.00
O302   O     0.25440   0.48610   0.26768   0.00000  Uiso   1.00
O303   O     0.13800   0.40236   0.23607   0.00000  Uiso   1.00
O304   O     0.20437   0.58860   0.21806   0.00000  Uiso   1.00
Zn305  Zn    0.19244   0.47423   0.28278   0.00000  Uiso   1.00
Zn306  Zn    0.13459   0.45711   0.22258   0.00000  Uiso   1.00
Zn307  Zn    0.21166   0.52997   0.21188   0.00000  Uiso   1.00
Zn308  Zn    0.12798   0.53868   0.28277   0.00000  Uiso   1.00
Br309  Br    0.56599   0.34632   0.20204   0.00000  Uiso   1.00
Br310  Br    0.42918   0.66082   0.29887   0.00000  Uiso   1.00
C311   C     0.38563   0.49303   0.25945   0.00000  Uiso   1.00
C312   C     0.53879   0.46859   0.45757   0.00000  Uiso   1.00
C313   C     0.56439   0.45469   0.47696   0.00000  Uiso   1.00
C314   C     0.61481   0.50587   0.23991   0.00000  Uiso   1.00
C315   C     0.55176   0.45674   0.01820   0.00000  Uiso   1.00
C316   C     0.51085   0.46970   0.04030   0.00000  Uiso   1.00
C317   C     0.58054   0.44790   0.03768   0.00000  Uiso   1.00
C318   C     0.57021   0.45415   0.07894   0.00000  Uiso   1.00
C319   C     0.50286   0.47892   0.08161   0.00000  Uiso   1.00
C320   C     0.66171   0.50507   0.23272   0.00000  Uiso   1.00
C321   C     0.34057   0.49290   0.26197   0.00000  Uiso   1.00
C322   C     0.41908   0.53101   0.42311   0.00000  Uiso   1.00
C323   C     0.51443   0.65569   0.23923   0.00000  Uiso   1.00
C324   C     0.48389   0.34613   0.26233   0.00000  Uiso   1.00
C325   C     0.48945   0.38967   0.25867   0.00000  Uiso   1.00
C326   C     0.51010   0.61110   0.24146   0.00000  Uiso   1.00
C327   C     0.52156   0.47892   0.14382   0.00000  Uiso   1.00
C328   C     0.47755   0.52023   0.35659   0.00000  Uiso   1.00
C329   C     0.46151   0.52181   0.40060   0.00000  Uiso   1.00
C330   C     0.53155   0.47009   0.10084   0.00000  Uiso   1.00
C331   C     0.40428   0.52388   0.46326   0.00000  Uiso   1.00
C332   C     0.36280   0.51661   0.19421   0.00000  Uiso   1.00
C333   C     0.48801   0.50796   0.41977   0.00000  Uiso   1.00
C334   C     0.34669   0.52727   0.16096   0.00000  Uiso   1.00
C335   C     0.38745   0.54606   0.40580   0.00000  Uiso   1.00
C336   C     0.36470   0.51004   0.38432   0.00000  Uiso   1.00
C337   C     0.40957   0.45408   0.07367   0.00000  Uiso   1.00
C338   C     0.41652   0.40804   0.06580   0.00000  Uiso   1.00
C339   C     0.47246   0.49889   0.45962   0.00000  Uiso   1.00
C340   C     0.42990   0.50708   0.48117   0.00000  Uiso   1.00
C341   C     0.49789   0.48199   0.47867   0.00000  Uiso   1.00
C342   C     0.48133   0.47703   0.02006   0.00000  Uiso   1.00
C343   C     0.43584   0.47823   0.03862   0.00000  Uiso   1.00
C344   C     0.41186   0.49589   0.01969   0.00000  Uiso   1.00
H345   H     0.37784   0.49890   0.03433   0.00000  Uiso   1.00
H346   H     0.65678   0.50148   0.15289   0.00000  Uiso   1.00
H347   H     0.66508   0.55687   0.16970   0.00000  Uiso   1.00
H348   H     0.37468   0.53179   0.13417   0.00000  Uiso   1.00
H349   H     0.38534   0.54352   0.20158   0.00000  Uiso   1.00
H350   H     0.38195   0.48989   0.18156   0.00000  Uiso   1.00
H351   H     0.34275   0.52228   0.37109   0.00000  Uiso   1.00
H352   H     0.38837   0.49300   0.36023   0.00000  Uiso   1.00
H353   H     0.34503   0.48790   0.40569   0.00000  Uiso   1.00
H354   H     0.36195   0.56119   0.42986   0.00000  Uiso   1.00
H355   H     0.40354   0.57082   0.38619   0.00000  Uiso   1.00
H356   H     0.61150   0.43723   0.02096   0.00000  Uiso   1.00
H357   H     0.40993   0.39434   0.03742   0.00000  Uiso   1.00
H358   H     0.45011   0.40378   0.06441   0.00000  Uiso   1.00
H359   H     0.39395   0.39103   0.09025   0.00000  Uiso   1.00
H360   H     0.41515   0.46748   0.10224   0.00000  Uiso   1.00
H361   H     0.37427   0.45523   0.07898   0.00000  Uiso   1.00
H362   H     0.65063   0.48647   0.29027   0.00000  Uiso   1.00
H363   H     0.47672   0.49647   0.09882   0.00000  Uiso   1.00
H364   H     0.59282   0.44764   0.09371   0.00000  Uiso   1.00
H365   H     0.59544   0.44455   0.45969   0.00000  Uiso   1.00
H366   H     0.37155   0.52974   0.48033   0.00000  Uiso   1.00
H367   H     0.52080   0.50389   0.40241   0.00000  Uiso   1.00
H368   H     0.55157   0.46731   0.42574   0.00000  Uiso   1.00
O369   O     0.50000   0.50000   0.25000   0.00000  Uiso   1.00
O370   O     0.49027   0.45726   0.16625   0.00000  Uiso   1.00
O371   O     0.46020   0.53979   0.33749   0.00000  Uiso   1.00
O372   O     0.54421   0.50826   0.15877   0.00000  Uiso   1.00
O373   O     0.50532   0.49468   0.33749   0.00000  Uiso   1.00
O374   O     0.51182   0.41434   0.27821   0.00000  Uiso   1.00
O375   O     0.47914   0.59469   0.26767   0.00000  Uiso   1.00
O376   O     0.40785   0.46584   0.23607   0.00000  Uiso   1.00
O377   O     0.60119   0.52512   0.21806   0.00000  Uiso   1.00
O378   O     0.40323   0.52293   0.27820   0.00000  Uiso   1.00
O379   O     0.58773   0.48610   0.26768   0.00000  Uiso   1.00
O380   O     0.47133   0.40236   0.23607   0.00000  Uiso   1.00
O381   O     0.53771   0.58860   0.21806   0.00000  Uiso   1.00
Zn382  Zn    0.52577   0.47423   0.28278   0.00000  Uiso   1.00
Zn383  Zn    0.46792   0.45711   0.22258   0.00000  Uiso   1.00
Zn384  Zn    0.54500   0.52997   0.21188   0.00000  Uiso   1.00
Zn385  Zn    0.46131   0.53868   0.28277   0.00000  Uiso   1.00
Br386  Br    0.89932   0.34632   0.20204   0.00000  Uiso   1.00
Br387  Br    0.76252   0.66082   0.29887   0.00000  Uiso   1.00
C388   C     0.71896   0.49303   0.25945   0.00000  Uiso   1.00
C389   C     0.87212   0.46859   0.45757   0.00000  Uiso   1.00
C390   C     0.89772   0.45469   0.47696   0.00000  Uiso   1.00
C391   C     0.94815   0.50587   0.23991   0.00000  Uiso   1.00
C392   C     0.88509   0.45674   0.01820   0.00000  Uiso   1.00
C393   C     0.84418   0.46970   0.04030   0.00000  Uiso   1.00
C394   C     0.91387   0.44790   0.03768   0.00000  Uiso   1.00
C395   C     0.90355   0.45415   0.07894   0.00000  Uiso   1.00
C396   C     0.83619   0.47892   0.08161   0.00000  Uiso   1.00
C397   C     0.99505   0.50507   0.23272   0.00000  Uiso   1.00
C398   C     0.67390   0.49290   0.26197   0.00000  Uiso   1.00
C399   C     0.75241   0.53101   0.42311   0.00000  Uiso   1.00
C400   C     0.84776   0.65569   0.23923   0.00000  Uiso   1.00
C401   C     0.81723   0.34613   0.26233   0.00000  Uiso   1.00
C402   C     0.82278   0.38967   0.25867   0.00000  Uiso   1.00
C403   C     0.84343   0.61110   0.24146   0.00000  Uiso   1.00
C404   C     0.85490   0.47892   0.14382   0.00000  Uiso   1.00
C405   C     0.81088   0.52023   0.35659   0.00000  Uiso   1.00
C406   C     0.79485   0.52181   0.40060   0.00000  Uiso   1.00
C407   C     0.86489   0.47009   0.10084   0.00000  Uiso   1.00
C408   C     0.73761   0.52388   0.46326   0.00000  Uiso   1.00
C409   C     0.69613   0.51661   0.19421   0.00000  Uiso   1.00
C410   C     0.82134   0.50796   0.41977   0.00000  Uiso   1.00
C411   C     0.68002   0.52727   0.16096   0.00000  Uiso   1.00
C412   C     0.72078   0.54606   0.40580   0.00000  Uiso   1.00
C413   C     0.69803   0.51004   0.38432   0.00000  Uiso   1.00
C414   C     0.74290   0.45408   0.07367   0.00000  Uiso   1.00
C415   C     0.74985   0.40804   0.06580   0.00000  Uiso   1.00
C416   C     0.80579   0.49889   0.45962   0.00000  Uiso   1.00
C417   C     0.76323   0.50708   0.48117   0.00000  Uiso   1.00
C418   C     0.83122   0.48199   0.47867   0.00000  Uiso   1.00
C419   C     0.81466   0.47703   0.02006   0.00000  Uiso   1.00
C420   C     0.76917   0.47823   0.03862   0.00000  Uiso   1.00
C421   C     0.74520   0.49589   0.01969   0.00000  Uiso   1.00
H422   H     0.71117   0.49890   0.03433   0.00000  Uiso   1.00
H423   H     0.99011   0.50148   0.15289   0.00000  Uiso   1.00
H424   H     0.99842   0.55687   0.16970   0.00000  Uiso   1.00
H425   H     0.70801   0.53179   0.13417   0.00000  Uiso   1.00
H426   H     0.71868   0.54352   0.20158   0.00000  Uiso   1.00
H427   H     0.71528   0.48989   0.18156   0.00000  Uiso   1.00
H428   H     0.67609   0.52228   0.37109   0.00000  Uiso   1.00
H429   H     0.72170   0.49300   0.36023   0.00000  Uiso   1.00
H430   H     0.67836   0.48790   0.40569   0.00000  Uiso   1.00
H431   H     0.69528   0.56119   0.42986   0.00000  Uiso   1.00
H432   H     0.73687   0.57082   0.38619   0.00000  Uiso   1.00
H433   H     0.94484   0.43723   0.02096   0.00000  Uiso   1.00
H434   H     0.74326   0.39434   0.03742   0.00000  Uiso   1.00
H435   H     0.78345   0.40378   0.06441   0.00000  Uiso   1.00
H436   H     0.72728   0.39103   0.09025   0.00000  Uiso   1.00
H437   H     0.74848   0.46748   0.10224   0.00000  Uiso   1.00
H438   H     0.70760   0.45523   0.07898   0.00000  Uiso   1.00
H439   H     0.98396   0.48647   0.29027   0.00000  Uiso   1.00
H440   H     0.81005   0.49647   0.09882   0.00000  Uiso   1.00
H441   H     0.92615   0.44764   0.09371   0.00000  Uiso   1.00
H442   H     0.92877   0.44455   0.45969   0.00000  Uiso   1.00
H443   H     0.70489   0.52974   0.48033   0.00000  Uiso   1.00
H444   H     0.85414   0.50389   0.40241   0.00000  Uiso   1.00
H445   H     0.88490   0.46731   0.42574   0.00000  Uiso   1.00
O446   O     0.83333   0.50000   0.25000   0.00000  Uiso   1.00
O447   O     0.82360   0.45726   0.16625   0.00000  Uiso   1.00
O448   O     0.79354   0.53979   0.33749   0.00000  Uiso   1.00
O449   O     0.87755   0.50826   0.15877   0.00000  Uiso   1.00
O450   O     0.83865   0.49468   0.33749   0.00000  Uiso   1.00
O451   O     0.84515   0.41434   0.27821   0.00000  Uiso   1.00
O452   O     0.81247   0.59469   0.26767   0.00000  Uiso   1.00
O453   O     0.74119   0.46584   0.23607   0.00000  Uiso   1.00
O454   O     0.93452   0.52512   0.21806   0.00000  Uiso   1.00
O455   O     0.73656   0.52293   0.27820   0.00000  Uiso   1.00
O456   O     0.92106   0.48610   0.26768   0.00000  Uiso   1.00
O457   O     0.80467   0.40236   0.23607   0.00000  Uiso   1.00
O458   O     0.87104   0.58860   0.21806   0.00000  Uiso   1.00
Zn459  Zn    0.85910   0.47423   0.28278   0.00000  Uiso   1.00
Zn460  Zn    0.80125   0.45711   0.22258   0.00000  Uiso   1.00
Zn461  Zn    0.87833   0.52997   0.21188   0.00000  Uiso   1.00
Zn462  Zn    0.79465   0.53868   0.28277   0.00000  Uiso   1.00
Br463  Br    0.23265   0.67965   0.20204   0.00000  Uiso   1.00
Br464  Br    0.09585   0.99415   0.29887   0.00000  Uiso   1.00
C465   C     0.05230   0.82636   0.25945   0.00000  Uiso   1.00
C466   C     0.20545   0.80192   0.45757   0.00000  Uiso   1.00
C467   C     0.23105   0.78802   0.47696   0.00000  Uiso   1.00
C468   C     0.28148   0.83920   0.23991   0.00000  Uiso   1.00
C469   C     0.21843   0.79008   0.01820   0.00000  Uiso   1.00
C470   C     0.17751   0.80304   0.04030   0.00000  Uiso   1.00
C471   C     0.24721   0.78123   0.03768   0.00000  Uiso   1.00
C472   C     0.23688   0.78749   0.07894   0.00000  Uiso   1.00
C473   C     0.16952   0.81225   0.08161   0.00000  Uiso   1.00
C474   C     0.32838   0.83841   0.23272   0.00000  Uiso   1.00
C475   C     0.00724   0.82623   0.26197   0.00000  Uiso   1.00
C476   C     0.08575   0.86435   0.42311   0.00000  Uiso   1.00
C477   C     0.18109   0.98903   0.23923   0.00000  Uiso   1.00
C478   C     0.15056   0.67946   0.26233   0.00000  Uiso   1.00
C479   C     0.15611   0.72301   0.25867   0.00000  Uiso   1.00
C480   C     0.17676   0.94444   0.24146   0.00000  Uiso   1.00
C481   C     0.18823   0.81225   0.14382   0.00000  Uiso   1.00
C482   C     0.14421   0.85357   0.35659   0.00000  Uiso   1.00
C483   C     0.12818   0.85515   0.40060   0.00000  Uiso   1.00
C484   C     0.19822   0.80342   0.10084   0.00000  Uiso   1.00
C485   C     0.07095   0.85722   0.46326   0.00000  Uiso   1.00
C486   C     0.02946   0.84994   0.19421   0.00000  Uiso   1.00
C487   C     0.15468   0.84130   0.41977   0.00000  Uiso   1.00
C488   C     0.01335   0.86060   0.16096   0.00000  Uiso   1.00
C489   C     0.05412   0.87940   0.40580   0.00000  Uiso   1.00
C490   C     0.03136   0.84338   0.38432   0.00000  Uiso   1.00
C491   C     0.07624   0.78741   0.07367   0.00000  Uiso   1.00
C492   C     0.08318   0.74138   0.06580   0.00000  Uiso   1.00
C493   C     0.13912   0.83222   0.45962   0.00000  Uiso   1.00
C494   C     0.09656   0.84041   0.48117   0.00000  Uiso   1.00
C495   C     0.16456   0.81532   0.47867   0.00000  Uiso   1.00
C496   C     0.14799   0.81037   0.02006   0.00000  Uiso   1.00
C497   C     0.10251   0.81156   0.03862   0.00000  Uiso   1.00
C498   C     0.07853   0.82922   0.01969   0.00000  Uiso   1.00
H499   H     0.04450   0.83223   0.03433   0.00000  Uiso   1.00
H500   H     0.32344   0.83481   0.15289   0.00000  Uiso   1.00
H501   H     0.33175   0.89020   0.16970   0.00000  Uiso   1.00
H502   H     0.04134   0.86513   0.13417   0.00000  Uiso   1.00
H503   H     0.05201   0.87685   0.20158   0.00000  Uiso   1.00
H504   H     0.04862   0.82322   0.18156   0.00000  Uiso   1.00
H505   H     0.00942   0.85561   0.37109   0.00000  Uiso   1.00
H506   H     0.05504   0.82633   0.36023   0.00000  Uiso   1.00
H507   H     0.01169   0.82123   0.40569   0.00000  Uiso   1.00
H508   H     0.02862   0.89452   0.42986   0.00000  Uiso   1.00
H509   H     0.07021   0.90415   0.38619   0.00000  Uiso   1.00
H510   H     0.27817   0.77057   0.02096   0.00000  Uiso   1.00
H511   H     0.07659   0.72767   0.03742   0.00000  Uiso   1.00
H512   H     0.11678   0.73711   0.06441   0.00000  Uiso   1.00
H513   H     0.06062   0.72436   0.09025   0.00000  Uiso   1.00
H514   H     0.08181   0.80082   0.10224   0.00000  Uiso   1.00
H515   H     0.04094   0.78856   0.07898   0.00000  Uiso   1.00
H516   H     0.31730   0.81980   0.29027   0.00000  Uiso   1.00
H517   H     0.14339   0.82980   0.09882   0.00000  Uiso   1.00
H518   H     0.25949   0.78097   0.09371   0.00000  Uiso   1.00
H519   H     0.26210   0.77788   0.45969   0.00000  Uiso   1.00
H520   H     0.03822   0.86307   0.48033   0.00000  Uiso   1.00
H521   H     0.18747   0.83723   0.40241   0.00000  Uiso   1.00
H522   H     0.21823   0.80065   0.42574   0.00000  Uiso   1.00
O523   O     0.16667   0.83333   0.25000   0.00000  Uiso   1.00
O524   O     0.15693   0.79060   0.16625   0.00000  Uiso   1.00
O525   O     0.12687   0.87313   0.33749   0.00000  Uiso   1.00
O526   O     0.21088   0.84159   0.15877   0.00000  Uiso   1.00
O527   O     0.17198   0.82802   0.33749   0.00000  Uiso   1.00
O528   O     0.17849   0.74768   0.27821   0.00000  Uiso   1.00
O529   O     0.14581   0.92803   0.26767   0.00000  Uiso   1.00
O530   O     0.07452   0.79917   0.23607   0.00000  Uiso   1.00
O531   O     0.26785   0.85845   0.21806   0.00000  Uiso   1.00
O532   O     0.06990   0.85627   0.27820   0.00000  Uiso   1.00
O533   O     0.25440   0.81944   0.26768   0.00000  Uiso   1.00
O534   O     0.13800   0.73570   0.23607   0.00000  Uiso   1.00
O535   O     0.20437   0.92193   0.21806   0.00000  Uiso   1.00
Zn536  Zn    0.19244   0.80756   0.28278   0.00000  Uiso   1.00
Zn537  Zn    0.13459   0.79044   0.22258   0.00000  Uiso   1.00
Zn538  Zn    0.21166   0.86331   0.21188   0.00000  Uiso   1.00
Zn539  Zn    0.12798   0.87202   0.28277   0.00000  Uiso   1.00
Br540  Br    0.56599   0.67965   0.20204   0.00000  Uiso   1.00
Br541  Br    0.42918   0.99415   0.29887   0.00000  Uiso   1.00
C542   C     0.38563   0.82636   0.25945   0.00000  Uiso   1.00
C543   C     0.53879   0.80192   0.45757   0.00000  Uiso   1.00
C544   C     0.56439   0.78802   0.47696   0.00000  Uiso   1.00
C545   C     0.61481   0.83920   0.23991   0.00000  Uiso   1.00
C546   C     0.55176   0.79008   0.01820   0.00000  Uiso   1.00
C547   C     0.51085   0.80304   0.04030   0.00000  Uiso   1.00
C548   C     0.58054   0.78123   0.03768   0.00000  Uiso   1.00
C549   C     0.57021   0.78749   0.07894   0.00000  Uiso   1.00
C550   C     0.50286   0.81225   0.08161   0.00000  Uiso   1.00
C551   C     0.66171   0.83841   0.23272   0.00000  Uiso   1.00
C552   C     0.34057   0.82623   0.26197   0.00000  Uiso   1.00
C553   C     0.41908   0.86435   0.42311   0.00000  Uiso   1.00
C554   C     0.51443   0.98903   0.23923   0.00000  Uiso   1.00
C555   C     0.48389   0.67946   0.26233   0.00000  Uiso   1.00
C556   C     0.48945   0.72301   0.25867   0.00000  Uiso   1.00
C557   C     0.51010   0.94444   0.24146   0.00000  Uiso   1.00
C558   C     0.52156   0.81225   0.14382   0.00000  Uiso   1.00
C559   C     0.47755   0.85357   0.35659   0.00000  Uiso   1.00
C560   C     0.46151   0.85515   0.40060   0.00000  Uiso   1.00
C561   C     0.53155   0.80342   0.10084   0.00000  Uiso   1.00
C562   C     0.40428   0.85722   0.46326   0.00000  Uiso   1.00
C563   C     0.36280   0.84994   0.19421   0.00000  Uiso   1.00
C564   C     0.48801   0.84130   0.41977   0.00000  Uiso   1.00
C565   C     0.34669   0.86060   0.16096   0.00000  Uiso   1.00
C566   C     0.38745   0.87940   0.40580   0.00000  Uiso   1.00
C567   C     0.36470   0.84338   0.38432   0.00000  Uiso   1.00
C568   C     0.40957   0.78741   0.07367   0.00000  Uiso   1.00
C569   C     0.41652   0.74138   0.06580   0.00000  Uiso   1.00
C570   C     0.47246   0.83222   0.45962   0.00000  Uiso   1.00
C571   C     0.42990   0.84041   0.48117   0.00000  Uiso   1.00
C572   C     0.49789   0.81532   0.47867   0.00000  Uiso   1.00
C573   C     0.48133   0.81037   0.02006   0.00000  Uiso   1.00
C574   C     0.43584   0.81156   0.03862   0.00000  Uiso   1.00
C575   C     0.41186   0.82922   0.01969   0.00000  Uiso   1.00
H576   H     0.37784   0.83223   0.03433   0.00000  Uiso   1.00
H577   H     0.65678   0.83481   0.15289   0.00000  Uiso   1.00
H578   H     0.66508   0.89020   0.16970   0.00000  Uiso   1.00
H579   H     0.37468   0.86513   0.13417   0.00000  Uiso   1.00
H580   H     0.38534   0.87685   0.20158   0.00000  Uiso   1.00
H581   H     0.38195   0.82322   0.18156   0.00000  Uiso   1.00
H582   H     0.34275   0.85561   0.37109   0.00000  Uiso   1.00
H583   H     0.38837   0.82633   0.36023   0.00000  Uiso   1.00
H584   H     0.34503   0.82123   0.40569   0.00000  Uiso   1.00
H585   H     0.36195   0.89452   0.42986   0.00000  Uiso   1.00
H586   H     0.40354   0.90415   0.38619   0.00000  Uiso   1.00
H587   H     0.61150   0.77057   0.02096   0.00000  Uiso   1.00
H588   H     0.40993   0.72767   0.03742   0.00000  Uiso   1.00
H589   H     0.45011   0.73711   0.06441   0.00000  Uiso   1.00
H590   H     0.39395   0.72436   0.09025   0.00000  Uiso   1.00
H591   H     0.41515   0.80082   0.10224   0.00000  Uiso   1.00
H592   H     0.37427   0.78856   0.07898   0.00000  Uiso   1.00
H593   H     0.65063   0.81980   0.29027   0.00000  Uiso   1.00
H594   H     0.47672   0.82980   0.09882   0.00000  Uiso   1.00
H595   H     0.59282   0.78097   0.09371   0.00000  Uiso   1.00
H596   H     0.59544   0.77788   0.45969   0.00000  Uiso   1.00
H597   H     0.37155   0.86307   0.48033   0.00000  Uiso   1.00
H598   H     0.52080   0.83723   0.40241   0.00000  Uiso   1.00
H599   H     0.55157   0.80065   0.42574   0.00000  Uiso   1.00
O600   O     0.50000   0.83333   0.25000   0.00000  Uiso   1.00
O601   O     0.49027   0.79060   0.16625   0.00000  Uiso   1.00
O602   O     0.46020   0.87313   0.33749   0.00000  Uiso   1.00
O603   O     0.54421   0.84159   0.15877   0.00000  Uiso   1.00
O604   O     0.50532   0.82802   0.33749   0.00000  Uiso   1.00
O605   O     0.51182   0.74768   0.27821   0.00000  Uiso   1.00
O606   O     0.47914   0.92803   0.26767   0.00000  Uiso   1.00
O607   O     0.40785   0.79917   0.23607   0.00000  Uiso   1.00
O608   O     0.60119   0.85845   0.21806   0.00000  Uiso   1.00
O609   O     0.40323   0.85627   0.27820   0.00000  Uiso   1.00
O610   O     0.58773   0.81944   0.26768   0.00000  Uiso   1.00
O611   O     0.47133   0.73570   0.23607   0.00000  Uiso   1.00
O612   O     0.53771   0.92193   0.21806   0.00000  Uiso   1.00
Zn613  Zn    0.52577   0.80756   0.28278   0.00000  Uiso   1.00
Zn614  Zn    0.46792   0.79044   0.22258   0.00000  Uiso   1.00
Zn615  Zn    0.54500   0.86331   0.21188   0.00000  Uiso   1.00
Zn616  Zn    0.46131   0.87202   0.28277   0.00000  Uiso   1.00
Br617  Br    0.89932   0.67965   0.20204   0.00000  Uiso   1.00
Br618  Br    0.76252   0.99415   0.29887   0.00000  Uiso   1.00
C619   C     0.71896   0.82636   0.25945   0.00000  Uiso   1.00
C620   C     0.87212   0.80192   0.45757   0.00000  Uiso   1.00
C621   C     0.89772   0.78802   0.47696   0.00000  Uiso   1.00
C622   C     0.94815   0.83920   0.23991   0.00000  Uiso   1.00
C623   C     0.88509   0.79008   0.01820   0.00000  Uiso   1.00
C624   C     0.84418   0.80304   0.04030   0.00000  Uiso   1.00
C625   C     0.91387   0.78123   0.03768   0.00000  Uiso   1.00
C626   C     0.90355   0.78749   0.07894   0.00000  Uiso   1.00
C627   C     0.83619   0.81225   0.08161   0.00000  Uiso   1.00
C628   C     0.99505   0.83841   0.23272   0.00000  Uiso   1.00
C629   C     0.67390   0.82623   0.26197   0.00000  Uiso   1.00
C630   C     0.75241   0.86435   0.42311   0.00000  Uiso   1.00
C631   C     0.84776   0.98903   0.23923   0.00000  Uiso   1.00
C632   C     0.81723   0.67946   0.26233   0.00000  Uiso   1.00
C633   C     0.82278   0.72301   0.25867   0.00000  Uiso   1.00
C634   C     0.84343   0.94444   0.24146   0.00000  Uiso   1.00
C635   C     0.85490   0.81225   0.14382   0.00000  Uiso   1.00
C636   C     0.81088   0.85357   0.35659   0.00000  Uiso   1.00
C637   C     0.79485   0.85515   0.40060   0.00000  Uiso   1.00
C638   C     0.86489   0.80342   0.10084   0.00000  Uiso   1.00
C639   C     0.73761   0.85722   0.46326   0.00000  Uiso   1.00
C640   C     0.69613   0.84994   0.19421   0.00000  Uiso   1.00
C641   C     0.82134   0.84130   0.41977   0.00000  Uiso   1.00
C642   C     0.68002   0.86060   0.16096   0.00000  Uiso   1.00
C643   C     0.72078   0.87940   0.40580   0.00000  Uiso   1.00
C644   C     0.69803   0.84338   0.38432   0.00000  Uiso   1.00
C645   C     0.74290   0.78741   0.07367   0.00000  Uiso   1.00
C646   C     0.74985   0.74138   0.06580   0.00000  Uiso   1.00
C647   C     0.80579   0.83222   0.45962   0.00000  Uiso   1.00
C648   C     0.76323   0.84041   0.48117   0.00000  Uiso   1.00
C649   C     0.83122   0.81532   0.47867   0.00000  Uiso   1.00
C650   C     0.81466   0.81037   0.02006   0.00000  Uiso   1.00
C651   C     0.76917   0.81156   0.03862   0.00000  Uiso   1.00
C652   C     0.74520   0.82922   0.01969   0.00000  Uiso   1.00
H653   H     0.71117   0.83223   0.03433   0.00000  Uiso   1.00
H654   H     0.99011   0.83481   0.15289   0.00000  Uiso   1.00
H655   H     0.99842   0.89020   0.16970   0.00000  Uiso   1.00
H656   H     0.70801   0.86513   0.13417   0.00000  Uiso   1.00
H657   H     0.71868   0.87685   0.20158   0.00000  Uiso   1.00
H658   H     0.71528   0.82322   0.18156   0.00000  Uiso   1.00
H659   H     0.67609   0.85561   0.37109   0.00000  Uiso   1.00
H660   H     0.72170   0.82633   0.36023   0.00000  Uiso   1.00
H661   H     0.67836   0.82123   0.40569   0.00000  Uiso   1.00
H662   H     0.69528   0.89452   0.42986   0.00000  Uiso   1.00
H663   H     0.73687   0.90415   0.38619   0.00000  Uiso   1.00
H664   H     0.94484   0.77057   0.02096   0.00000  Uiso   1.00
H665   H     0.74326   0.72767   0.03742   0.00000  Uiso   1.00
H666   H     0.78345   0.73711   0.06441   0.00000  Uiso   1.00
H667   H     0.72728   0.72436   0.09025   0.00000  Uiso   1.00
H668   H     0.74848   0.80082   0.10224   0.00000  Uiso   1.00
H669   H     0.70760   0.78856   0.07898   0.00000  Uiso   1.00
H670   H     0.98396   0.81980   0.29027   0.00000  Uiso   1.00
H671   H     0.81005   0.82980   0.09882   0.00000  Uiso   1.00
H672   H     0.92615   0.78097   0.09371   0.00000  Uiso   1.00
H673   H     0.92877   0.77788   0.45969   0.00000  Uiso   1.00
H674   H     0.70489   0.86307   0.48033   0.00000  Uiso   1.00
H675   H     0.85414   0.83723   0.40241   0.00000  Uiso   1.00
H676   H     0.88490   0.80065   0.42574   0.00000  Uiso   1.00
O677   O     0.83333   0.83333   0.25000   0.00000  Uiso   1.00
O678   O     0.82360   0.79060   0.16625   0.00000  Uiso   1.00
O679   O     0.79354   0.87313   0.33749   0.00000  Uiso   1.00
O680   O     0.87755   0.84159   0.15877   0.00000  Uiso   1.00
O681   O     0.83865   0.82802   0.33749   0.00000  Uiso   1.00
O682   O     0.84515   0.74768   0.27821   0.00000  Uiso   1.00
O683   O     0.81247   0.92803   0.26767   0.00000  Uiso   1.00
O684   O     0.74119   0.79917   0.23607   0.00000  Uiso   1.00
O685   O     0.93452   0.85845   0.21806   0.00000  Uiso   1.00
O686   O     0.73656   0.85627   0.27820   0.00000  Uiso   1.00
O687   O     0.92106   0.81944   0.26768   0.00000  Uiso   1.00
O688   O     0.80467   0.73570   0.23607   0.00000  Uiso   1.00
O689   O     0.87104   0.92193   0.21806   0.00000  Uiso   1.00
Zn690  Zn    0.85910   0.80756   0.28278   0.00000  Uiso   1.00
Zn691  Zn    0.80125   0.79044   0.22258   0.00000  Uiso   1.00
Zn692  Zn    0.87833   0.86331   0.21188   0.00000  Uiso   1.00
Zn693  Zn    0.79465   0.87202   0.28277   0.00000  Uiso   1.00
Br694  Br    0.23265   0.01299   0.70204   0.00000  Uiso   1.00
Br695  Br    0.09585   0.32749   0.79887   0.00000  Uiso   1.00
C696   C     0.05230   0.15969   0.75945   0.00000  Uiso   1.00
C697   C     0.20545   0.13525   0.95757   0.00000  Uiso   1.00
C698   C     0.23105   0.12135   0.97696   0.00000  Uiso   1.00
C699   C     0.28148   0.17254   0.73991   0.00000  Uiso   1.00
C700   C     0.21843   0.12341   0.51820   0.00000  Uiso   1.00
C701   C     0.17751   0.13637   0.54030   0.00000  Uiso   1.00
C702   C     0.24721   0.11456   0.53768   0.00000  Uiso   1.00
C703   C     0.23688   0.12082   0.57894   0.00000  Uiso   1.00
C704   C     0.16952   0.14558   0.58161   0.00000  Uiso   1.00
C705   C     0.32838   0.17174   0.73272   0.00000  Uiso   1.00
C706   C     0.00724   0.15957   0.76197   0.00000  Uiso   1.00
C707   C     0.08575   0.19768   0.92311   0.00000  Uiso   1.00
C708   C     0.18109   0.32236   0.73923   0.00000  Uiso   1.00
C709   C     0.15056   0.01279   0.76233   0.00000  Uiso   1.00
C710   C     0.15611   0.05634   0.75867   0.00000  Uiso   1.00
C711   C     0.17676   0.27777   0.74146   0.00000  Uiso   1.00
C712   C     0.18823   0.14559   0.64382   0.00000  Uiso   1.00
C713   C     0.14421   0.18690   0.85659   0.00000  Uiso   1.00
C714   C     0.12818   0.18848   0.90060   0.00000  Uiso   1.00
C715   C     0.19822   0.13676   0.60084   0.00000  Uiso   1.00
C716   C     0.07095   0.19055   0.96326   0.00000  Uiso   1.00
C717   C     0.02946   0.18327   0.69421   0.00000  Uiso   1.00
C718   C     0.15468   0.17463   0.91977   0.00000  Uiso   1.00
C719   C     0.01335   0.19394   0.66096   0.00000  Uiso   1.00
C720   C     0.05412   0.21273   0.90580   0.00000  Uiso   1.00
C721   C     0.03136   0.17671   0.88432   0.00000  Uiso   1.00
C722   C     0.07624   0.12075   0.57367   0.00000  Uiso   1.00
C723   C     0.08318   0.07471   0.56580   0.00000  Uiso   1.00
C724   C     0.13912   0.16556   0.95962   0.00000  Uiso   1.00
C725   C     0.09656   0.17374   0.98117   0.00000  Uiso   1.00
C726   C     0.16456   0.14865   0.97867   0.00000  Uiso   1.00
C727   C     0.14799   0.14370   0.52006   0.00000  Uiso   1.00
C728   C     0.10251   0.14489   0.53862   0.00000  Uiso   1.00
C729   C     0.07853   0.16256   0.51969   0.00000  Uiso   1.00
H730   H     0.04450   0.16557   0.53433   0.00000  Uiso   1.00
H731   H     0.32344   0.16815   0.65289   0.00000  Uiso   1.00
H732   H     0.33175   0.22353   0.66970   0.00000  Uiso   1.00
H733   H     0.04134   0.19846   0.63417   0.00000  Uiso   1.00
H734   H     0.05201   0.21019   0.70158   0.00000  Uiso   1.00
H735   H     0.04862   0.15655   0.68156   0.00000  Uiso   1.00
H736   H     0.00942   0.18894   0.87109   0.00000  Uiso   1.00
H737   H     0.05504   0.15966   0.86023   0.00000  Uiso   1.00
H738   H     0.01169   0.15457   0.90569   0.00000  Uiso   1.00
H739   H     0.02862   0.22785   0.92986   0.00000  Uiso   1.00
H740   H     0.07021   0.23748   0.88619   0.00000  Uiso   1.00
H741   H     0.27817   0.10390   0.52096   0.00000  Uiso   1.00
H742   H     0.07659   0.06100   0.53742   0.00000  Uiso   1.00
H743   H     0.11678   0.07045   0.56441   0.00000  Uiso   1.00
H744   H     0.06062   0.05769   0.59025   0.00000  Uiso   1.00
H745   H     0.08181   0.13415   0.60224   0.00000  Uiso   1.00
H746   H     0.04094   0.12189   0.57898   0.00000  Uiso   1.00
H747   H     0.31730   0.15313   0.79027   0.00000  Uiso   1.00
H748   H     0.14339   0.16314   0.59882   0.00000  Uiso   1.00
H749   H     0.25949   0.11431   0.59371   0.00000  Uiso   1.00
H750   H     0.26210   0.11121   0.95969   0.00000  Uiso   1.00
H751   H     0.03822   0.19641   0.98033   0.00000  Uiso   1.00
H752   H     0.18747   0.17056   0.90241   0.00000  Uiso   1.00
H753   H     0.21823   0.13398   0.92574   0.00000  Uiso   1.00
O754   O     0.16667   0.16667   0.75000   0.00000  Uiso   1.00
O755   O     0.15693   0.12393   0.66625   0.00000  Uiso   1.00
O756   O     0.12687   0.20646   0.83749   0.00000  Uiso   1.00
O757   O     0.21088   0.17493   0.65877   0.00000  Uiso   1.00
O758   O     0.17198   0.16135   0.83749   0.00000  Uiso   1.00
O759   O     0.17849   0.08101   0.77821   0.00000  Uiso   1.00
O760   O     0.14581   0.26136   0.76767   0.00000  Uiso   1.00
O761   O     0.07452   0.13251   0.73607   0.00000  Uiso   1.00
O762   O     0.26785   0.19179   0.71806   0.00000  Uiso   1.00
O763   O     0.06990   0.18960   0.77820   0.00000  Uiso   1.00
O764   O     0.25440   0.15277   0.76768   0.00000  Uiso   1.00
O765   O     0.13800   0.06903   0.73607   0.00000  Uiso   1.00
O766   O     0.20437   0.25527   0.71806   0.00000  Uiso   1.00
Zn767  Zn    0.19244   0.14090   0.78278   0.00000  Uiso   1.00
Zn768  Zn    0.13459   0.12378   0.72258   0.00000  Uiso   1.00
Zn769  Zn    0.21166   0.19664   0.71188   0.00000  Uiso   1.00
Zn770  Zn    0.12798   0.20535   0.78277   0.00000  Uiso   1.00
Br771  Br    0.56599   0.01299   0.70204   0.00000  Uiso   1.00
Br772  Br    0.42918   0.32749   0.79887   0.00000  Uiso   1.00
C773   C     0.38563   0.15969   0.75945   0.00000  Uiso   1.00
C774   C     0.53879   0.13525   0.95757   0.00000  Uiso   1.00
C775   C     0.56439   0.12135   0.97696   0.00000  Uiso   1.00
C776   C     0.61481   0.17254   0.73991   0.00000  Uiso   1.00
C777   C     0.55176   0.12341   0.51820   0.00000  Uiso   1.00
C778   C     0.51085   0.13637   0.54030   0.00000  Uiso   1.00
C779   C     0.58054   0.11456   0.53768   0.00000  Uiso   1.00
C780   C     0.57021   0.12082   0.57894   0.00000  Uiso   1.00
C781   C     0.50286   0.14558   0.58161   0.00000  Uiso   1.00
C782   C     0.66171   0.17174   0.73272   0.00000  Uiso   1.00
C783   C     0.34057   0.15957   0.76197   0.00000  Uiso   1.00
C784   C     0.41908   0.19768   0.92311   0.00000  Uiso   1.00
C785   C     0.51443   0.32236   0.73923   0.00000  Uiso   1.00
C786   C     0.48389   0.01279   0.76233   0.00000  Uiso   1.00
C787   C     0.48945   0.05634   0.75867   0.00000  Uiso   1.00
C788   C     0.51010   0.27777   0.74146   0.00000  Uiso   1.00
C789   C     0.52156   0.14559   0.64382   0.00000  Uiso   1.00
C790   C     0.47755   0.18690   0.85659   0.00000  Uiso   1.00
C791   C     0.46151   0.18848   0.90060   0.00000  Uiso   1.00
C792   C     0.53155   0.13676   0.60084   0.00000  Uiso   1.00
C793   C     0.40428   0.19055   0.96326   0.00000  Uiso   1.00
C794   C     0.36280   0.18327   0.69421   0.00000  Uiso   1.00
C795   C     0.48801   0.17463   0.91977   0.00000  Uiso   1.00
C796   C     0.34669   0.19394   0.66096   0.00000  Uiso   1.00
C797   C     0.38745   0.21273   0.90580   0.00000  Uiso   1.00
C798   C     0.36470   0.17671   0.88432   0.00000  Uiso   1.00
C799   C     0.40957   0.12075   0.57367   0.00000  Uiso   1.00
C800   C     0.41652   0.07471   0.56580   0.00000  Uiso   1.00
C801   C     0.47246   0.16556   0.95962   0.00000  Uiso   1.00
C802   C     0.42990   0.17374   0.98117   0.00000  Uiso   1.00
C803   C     0.49789   0.14865   0.97867   0.00000  Uiso   1.00
C804   C     0.48133   0.14370   0.52006   0.00000  Uiso   1.00
C805   C     0.43584   0.14489   0.53862   0.00000  Uiso   1.00
C806   C     0.41186   0.16256   0.51969   0.00000  Uiso   1.00
H807   H     0.37784   0.16557   0.53433   0.00000  Uiso   1.00
H808   H     0.65678   0.16815   0.65289   0.00000  Uiso   1.00
H809   H     0.66508   0.22353   0.66970   0.00000  Uiso   1.00
H810   H     0.37468   0.19846   0.63417   0.00000  Uiso   1.00
H811   H     0.38534   0.21019   0.70158   0.00000  Uiso   1.00
H812   H     0.38195   0.15655   0.68156   0.00000  Uiso   1.00
H813   H     0.34275   0.18894   0.87109   0.00000  Uiso   1.00
H814   H     0.38837   0.15966   0.86023   0.00000  Uiso   1.00
H815   H     0.34503   0.15457   0.90569   0.00000  Uiso   1.00
H816   H     0.36195   0.22785   0.92986   0.00000  Uiso   1.00
H817   H     0.40354   0.23748   0.88619   0.00000  Uiso   1.00
H818   H     0.61150   0.10390   0.52096   0.00000  Uiso   1.00
H819   H     0.40993   0.06100   0.53742   0.00000  Uiso   1.00
H820   H     0.45011   0.07045   0.56441   0.00000  Uiso   1.00
H821   H     0.39395   0.05769   0.59025   0.00000  Uiso   1.00
H822   H     0.41515   0.13415   0.60224   0.00000  Uiso   1.00
H823   H     0.37427   0.12189   0.57898   0.00000  Uiso   1.00
H824   H     0.65063   0.15313   0.79027   0.00000  Uiso   1.00
H825   H     0.47672   0.16314   0.59882   0.00000  Uiso   1.00
H826   H     0.59282   0.11431   0.59371   0.00000  Uiso   1.00
H827   H     0.59544   0.11121   0.95969   0.00000  Uiso   1.00
H828   H     0.37155   0.19641   0.98033   0.00000  Uiso   1.00
H829   H     0.52080   0.17056   0.90241   0.00000  Uiso   1.00
H830   H     0.55157   0.13398   0.92574   0.00000  Uiso   1.00
O831   O     0.50000   0.16667   0.75000   0.00000  Uiso   1.00
O832   O     0.49027   0.12393   0.66625   0.00000  Uiso   1.00
O833   O     0.46020   0.20646   0.83749   0.00000  Uiso   1.00
O834   O     0.54421   0.17493   0.65877   0.00000  Uiso   1.00
O835   O     0.50532   0.16135   0.83749   0.00000  Uiso   1.00
O836   O     0.51182   0.08101   0.77821   0.00000  Uiso   1.00
O837   O     0.47914   0.26136   0.76767   0.00000  Uiso   1.00
O838   O     0.40785   0.13251   0.73607   0.00000  Uiso   1.00
O839   O     0.60119   0.19179   0.71806   0.00000  Uiso   1.00
O840   O     0.40323   0.18960   0.77820   0.00000  Uiso   1.00
O841   O     0.58773   0.15277   0.76768   0.00000  Uiso   1.00
O842   O     0.47133   0.06903   0.73607   0.00000  Uiso   1.00
O843   O     0.53771   0.25527   0.71806   0.00000  Uiso   1.00
Zn844  Zn    0.52577   0.14090   0.78278   0.00000  Uiso   1.00
Zn845  Zn    0.46792   0.12378   0.72258   0.00000  Uiso   1.00
Zn846  Zn    0.54500   0.19664   0.71188   0.00000  Uiso   1.00
Zn847  Zn    0.46131   0.20535   0.78277   0.00000  Uiso   1.00
Br848  Br    0.89932   0.01299   0.70204   0.00000  Uiso   1.00
Br849  Br    0.76252   0.32749   0.79887   0.00000  Uiso   1.00
C850   C     0.71896   0.15969   0.75945   0.00000  Uiso   1.00
C851   C     0.87212   0.13525   0.95757   0.00000  Uiso   1.00
C852   C     0.89772   0.12135   0.97696   0.00000  Uiso   1.00
C853   C     0.94815   0.17254   0.73991   0.00000  Uiso   1.00
C854   C     0.88509   0.12341   0.51820   0.00000  Uiso   1.00
C855   C     0.84418   0.13637   0.54030   0.00000  Uiso   1.00
C856   C     0.91387   0.11456   0.53768   0.00000  Uiso   1.00
C857   C     0.90355   0.12082   0.57894   0.00000  Uiso   1.00
C858   C     0.83619   0.14558   0.58161   0.00000  Uiso   1.00
C859   C     0.99505   0.17174   0.73272   0.00000  Uiso   1.00
C860   C     0.67390   0.15957   0.76197   0.00000  Uiso   1.00
C861   C     0.75241   0.19768   0.92311   0.00000  Uiso   1.00
C862   C     0.84776   0.32236   0.73923   0.00000  Uiso   1.00
C863   C     0.81723   0.01279   0.76233   0.00000  Uiso   1.00
C864   C     0.82278   0.05634   0.75867   0.00000  Uiso   1.00
C865   C     0.84343   0.27777   0.74146   0.00000  Uiso   1.00
C866   C     0.85490   0.14559   0.64382   0.00000  Uiso   1.00
C867   C     0.81088   0.18690   0.85659   0.00000  Uiso   1.00
C868   C     0.79485   0.18848   0.90060   0.00000  Uiso   1.00
C869   C     0.86489   0.13676   0.60084   0.00000  Uiso   1.00
C870   C     0.73761   0.19055   0.96326   0.00000  Uiso   1.00
C871   C     0.69613   0.18327   0.69421   0.00000  Uiso   1.00
C872   C     0.82134   0.17463   0.91977   0.00000  Uiso   1.00
C873   C     0.68002   0.19394   0.66096   0.00000  Uiso   1.00
C874   C     0.72078   0.21273   0.90580   0.00000  Uiso   1.00
C875   C     0.69803   0.17671   0.88432   0.00000  Uiso   1.00
C876   C     0.74290   0.12075   0.57367   0.00000  Uiso   1.00
C877   C     0.74985   0.07471   0.56580   0.00000  Uiso   1.00
C878   C     0.80579   0.16556   0.95962   0.00000  Uiso   1.00
C879   C     0.76323   0.17374   0.98117   0.00000  Uiso   1.00
C880   C     0.83122   0.14865   0.97867   0.00000  Uiso   1.00
C881   C     0.81466   0.14370   0.52006   0.00000  Uiso   1.00
C882   C     0.76917   0.14489   0.53862   0.00000  Uiso   1.00
C883   C     0.74520   0.16256   0.51969   0.00000  Uiso   1.00
H884   H     0.71117   0.16557   0.53433   0.00000  Uiso   1.00
H885   H     0.99011   0.16815   0.65289   0.00000  Uiso   1.00
H886   H     0.99842   0.22353   0.66970   0.00000  Uiso   1.00
H887   H     0.70801   0.19846   0.63417   0.00000  Uiso   1.00
H888   H     0.71868   0.21019   0.70158   0.00000  Uiso   1.00
H889   H     0.71528   0.15655   0.68156   0.00000  Uiso   1.00
H890   H     0.67609   0.18894   0.87109   0.00000  Uiso   1.00
H891   H     0.72170   0.15966   0.86023   0.00000  Uiso   1.00
H892   H     0.67836   0.15457   0.90569   0.00000  Uiso   1.00
H893   H     0.69528   0.22785   0.92986   0.00000  Uiso   1.00
H894   H     0.73687   0.23748   0.88619   0.00000  Uiso   1.00
H895   H     0.94484   0.10390   0.52096   0.00000  Uiso   1.00
H896   H     0.74326   0.06100   0.53742   0.00000  Uiso   1.00
H897   H     0.78345   0.07045   0.56441   0.00000  Uiso   1.00
H898   H     0.72728   0.05769   0.59025   0.00000  Uiso   1.00
H899   H     0.74848   0.13415   0.60224   0.00000  Uiso   1.00
H900   H     0.70760   0.12189   0.57898   0.00000  Uiso   1.00
H901   H     0.98396   0.15313   0.79027   0.00000  Uiso   1.00
H902   H     0.81005   0.16314   0.59882   0.00000  Uiso   1.00
H903   H     0.92615   0.11431   0.59371   0.00000  Uiso   1.00
H904   H     0.92877   0.11121   0.95969   0.00000  Uiso   1.00
H905   H     0.70489   0.19641   0.98033   0.00000  Uiso   1.00
H906   H     0.85414   0.17056   0.90241   0.00000  Uiso   1.00
H907   H     0.88490   0.13398   0.92574   0.00000  Uiso   1.00
O908   O     0.83333   0.16667   0.75000   0.00000  Uiso   1.00
O909   O     0.82360   0.12393   0.66625   0.00000  Uiso   1.00
O910   O     0.79354   0.20646   0.83749   0.00000  Uiso   1.00
O911   O     0.87755   0.17493   0.65877   0.00000  Uiso   1.00
O912   O     0.83865   0.16135   0.83749   0.00000  Uiso   1.00
O913   O     0.84515   0.08101   0.77821   0.00000  Uiso   1.00
O914   O     0.81247   0.26136   0.76767   0.00000  Uiso   1.00
O915   O     0.74119   0.13251   0.73607   0.00000  Uiso   1.00
O916   O     0.93452   0.19179   0.71806   0.00000  Uiso   1.00
O917   O     0.73656   0.18960   0.77820   0.00000  Uiso   1.00
O918   O     0.92106   0.15277   0.76768   0.00000  Uiso   1.00
O919   O     0.80467   0.06903   0.73607   0.00000  Uiso   1.00
O920   O     0.87104   0.25527   0.71806   0.00000  Uiso   1.00
Zn921  Zn    0.85910   0.14090   0.78278   0.00000  Uiso   1.00
Zn922  Zn    0.80125   0.12378   0.72258   0.00000  Uiso   1.00
Zn923  Zn    0.87833   0.19664   0.71188   0.00000  Uiso   1.00
Zn924  Zn    0.79465   0.20535   0.78277   0.00000  Uiso   1.00
Br925  Br    0.23265   0.34632   0.70204   0.00000  Uiso   1.00
Br926  Br    0.09585   0.66082   0.79887   0.00000  Uiso   1.00
C927   C     0.05230   0.49303   0.75945   0.00000  Uiso   1.00
C928   C     0.20545   0.46859   0.95757   0.00000  Uiso   1.00
C929   C     0.23105   0.45469   0.97696   0.00000  Uiso   1.00
C930   C     0.28148   0.50587   0.73991   0.00000  Uiso   1.00
C931   C     0.21843   0.45674   0.51820   0.00000  Uiso   1.00
C932   C     0.17751   0.46970   0.54030   0.00000  Uiso   1.00
C933   C     0.24721   0.44790   0.53768   0.00000  Uiso   1.00
C934   C     0.23688   0.45415   0.57894   0.00000  Uiso   1.00
C935   C     0.16952   0.47892   0.58161   0.00000  Uiso   1.00
C936   C     0.32838   0.50507   0.73272   0.00000  Uiso   1.00
C937   C     0.00724   0.49290   0.76197   0.00000  Uiso   1.00
C938   C     0.08575   0.53101   0.92311   0.00000  Uiso   1.00
C939   C     0.18109   0.65569   0.73923   0.00000  Uiso   1.00
C940   C     0.15056   0.34613   0.76233   0.00000  Uiso   1.00
C941   C     0.15611   0.38967   0.75867   0.00000  Uiso   1.00
C942   C     0.17676   0.61110   0.74146   0.00000  Uiso   1.00
C943   C     0.18823   0.47892   0.64382   0.00000  Uiso   1.00
C944   C     0.14421   0.52023   0.85659   0.00000  Uiso   1.00
C945   C     0.12818   0.52181   0.90060   0.00000  Uiso   1.00
C946   C     0.19822   0.47009   0.60084   0.00000  Uiso   1.00
C947   C     0.07095   0.52388   0.96326   0.00000  Uiso   1.00
C948   C     0.02946   0.51661   0.69421   0.00000  Uiso   1.00
C949   C     0.15468   0.50796   0.91977   0.00000  Uiso   1.00
C950   C     0.01335   0.52727   0.66096   0.00000  Uiso   1.00
C951   C     0.05412   0.54606   0.90580   0.00000  Uiso   1.00
C952   C     0.03136   0.51004   0.88432   0.00000  Uiso   1.00
C953   C     0.07624   0.45408   0.57367   0.00000  Uiso   1.00
C954   C     0.08318   0.40804   0.56580   0.00000  Uiso   1.00
C955   C     0.13912   0.49889   0.95962   0.00000  Uiso   1.00
C956   C     0.09656   0.50708   0.98117   0.00000  Uiso   1.00
C957   C     0.16456   0.48199   0.97867   0.00000  Uiso   1.00
C958   C     0.14799   0.47703   0.52006   0.00000  Uiso   1.00
C959   C     0.10251   0.47823   0.53862   0.00000  Uiso   1.00
C960   C     0.07853   0.49589   0.51969   0.00000  Uiso   1.00
H961   H     0.04450   0.49890   0.53433   0.00000  Uiso   1.00
H962   H     0.32344   0.50148   0.65289   0.00000  Uiso   1.00
H963   H     0.33175   0.55687   0.66970   0.00000  Uiso   1.00
H964   H     0.04134   0.53179   0.63417   0.00000  Uiso   1.00
H965   H     0.05201   0.54352   0.70158   0.00000  Uiso   1.00
H966   H     0.04862   0.48989   0.68156   0.00000  Uiso   1.00
H967   H     0.00942   0.52228   0.87109   0.00000  Uiso   1.00
H968   H     0.05504   0.49300   0.86023   0.00000  Uiso   1.00
H969   H     0.01169   0.48790   0.90569   0.00000  Uiso   1.00
H970   H     0.02862   0.56119   0.92986   0.00000  Uiso   1.00
H971   H     0.07021   0.57082   0.88619   0.00000  Uiso   1.00
H972   H     0.27817   0.43723   0.52096   0.00000  Uiso   1.00
H973   H     0.07659   0.39434   0.53742   0.00000  Uiso   1.00
H974   H     0.11678   0.40378   0.56441   0.00000  Uiso   1.00
H975   H     0.06062   0.39103   0.59025   0.00000  Uiso   1.00
H976   H     0.08181   0.46748   0.60224   0.00000  Uiso   1.00
H977   H     0.04094   0.45523   0.57898   0.00000  Uiso   1.00
H978   H     0.31730   0.48647   0.79027   0.00000  Uiso   1.00
H979   H     0.14339   0.49647   0.59882   0.00000  Uiso   1.00
H980   H     0.25949   0.44764   0.59371   0.00000  Uiso   1.00
H981   H     0.26210   0.44455   0.95969   0.00000  Uiso   1.00
H982   H     0.03822   0.52974   0.98033   0.00000  Uiso   1.00
H983   H     0.18747   0.50389   0.90241   0.00000  Uiso   1.00
H984   H     0.21823   0.46731   0.92574   0.00000  Uiso   1.00
O985   O     0.16667   0.50000   0.75000   0.00000  Uiso   1.00
O986   O     0.15693   0.45726   0.66625   0.00000  Uiso   1.00
O987   O     0.12687   0.53979   0.83749   0.00000  Uiso   1.00
O988   O     0.21088   0.50826   0.65877   0.00000  Uiso   1.00
O989   O     0.17198   0.49468   0.83749   0.00000  Uiso   1.00
O990   O     0.17849   0.41434   0.77821   0.00000  Uiso   1.00
O991   O     0.14581   0.59469   0.76767   0.00000  Uiso   1.00
O992   O     0.07452   0.46584   0.73607   0.00000  Uiso   1.00
O993   O     0.26785   0.52512   0.71806   0.00000  Uiso   1.00
O994   O     0.06990   0.52293   0.77820   0.00000  Uiso   1.00
O995   O     0.25440   0.48610   0.76768   0.00000  Uiso   1.00
O996   O     0.13800   0.40236   0.73607   0.00000  Uiso   1.00
O997   O     0.20437   0.58860   0.71806   0.00000  Uiso   1.00
Zn998  Zn    0.19244   0.47423   0.78278   0.00000  Uiso   1.00
Zn999  Zn    0.13459   0.45711   0.72258   0.00000  Uiso   1.00
Zn1000 Zn    0.21166   0.52997   0.71188   0.00000  Uiso   1.00
Zn1001 Zn    0.12798   0.53868   0.78277   0.00000  Uiso   1.00
Br1002 Br    0.56599   0.34632   0.70204   0.00000  Uiso   1.00
Br1003 Br    0.42918   0.66082   0.79887   0.00000  Uiso   1.00
C1004  C     0.38563   0.49303   0.75945   0.00000  Uiso   1.00
C1005  C     0.53879   0.46859   0.95757   0.00000  Uiso   1.00
C1006  C     0.56439   0.45469   0.97696   0.00000  Uiso   1.00
C1007  C     0.61481   0.50587   0.73991   0.00000  Uiso   1.00
C1008  C     0.55176   0.45674   0.51820   0.00000  Uiso   1.00
C1009  C     0.51085   0.46970   0.54030   0.00000  Uiso   1.00
C1010  C     0.58054   0.44790   0.53768   0.00000  Uiso   1.00
C1011  C     0.57021   0.45415   0.57894   0.00000  Uiso   1.00
C1012  C     0.50286   0.47892   0.58161   0.00000  Uiso   1.00
C1013  C     0.66171   0.50507   0.73272   0.00000  Uiso   1.00
C1014  C     0.34057   0.49290   0.76197   0.00000  Uiso   1.00
C1015  C     0.41908   0.53101   0.92311   0.00000  Uiso   1.00
C1016  C     0.51443   0.65569   0.73923   0.00000  Uiso   1.00
C1017  C     0.48389   0.34613   0.76233   0.00000  Uiso   1.00
C1018  C     0.48945   0.38967   0.75867   0.00000  Uiso   1.00
C1019  C     0.51010   0.61110   0.74146   0.00000  Uiso   1.00
C1020  C     0.52156   0.47892   0.64382   0.00000  Uiso   1.00
C1021  C     0.47755   0.52023   0.85659   0.00000  Uiso   1.00
C1022  C     0.46151   0.52181   0.90060   0.00000  Uiso   1.00
C1023  C     0.53155   0.47009   0.60084   0.00000  Uiso   1.00
C1024  C     0.40428   0.52388   0.96326   0.00000  Uiso   1.00
C1025  C     0.36280   0.51661   0.69421   0.00000  Uiso   1.00
C1026  C     0.48801   0.50796   0.91977   0.00000  Uiso   1.00
C1027  C     0.34669   0.52727   0.66096   0.00000  Uiso   1.00
C1028  C     0.38745   0.54606   0.90580   0.00000  Uiso   1.00
C1029  C     0.36470   0.51004   0.88432   0.00000  Uiso   1.00
C1030  C     0.40957   0.45408   0.57367   0.00000  Uiso   1.00
C1031  C     0.41652   0.40804   0.56580   0.00000  Uiso   1.00
C1032  C     0.47246   0.49889   0.95962   0.00000  Uiso   1.00
C1033  C     0.42990   0.50708   0.98117   0.00000  Uiso   1.00
C1034  C     0.49789   0.48199   0.97867   0.00000  Uiso   1.00
C1035  C     0.48133   0.47703   0.52006   0.00000  Uiso   1.00
C1036  C     0.43584   0.47823   0.53862   0.00000  Uiso   1.00
C1037  C     0.41186   0.49589   0.51969   0.00000  Uiso   1.00
H1038  H     0.37784   0.49890   0.53433   0.00000  Uiso   1.00
H1039  H     0.65678   0.50148   0.65289   0.00000  Uiso   1.00
H1040  H     0.66508   0.55687   0.66970   0.00000  Uiso   1.00
H1041  H     0.37468   0.53179   0.63417   0.00000  Uiso   1.00
H1042  H     0.38534   0.54352   0.70158   0.00000  Uiso   1.00
H1043  H     0.38195   0.48989   0.68156   0.00000  Uiso   1.00
H1044  H     0.34275   0.52228   0.87109   0.00000  Uiso   1.00
H1045  H     0.38837   0.49300   0.86023   0.00000  Uiso   1.00
H1046  H     0.34503   0.48790   0.90569   0.00000  Uiso   1.00
H1047  H     0.36195   0.56119   0.92986   0.00000  Uiso   1.00
H1048  H     0.40354   0.57082   0.88619   0.00000  Uiso   1.00
H1049  H     0.61150   0.43723   0.52096   0.00000  Uiso   1.00
H1050  H     0.40993   0.39434   0.53742   0.00000  Uiso   1.00
H1051  H     0.45011   0.40378   0.56441   0.00000  Uiso   1.00
H1052  H     0.39395   0.39103   0.59025   0.00000  Uiso   1.00
H1053  H     0.41515   0.46748   0.60224   0.00000  Uiso   1.00
H1054  H     0.37427   0.45523   0.57898   0.00000  Uiso   1.00
H1055  H     0.65063   0.48647   0.79027   0.00000  Uiso   1.00
H1056  H     0.47672   0.49647   0.59882   0.00000  Uiso   1.00
H1057  H     0.59282   0.44764   0.59371   0.00000  Uiso   1.00
H1058  H     0.59544   0.44455   0.95969   0.00000  Uiso   1.00
H1059  H     0.37155   0.52974   0.98033   0.00000  Uiso   1.00
H1060  H     0.52080   0.50389   0.90241   0.00000  Uiso   1.00
H1061  H     0.55157   0.46731   0.92574   0.00000  Uiso   1.00
O1062  O     0.50000   0.50000   0.75000   0.00000  Uiso   1.00
O1063  O     0.49027   0.45726   0.66625   0.00000  Uiso   1.00
O1064  O     0.46020   0.53979   0.83749   0.00000  Uiso   1.00
O1065  O     0.54421   0.50826   0.65877   0.00000  Uiso   1.00
O1066  O     0.50532   0.49468   0.83749   0.00000  Uiso   1.00
O1067  O     0.51182   0.41434   0.77821   0.00000  Uiso   1.00
O1068  O     0.47914   0.59469   0.76767   0.00000  Uiso   1.00
O1069  O     0.40785   0.46584   0.73607   0.00000  Uiso   1.00
O1070  O     0.60119   0.52512   0.71806   0.00000  Uiso   1.00
O1071  O     0.40323   0.52293   0.77820   0.00000  Uiso   1.00
O1072  O     0.58773   0.48610   0.76768   0.00000  Uiso   1.00
O1073  O     0.47133   0.40236   0.73607   0.00000  Uiso   1.00
O1074  O     0.53771   0.58860   0.71806   0.00000  Uiso   1.00
Zn1075 Zn    0.52577   0.47423   0.78278   0.00000  Uiso   1.00
Zn1076 Zn    0.46792   0.45711   0.72258   0.00000  Uiso   1.00
Zn1077 Zn    0.54500   0.52997   0.71188   0.00000  Uiso   1.00
Zn1078 Zn    0.46131   0.53868   0.78277   0.00000  Uiso   1.00
Br1079 Br    0.89932   0.34632   0.70204   0.00000  Uiso   1.00
Br1080 Br    0.76252   0.66082   0.79887   0.00000  Uiso   1.00
C1081  C     0.71896   0.49303   0.75945   0.00000  Uiso   1.00
C1082  C     0.87212   0.46859   0.95757   0.00000  Uiso   1.00
C1083  C     0.89772   0.45469   0.97696   0.00000  Uiso   1.00
C1084  C     0.94815   0.50587   0.73991   0.00000  Uiso   1.00
C1085  C     0.88509   0.45674   0.51820   0.00000  Uiso   1.00
C1086  C     0.84418   0.46970   0.54030   0.00000  Uiso   1.00
C1087  C     0.91387   0.44790   0.53768   0.00000  Uiso   1.00
C1088  C     0.90355   0.45415   0.57894   0.00000  Uiso   1.00
C1089  C     0.83619   0.47892   0.58161   0.00000  Uiso   1.00
C1090  C     0.99505   0.50507   0.73272   0.00000  Uiso   1.00
C1091  C     0.67390   0.49290   0.76197   0.00000  Uiso   1.00
C1092  C     0.75241   0.53101   0.92311   0.00000  Uiso   1.00
C1093  C     0.84776   0.65569   0.73923   0.00000  Uiso   1.00
C1094  C     0.81723   0.34613   0.76233   0.00000  Uiso   1.00
C1095  C     0.82278   0.38967   0.75867   0.00000  Uiso   1.00
C1096  C     0.84343   0.61110   0.74146   0.00000  Uiso   1.00
C1097  C     0.85490   0.47892   0.64382   0.00000  Uiso   1.00
C1098  C     0.81088   0.52023   0.85659   0.00000  Uiso   1.00
C1099  C     0.79485   0.52181   0.90060   0.00000  Uiso   1.00
C1100  C     0.86489   0.47009   0.60084   0.00000  Uiso   1.00
C1101  C     0.73761   0.52388   0.96326   0.00000  Uiso   1.00
C1102  C     0.69613   0.51661   0.69421   0.00000  Uiso   1.00
C1103  C     0.82134   0.50796   0.91977   0.00000  Uiso   1.00
C1104  C     0.68002   0.52727   0.66096   0.00000  Uiso   1.00
C1105  C     0.72078   0.54606   0.90580   0.00000  Uiso   1.00
C1106  C     0.69803   0.51004   0.88432   0.00000  Uiso   1.00
C1107  C     0.74290   0.45408   0.57367   0.00000  Uiso   1.00
C1108  C     0.74985   0.40804   0.56580   0.00000  Uiso   1.00
C1109  C     0.80579   0.49889   0.95962   0.00000  Uiso   1.00
C1110  C     0.76323   0.50708   0.98117   0.00000  Uiso   1.00
C1111  C     0.83122   0.48199   0.97867   0.00000  Uiso   1.00
C1112  C     0.81466   0.47703   0.52006   0.00000  Uiso   1.00
C1113  C     0.76917   0.47823   0.53862   0.00000  Uiso   1.00
C1114  C     0.74520   0.49589   0.51969   0.00000  Uiso   1.00
H1115  H     0.71117   0.49890   0.53433   0.00000  Uiso   1.00
H1116  H     0.99011   0.50148   0.65289   0.00000  Uiso   1.00
H1117  H     0.99842   0.55687   0.66970   0.00000  Uiso   1.00
H1118  H     0.70801   0.53179   0.63417   0.00000  Uiso   1.00
H1119  H     0.71868   0.54352   0.70158   0.00000  Uiso   1.00
H1120  H     0.71528   0.48989   0.68156   0.00000  Uiso   1.00
H1121  H     0.67609   0.52228   0.87109   0.00000  Uiso   1.00
H1122  H     0.72170   0.49300   0.86023   0.00000  Uiso   1.00
H1123  H     0.67836   0.48790   0.90569   0.00000  Uiso   1.00
H1124  H     0.69528   0.56119   0.92986   0.00000  Uiso   1.00
H1125  H     0.73687   0.57082   0.88619   0.00000  Uiso   1.00
H1126  H     0.94484   0.43723   0.52096   0.00000  Uiso   1.00
H1127  H     0.74326   0.39434   0.53742   0.00000  Uiso   1.00
H1128  H     0.78345   0.40378   0.56441   0.00000  Uiso   1.00
H1129  H     0.72728   0.39103   0.59025   0.00000  Uiso   1.00
H1130  H     0.74848   0.46748   0.60224   0.00000  Uiso   1.00
H1131  H     0.70760   0.45523   0.57898   0.00000  Uiso   1.00
H1132  H     0.98396   0.48647   0.79027   0.00000  Uiso   1.00
H1133  H     0.81005   0.49647   0.59882   0.00000  Uiso   1.00
H1134  H     0.92615   0.44764   0.59371   0.00000  Uiso   1.00
H1135  H     0.92877   0.44455   0.95969   0.00000  Uiso   1.00
H1136  H     0.70489   0.52974   0.98033   0.00000  Uiso   1.00
H1137  H     0.85414   0.50389   0.90241   0.00000  Uiso   1.00
H1138  H     0.88490   0.46731   0.92574   0.00000  Uiso   1.00
O1139  O     0.83333   0.50000   0.75000   0.00000  Uiso   1.00
O1140  O     0.82360   0.45726   0.66625   0.00000  Uiso   1.00
O1141  O     0.79354   0.53979   0.83749   0.00000  Uiso   1.00
O1142  O     0.87755   0.50826   0.65877   0.00000  Uiso   1.00
O1143  O     0.83865   0.49468   0.83749   0.00000  Uiso   1.00
O1144  O     0.84515   0.41434   0.77821   0.00000  Uiso   1.00
O1145  O     0.81247   0.59469   0.76767   0.00000  Uiso   1.00
O1146  O     0.74119   0.46584   0.73607   0.00000  Uiso   1.00
O1147  O     0.93452   0.52512   0.71806   0.00000  Uiso   1.00
O1148  O     0.73656   0.52293   0.77820   0.00000  Uiso   1.00
O1149  O     0.92106   0.48610   0.76768   0.00000  Uiso   1.00
O1150  O     0.80467   0.40236   0.73607   0.00000  Uiso   1.00
O1151  O     0.87104   0.58860   0.71806   0.00000  Uiso   1.00
Zn1152 Zn    0.85910   0.47423   0.78278   0.00000  Uiso   1.00
Zn1153 Zn    0.80125   0.45711   0.72258   0.00000  Uiso   1.00
Zn1154 Zn    0.87833   0.52997   0.71188   0.00000  Uiso   1.00
Zn1155 Zn    0.79465   0.53868   0.78277   0.00000  Uiso   1.00
Br1156 Br    0.23265   0.67965   0.70204   0.00000  Uiso   1.00
Br1157 Br    0.09585   0.99415   0.79887   0.00000  Uiso   1.00
C1158  C     0.05230   0.82636   0.75945   0.00000  Uiso   1.00
C1159  C     0.20545   0.80192   0.95757   0.00000  Uiso   1.00
C1160  C     0.23105   0.78802   0.97696   0.00000  Uiso   1.00
C1161  C     0.28148   0.83920   0.73991   0.00000  Uiso   1.00
C1162  C     0.21843   0.79008   0.51820   0.00000  Uiso   1.00
C1163  C     0.17751   0.80304   0.54030   0.00000  Uiso   1.00
C1164  C     0.24721   0.78123   0.53768   0.00000  Uiso   1.00
C1165  C     0.23688   0.78749   0.57894   0.00000  Uiso   1.00
C1166  C     0.16952   0.81225   0.58161   0.00000  Uiso   1.00
C1167  C     0.32838   0.83841   0.73272   0.00000  Uiso   1.00
C1168  C     0.00724   0.82623   0.76197   0.00000  Uiso   1.00
C1169  C     0.08575   0.86435   0.92311   0.00000  Uiso   1.00
C1170  C     0.18109   0.98903   0.73923   0.00000  Uiso   1.00
C1171  C     0.15056   0.67946   0.76233   0.00000  Uiso   1.00
C1172  C     0.15611   0.72301   0.75867   0.00000  Uiso   1.00
C1173  C     0.17676   0.94444   0.74146   0.00000  Uiso   1.00
C1174  C     0.18823   0.81225   0.64382   0.00000  Uiso   1.00
C1175  C     0.14421   0.85357   0.85659   0.00000  Uiso   1.00
C1176  C     0.12818   0.85515   0.90060   0.00000  Uiso   1.00
C1177  C     0.19822   0.80342   0.60084   0.00000  Uiso   1.00
C1178  C     0.07095   0.85722   0.96326   0.00000  Uiso   1.00
C1179  C     0.02946   0.84994   0.69421   0.00000  Uiso   1.00
C1180  C     0.15468   0.84130   0.91977   0.00000  Uiso   1.00
C1181  C     0.01335   0.86060   0.66096   0.00000  Uiso   1.00
C1182  C     0.05412   0.87940   0.90580   0.00000  Uiso   1.00
C1183  C     0.03136   0.84338   0.88432   0.00000  Uiso   1.00
C1184  C     0.07624   0.78741   0.57367   0.00000  Uiso   1.00
C1185  C     0.08318   0.74138   0.56580   0.00000  Uiso   1.00
C1186  C     0.13912   0.83222   0.95962   0.00000  Uiso   1.00
C1187  C     0.09656   0.84041   0.98117   0.00000  Uiso   1.00
C1188  C     0.16456   0.81532   0.97867   0.00000  Uiso   1.00
C1189  C     0.14799   0.81037   0.52006   0.00000  Uiso   1.00
C1190  C     0.10251   0.81156   0.53862   0.00000  Uiso   1.00
C1191  C     0.07853   0.82922   0.51969   0.00000  Uiso   1.00
H1192  H     0.04450   0.83223   0.53433   0.00000  Uiso   1.00
H1193  H     0.32344   0.83481   0.65289   0.00000  Uiso   1.00
H1194  H     0.33175   0.89020   0.66970   0.00000  Uiso   1.00
H1195  H     0.04134   0.86513   0.63417   0.00000  Uiso   1.00
H1196  H     0.05201   0.87685   0.70158   0.00000  Uiso   1.00
H1197  H     0.04862   0.82322   0.68156   0.00000  Uiso   1.00
H1198  H     0.00942   0.85561   0.87109   0.00000  Uiso   1.00
H1199  H     0.05504   0.82633   0.86023   0.00000  Uiso   1.00
H1200  H     0.01169   0.82123   0.90569   0.00000  Uiso   1.00
H1201  H     0.02862   0.89452   0.92986   0.00000  Uiso   1.00
H1202  H     0.07021   0.90415   0.88619   0.00000  Uiso   1.00
H1203  H     0.27817   0.77057   0.52096   0.00000  Uiso   1.00
H1204  H     0.07659   0.72767   0.53742   0.00000  Uiso   1.00
H1205  H     0.11678   0.73711   0.56441   0.00000  Uiso   1.00
H1206  H     0.06062   0.72436   0.59025   0.00000  Uiso   1.00
H1207  H     0.08181   0.80082   0.60224   0.00000  Uiso   1.00
H1208  H     0.04094   0.78856   0.57898   0.00000  Uiso   1.00
H1209  H     0.31730   0.81980   0.79027   0.00000  Uiso   1.00
H1210  H     0.14339   0.82980   0.59882   0.00000  Uiso   1.00
H1211  H     0.25949   0.78097   0.59371   0.00000  Uiso   1.00
H1212  H     0.26210   0.77788   0.95969   0.00000  Uiso   1.00
H1213  H     0.03822   0.86307   0.98033   0.00000  Uiso   1.00
H1214  H     0.18747   0.83723   0.90241   0.00000  Uiso   1.00
H1215  H     0.21823   0.80065   0.92574   0.00000  Uiso   1.00
O1216  O     0.16667   0.83333   0.75000   0.00000  Uiso   1.00
O1217  O     0.15693   0.79060   0.66625   0.00000  Uiso   1.00
O1218  O     0.12687   0.87313   0.83749   0.00000  Uiso   1.00
O1219  O     0.21088   0.84159   0.65877   0.00000  Uiso   1.00
O1220  O     0.17198   0.82802   0.83749   0.00000  Uiso   1.00
O1221  O     0.17849   0.74768   0.77821   0.00000  Uiso   1.00
O1222  O     0.14581   0.92803   0.76767   0.00000  Uiso   1.00
O1223  O     0.07452   0.79917   0.73607   0.00000  Uiso   1.00
O1224  O     0.26785   0.85845   0.71806   0.00000  Uiso   1.00
O1225  O     0.06990   0.85627   0.77820   0.00000  Uiso   1.00
O1226  O     0.25440   0.81944   0.76768   0.00000  Uiso   1.00
O1227  O     0.13800   0.73570   0.73607   0.00000  Uiso   1.00
O1228  O     0.20437   0.92193   0.71806   0.00000  Uiso   1.00
Zn1229 Zn    0.19244   0.80756   0.78278   0.00000  Uiso   1.00
Zn1230 Zn    0.13459   0.79044   0.72258   0.00000  Uiso   1.00
Zn1231 Zn    0.21166   0.86331   0.71188   0.00000  Uiso   1.00
Zn1232 Zn    0.12798   0.87202   0.78277   0.00000  Uiso   1.00
Br1233 Br    0.56599   0.67965   0.70204   0.00000  Uiso   1.00
Br1234 Br    0.42918   0.99415   0.79887   0.00000  Uiso   1.00
C1235  C     0.38563   0.82636   0.75945   0.00000  Uiso   1.00
C1236  C     0.53879   0.80192   0.95757   0.00000  Uiso   1.00
C1237  C     0.56439   0.78802   0.97696   0.00000  Uiso   1.00
C1238  C     0.61481   0.83920   0.73991   0.00000  Uiso   1.00
C1239  C     0.55176   0.79008   0.51820   0.00000  Uiso   1.00
C1240  C     0.51085   0.80304   0.54030   0.00000  Uiso   1.00
C1241  C     0.58054   0.78123   0.53768   0.00000  Uiso   1.00
C1242  C     0.57021   0.78749   0.57894   0.00000  Uiso   1.00
C1243  C     0.50286   0.81225   0.58161   0.00000  Uiso   1.00
C1244  C     0.66171   0.83841   0.73272   0.00000  Uiso   1.00
C1245  C     0.34057   0.82623   0.76197   0.00000  Uiso   1.00
C1246  C     0.41908   0.86435   0.92311   0.00000  Uiso   1.00
C1247  C     0.51443   0.98903   0.73923   0.00000  Uiso   1.00
C1248  C     0.48389   0.67946   0.76233   0.00000  Uiso   1.00
C1249  C     0.48945   0.72301   0.75867   0.00000  Uiso   1.00
C1250  C     0.51010   0.94444   0.74146   0.00000  Uiso   1.00
C1251  C     0.52156   0.81225   0.64382   0.00000  Uiso   1.00
C1252  C     0.47755   0.85357   0.85659   0.00000  Uiso   1.00
C1253  C     0.46151   0.85515   0.90060   0.00000  Uiso   1.00
C1254  C     0.53155   0.80342   0.60084   0.00000  Uiso   1.00
C1255  C     0.40428   0.85722   0.96326   0.00000  Uiso   1.00
C1256  C     0.36280   0.84994   0.69421   0.00000  Uiso   1.00
C1257  C     0.48801   0.84130   0.91977   0.00000  Uiso   1.00
C1258  C     0.34669   0.86060   0.66096   0.00000  Uiso   1.00
C1259  C     0.38745   0.87940   0.90580   0.00000  Uiso   1.00
C1260  C     0.36470   0.84338   0.88432   0.00000  Uiso   1.00
C1261  C     0.40957   0.78741   0.57367   0.00000  Uiso   1.00
C1262  C     0.41652   0.74138   0.56580   0.00000  Uiso   1.00
C1263  C     0.47246   0.83222   0.95962   0.00000  Uiso   1.00
C1264  C     0.42990   0.84041   0.98117   0.00000  Uiso   1.00
C1265  C     0.49789   0.81532   0.97867   0.00000  Uiso   1.00
C1266  C     0.48133   0.81037   0.52006   0.00000  Uiso   1.00
C1267  C     0.43584   0.81156   0.53862   0.00000  Uiso   1.00
C1268  C     0.41186   0.82922   0.51969   0.00000  Uiso   1.00
H1269  H     0.37784   0.83223   0.53433   0.00000  Uiso   1.00
H1270  H     0.65678   0.83481   0.65289   0.00000  Uiso   1.00
H1271  H     0.66508   0.89020   0.66970   0.00000  Uiso   1.00
H1272  H     0.37468   0.86513   0.63417   0.00000  Uiso   1.00
H1273  H     0.38534   0.87685   0.70158   0.00000  Uiso   1.00
H1274  H     0.38195   0.82322   0.68156   0.00000  Uiso   1.00
H1275  H     0.34275   0.85561   0.87109   0.00000  Uiso   1.00
H1276  H     0.38837   0.82633   0.86023   0.00000  Uiso   1.00
H1277  H     0.34503   0.82123   0.90569   0.00000  Uiso   1.00
H1278  H     0.36195   0.89452   0.92986   0.00000  Uiso   1.00
H1279  H     0.40354   0.90415   0.88619   0.00000  Uiso   1.00
H1280  H     0.61150   0.77057   0.52096   0.00000  Uiso   1.00
H1281  H     0.40993   0.72767   0.53742   0.00000  Uiso   1.00
H1282  H     0.45011   0.73711   0.56441   0.00000  Uiso   1.00
H1283  H     0.39395   0.72436   0.59025   0.00000  Uiso   1.00
H1284  H     0.41515   0.80082   0.60224   0.00000  Uiso   1.00
H1285  H     0.37427   0.78856   0.57898   0.00000  Uiso   1.00
H1286  H     0.65063   0.81980   0.79027   0.00000  Uiso   1.00
H1287  H     0.47672   0.82980   0.59882   0.00000  Uiso   1.00
H1288  H     0.59282   0.78097   0.59371   0.00000  Uiso   1.00
H1289  H     0.59544   0.77788   0.95969   0.00000  Uiso   1.00
H1290  H     0.37155   0.86307   0.98033   0.00000  Uiso   1.00
H1291  H     0.52080   0.83723   0.90241   0.00000  Uiso   1.00
H1292  H     0.55157   0.80065   0.92574   0.00000  Uiso   1.00
O1293  O     0.50000   0.83333   0.75000   0.00000  Uiso   1.00
O1294  O     0.49027   0.79060   0.66625   0.00000  Uiso   1.00
O1295  O     0.46020   0.87313   0.83749   0.00000  Uiso   1.00
O1296  O     0.54421   0.84159   0.65877   0.00000  Uiso   1.00
O1297  O     0.50532   0.82802   0.83749   0.00000  Uiso   1.00
O1298  O     0.51182   0.74768   0.77821   0.00000  Uiso   1.00
O1299  O     0.47914   0.92803   0.76767   0.00000  Uiso   1.00
O1300  O     0.40785   0.79917   0.73607   0.00000  Uiso   1.00
O1301  O     0.60119   0.85845   0.71806   0.00000  Uiso   1.00
O1302  O     0.40323   0.85627   0.77820   0.00000  Uiso   1.00
O1303  O     0.58773   0.81944   0.76768   0.00000  Uiso   1.00
O1304  O     0.47133   0.73570   0.73607   0.00000  Uiso   1.00
O1305  O     0.53771   0.92193   0.71806   0.00000  Uiso   1.00
Zn1306 Zn    0.52577   0.80756   0.78278   0.00000  Uiso   1.00
Zn1307 Zn    0.46792   0.79044   0.72258   0.00000  Uiso   1.00
Zn1308 Zn    0.54500   0.86331   0.71188   0.00000  Uiso   1.00
Zn1309 Zn    0.46131   0.87202   0.78277   0.00000  Uiso   1.00
Br1310 Br    0.89932   0.67965   0.70204   0.00000  Uiso   1.00
Br1311 Br    0.76252   0.99415   0.79887   0.00000  Uiso   1.00
C1312  C     0.71896   0.82636   0.75945   0.00000  Uiso   1.00
C1313  C     0.87212   0.80192   0.95757   0.00000  Uiso   1.00
C1314  C     0.89772   0.78802   0.97696   0.00000  Uiso   1.00
C1315  C     0.94815   0.83920   0.73991   0.00000  Uiso   1.00
C1316  C     0.88509   0.79008   0.51820   0.00000  Uiso   1.00
C1317  C     0.84418   0.80304   0.54030   0.00000  Uiso   1.00
C1318  C     0.91387   0.78123   0.53768   0.00000  Uiso   1.00
C1319  C     0.90355   0.78749   0.57894   0.00000  Uiso   1.00
C1320  C     0.83619   0.81225   0.58161   0.00000  Uiso   1.00
C1321  C     0.99505   0.83841   0.73272   0.00000  Uiso   1.00
C1322  C     0.67390   0.82623   0.76197   0.00000  Uiso   1.00
C1323  C     0.75241   0.86435   0.92311   0.00000  Uiso   1.00
C1324  C     0.84776   0.98903   0.73923   0.00000  Uiso   1.00
C1325  C     0.81723   0.67946   0.76233   0.00000  Uiso   1.00
C1326  C     0.82278   0.72301   0.75867   0.00000  Uiso   1.00
C1327  C     0.84343   0.94444   0.74146   0.00000  Uiso   1.00
C1328  C     0.85490   0.81225   0.64382   0.00000  Uiso   1.00
C1329  C     0.81088   0.85357   0.85659   0.00000  Uiso   1.00
C1330  C     0.79485   0.85515   0.90060   0.00000  Uiso   1.00
C1331  C     0.86489   0.80342   0.60084   0.00000  Uiso   1.00
C1332  C     0.73761   0.85722   0.96326   0.00000  Uiso   1.00
C1333  C     0.69613   0.84994   0.69421   0.00000  Uiso   1.00
C1334  C     0.82134   0.84130   0.91977   0.00000  Uiso   1.00
C1335  C     0.68002   0.86060   0.66096   0.00000  Uiso   1.00
C1336  C     0.72078   0.87940   0.90580   0.00000  Uiso   1.00
C1337  C     0.69803   0.84338   0.88432   0.00000  Uiso   1.00
C1338  C     0.74290   0.78741   0.57367   0.00000  Uiso   1.00
C1339  C     0.74985   0.74138   0.56580   0.00000  Uiso   1.00
C1340  C     0.80579   0.83222   0.95962   0.00000  Uiso   1.00
C1341  C     0.76323   0.84041   0.98117   0.00000  Uiso   1.00
C1342  C     0.83122   0.81532   0.97867   0.00000  Uiso   1.00
C1343  C     0.81466   0.81037   0.52006   0.00000  Uiso   1.00
C1344  C     0.76917   0.81156   0.53862   0.00000  Uiso   1.00
C1345  C     0.74520   0.82922   0.51969   0.00000  Uiso   1.00
H1346  H     0.71117   0.83223   0.53433   0.00000  Uiso   1.00
H1347  H     0.99011   0.83481   0.65289   0.00000  Uiso   1.00
H1348  H     0.99842   0.89020   0.66970   0.00000  Uiso   1.00
H1349  H     0.70801   0.86513   0.63417   0.00000  Uiso   1.00
H1350  H     0.71868   0.87685   0.70158   0.00000  Uiso   1.00
H1351  H     0.71528   0.82322   0.68156   0.00000  Uiso   1.00
H1352  H     0.67609   0.85561   0.87109   0.00000  Uiso   1.00
H1353  H     0.72170   0.82633   0.86023   0.00000  Uiso   1.00
H1354  H     0.67836   0.82123   0.90569   0.00000  Uiso   1.00
H1355  H     0.69528   0.89452   0.92986   0.00000  Uiso   1.00
H1356  H     0.73687   0.90415   0.88619   0.00000  Uiso   1.00
H1357  H     0.94484   0.77057   0.52096   0.00000  Uiso   1.00
H1358  H     0.74326   0.72767   0.53742   0.00000  Uiso   1.00
H1359  H     0.78345   0.73711   0.56441   0.00000  Uiso   1.00
H1360  H     0.72728   0.72436   0.59025   0.00000  Uiso   1.00
H1361  H     0.74848   0.80082   0.60224   0.00000  Uiso   1.00
H1362  H     0.70760   0.78856   0.57898   0.00000  Uiso   1.00
H1363  H     0.98396   0.81980   0.79027   0.00000  Uiso   1.00
H1364  H     0.81005   0.82980   0.59882   0.00000  Uiso   1.00
H1365  H     0.92615   0.78097   0.59371   0.00000  Uiso   1.00
H1366  H     0.92877   0.77788   0.95969   0.00000  Uiso   1.00
H1367  H     0.70489   0.86307   0.98033   0.00000  Uiso   1.00
H1368  H     0.85414   0.83723   0.90241   0.00000  Uiso   1.00
H1369  H     0.88490   0.80065   0.92574   0.00000  Uiso   1.00
O1370  O     0.83333   0.83333   0.75000   0.00000  Uiso   1.00
O1371  O     0.82360   0.79060   0.66625   0.00000  Uiso   1.00
O1372  O     0.79354   0.87313   0.83749   0.00000  Uiso   1.00
O1373  O     0.87755   0.84159   0.65877   0.00000  Uiso   1.00
O1374  O     0.83865   0.82802   0.83749   0.00000  Uiso   1.00
O1375  O     0.84515   0.74768   0.77821   0.00000  Uiso   1.00
O1376  O     0.81247   0.92803   0.76767   0.00000  Uiso   1.00
O1377  O     0.74119   0.79917   0.73607   0.00000  Uiso   1.00
O1378  O     0.93452   0.85845   0.71806   0.00000  Uiso   1.00
O1379  O     0.73656   0.85627   0.77820   0.00000  Uiso   1.00
O1380  O     0.92106   0.81944   0.76768   0.00000  Uiso   1.00
O1381  O     0.80467   0.73570   0.73607   0.00000  Uiso   1.00
O1382  O     0.87104   0.92193   0.71806   0.00000  Uiso   1.00
Zn1383 Zn    0.85910   0.80756   0.78278   0.00000  Uiso   1.00
Zn1384 Zn    0.80125   0.79044   0.72258   0.00000  Uiso   1.00
Zn1385 Zn    0.87833   0.86331   0.71188   0.00000  Uiso   1.00
Zn1386 Zn    0.79465   0.87202   0.78277   0.00000  Uiso   1.00
loop_
_geom_bond_atom_site_label_1
_geom_bond_atom_site_label_2
_geom_bond_distance
_geom_bond_site_symmetry_2
_ccdc_geom_bond_type
Br1    C477    1.933   1_545 S
Br2    C247    1.932   .     S
C3     O68     1.273   .     A
C3     C13     1.442   .     S
C3     O70     1.265   .     A
C4     H60     1.077   .     S
C4     C33     1.416   .     A
C4     C5      1.388   .     A
C5     H57     1.084   .     S
C5     C700    1.391   .     S
C6     O69     1.275   .     A
C6     C12     1.474   .     S
C6     O71     1.286   .     A
C7     C8      1.419   .     A
C7     C9      1.404   .     A
C7     C698    1.391   1_554 S
C8     C34     1.426   .     A
C8     C11     1.406   .     A
C9     C10     1.392   .     A
C9     H48     1.084   .     S
C10    C22     1.397   .     A
C10    H56     1.084   .     S
C11    H55     1.076   .     S
C11    C22     1.394   .     A
C12    C90     1.345   .     S
C12    C101    1.537   .     S
C13    C166    1.345   1_455 S
C13    H208    1.087   1_455 S
C14    C21     1.424   .     A
C14    C27     1.517   .     S
C14    C23     1.402   .     A
C15    C18     1.454   .     S
C15    Br232   1.933   .     S
C15    C247    1.350   .     S
C16    C17     1.427   .     S
C16    C477    1.350   1_545 S
C16    Br464   1.932   1_545 S
C17    O66     1.276   .     A
C17    O72     1.272   .     A
C18    O67     1.259   .     A
C18    O73     1.270   .     A
C19    O62     1.276   .     A
C19    C22     1.456   .     S
C19    O64     1.274   .     A
C20    O65     1.292   .     A
C20    O63     1.285   .     A
C20    C21     1.487   .     S
C21    C25     1.404   .     A
C23    C32     1.400   .     A
C23    H58     1.085   .     S
C24    H42     1.111   .     S
C24    C26     1.529   .     S
C24    H41     1.112   .     S
C24    C166    1.537   1_455 S
C25    C31     1.411   .     A
C25    H59     1.077   .     S
C26    H40     1.111   .     S
C26    H192    1.111   1_455 S
C26    H193    1.110   1_455 S
C27    H46     1.112   .     S
C27    H47     1.108   .     S
C27    C28     1.528   .     S
C28    H45     1.111   .     S
C28    H44     1.109   .     S
C28    H43     1.110   .     S
C29    C30     1.528   .     S
C29    C35     1.530   .     S
C29    H53     1.112   .     S
C29    H52     1.101   .     S
C30    H51     1.111   .     S
C30    H50     1.109   .     S
C30    H49     1.111   .     S
C31    C33     1.425   .     A
C31    C32     1.411   .     A
C32    C729    1.394   .     S
C33    C727    1.428   .     S
C34    C35     1.432   .     A
C34    C726    1.428   1_554 S
C35    C36     1.399   .     A
C36    H37     1.085   .     S
C36    C725    1.394   1_554 S
H38    C103    1.111   .     S
H39    C103    1.110   .     S
H54    C90     1.087   .     S
O61    Zn75    1.945   .     S
O61    Zn77    1.926   .     S
O61    Zn76    1.921   .     S
O61    Zn74    1.962   .     S
O62    Zn75    1.911   .     S
O63    Zn77    1.927   .     S
O64    Zn76    1.923   .     S
O65    Zn74    1.909   .     S
O66    Zn74    1.936   .     S
O67    Zn77    1.936   .     S
O68    Zn75    1.923   .     S
O69    Zn76    1.939   .     S
O70    Zn77    1.932   .     S
O71    Zn74    1.918   .     S
O72    Zn75    1.945   .     S
O73    Zn76    1.939   .     S
Br78   C554    1.933   1_545 S
Br79   C324    1.932   .     S
C80    O145    1.273   .     A
C80    C90     1.442   .     S
C80    O147    1.265   .     A
C81    H137    1.077   .     S
C81    C110    1.416   .     A
C81    C82     1.388   .     A
C82    H134    1.084   .     S
C82    C777    1.391   .     S
C83    O146    1.275   .     A
C83    C89     1.474   .     S
C83    O148    1.286   .     A
C84    C85     1.419   .     A
C84    C86     1.404   .     A
C84    C775    1.391   1_554 S
C85    C111    1.426   .     A
C85    C88     1.406   .     A
C86    C87     1.392   .     A
C86    H125    1.084   .     S
C87    C99     1.397   .     A
C87    H133    1.084   .     S
C88    H132    1.076   .     S
C88    C99     1.394   .     A
C89    C167    1.345   .     S
C89    C178    1.537   .     S
C91    C98     1.424   .     A
C91    C104    1.517   .     S
C91    C100    1.402   .     A
C92    C95     1.454   .     S
C92    Br309   1.933   .     S
C92    C324    1.350   .     S
C93    C94     1.427   .     S
C93    C554    1.350   1_545 S
C93    Br541   1.932   1_545 S
C94    O143    1.276   .     A
C94    O149    1.272   .     A
C95    O144    1.259   .     A
C95    O150    1.270   .     A
C96    O139    1.276   .     A
C96    C99     1.456   .     S
C96    O141    1.274   .     A
C97    O142    1.292   .     A
C97    O140    1.285   .     A
C97    C98     1.487   .     S
C98    C102    1.404   .     A
C100   C109    1.400   .     A
C100   H135    1.085   .     S
C101   H119    1.111   .     S
C101   C103    1.529   .     S
C101   H118    1.112   .     S
C102   C108    1.411   .     A
C102   H136    1.077   .     S
C103   H117    1.111   .     S
C104   H123    1.112   .     S
C104   H124    1.108   .     S
C104   C105    1.528   .     S
C105   H122    1.111   .     S
C105   H121    1.109   .     S
C105   H120    1.110   .     S
C106   C107    1.528   .     S
C106   C112    1.530   .     S
C106   H130    1.112   .     S
C106   H129    1.101   .     S
C107   H128    1.111   .     S
C107   H127    1.109   .     S
C107   H126    1.111   .     S
C108   C110    1.425   .     A
C108   C109    1.411   .     A
C109   C806    1.394   .     S
C110   C804    1.428   .     S
C111   C112    1.432   .     A
C111   C803    1.428   1_554 S
C112   C113    1.399   .     A
C113   H114    1.085   .     S
C113   C802    1.394   1_554 S
H115   C180    1.111   .     S
H116   C180    1.110   .     S
H131   C167    1.087   .     S
O138   Zn152   1.945   .     S
O138   Zn154   1.926   .     S
O138   Zn153   1.921   .     S
O138   Zn151   1.962   .     S
O139   Zn152   1.911   .     S
O140   Zn154   1.927   .     S
O141   Zn153   1.923   .     S
O142   Zn151   1.909   .     S
O143   Zn151   1.936   .     S
O144   Zn154   1.936   .     S
O145   Zn152   1.923   .     S
O146   Zn153   1.939   .     S
O147   Zn154   1.932   .     S
O148   Zn151   1.918   .     S
O149   Zn152   1.945   .     S
O150   Zn153   1.939   .     S
Br155  C631    1.933   1_545 S
Br156  C401    1.932   .     S
C157   O222    1.273   .     A
C157   C167    1.442   .     S
C157   O224    1.265   .     A
C158   H214    1.077   .     S
C158   C187    1.416   .     A
C158   C159    1.388   .     A
C159   H211    1.084   .     S
C159   C854    1.391   .     S
C160   O223    1.275   .     A
C160   C166    1.474   .     S
C160   O225    1.286   .     A
C161   C162    1.419   .     A
C161   C163    1.404   .     A
C161   C852    1.391   1_554 S
C162   C188    1.426   .     A
C162   C165    1.406   .     A
C163   C164    1.392   .     A
C163   H202    1.084   .     S
C164   C176    1.397   .     A
C164   H210    1.084   .     S
C165   H209    1.076   .     S
C165   C176    1.394   .     A
C166   C13     1.345   1_655 S
C166   C24     1.537   1_655 S
C168   C175    1.424   .     A
C168   C181    1.517   .     S
C168   C177    1.402   .     A
C169   C172    1.454   .     S
C169   Br386   1.933   .     S
C169   C401    1.350   .     S
C170   C171    1.427   .     S
C170   C631    1.350   1_545 S
C170   Br618   1.932   1_545 S
C171   O220    1.276   .     A
C171   O226    1.272   .     A
C172   O221    1.259   .     A
C172   O227    1.270   .     A
C173   O216    1.276   .     A
C173   C176    1.456   .     S
C173   O218    1.274   .     A
C174   O219    1.292   .     A
C174   O217    1.285   .     A
C174   C175    1.487   .     S
C175   C179    1.404   .     A
C177   C186    1.400   .     A
C177   H212    1.085   .     S
C178   H196    1.111   .     S
C178   C180    1.529   .     S
C178   H195    1.112   .     S
C179   C185    1.411   .     A
C179   H213    1.077   .     S
C180   H194    1.111   .     S
C181   H200    1.112   .     S
C181   H201    1.108   .     S
C181   C182    1.528   .     S
C182   H199    1.111   .     S
C182   H198    1.109   .     S
C182   H197    1.110   .     S
C183   C184    1.528   .     S
C183   C189    1.530   .     S
C183   H207    1.112   .     S
C183   H206    1.101   .     S
C184   H205    1.111   .     S
C184   H204    1.109   .     S
C184   H203    1.111   .     S
C185   C187    1.425   .     A
C185   C186    1.411   .     A
C186   C883    1.394   .     S
C187   C881    1.428   .     S
C188   C189    1.432   .     A
C188   C880    1.428   1_554 S
C189   C190    1.399   .     A
C190   H191    1.085   .     S
C190   C879    1.394   1_554 S
H192   C26     1.111   1_655 S
H193   C26     1.110   1_655 S
H208   C13     1.087   1_655 S
O215   Zn229   1.945   .     S
O215   Zn231   1.926   .     S
O215   Zn230   1.921   .     S
O215   Zn228   1.962   .     S
O216   Zn229   1.911   .     S
O217   Zn231   1.927   .     S
O218   Zn230   1.923   .     S
O219   Zn228   1.909   .     S
O220   Zn228   1.936   .     S
O221   Zn231   1.936   .     S
O222   Zn229   1.923   .     S
O223   Zn230   1.939   .     S
O224   Zn231   1.932   .     S
O225   Zn228   1.918   .     S
O226   Zn229   1.945   .     S
O227   Zn230   1.939   .     S
Br233  C478    1.932   .     S
C234   O299    1.273   .     A
C234   C244    1.442   .     S
C234   O301    1.265   .     A
C235   H291    1.077   .     S
C235   C264    1.416   .     A
C235   C236    1.388   .     A
C236   H288    1.084   .     S
C236   C931    1.391   .     S
C237   O300    1.275   .     A
C237   C243    1.474   .     S
C237   O302    1.286   .     A
C238   C239    1.419   .     A
C238   C240    1.404   .     A
C238   C929    1.391   1_554 S
C239   C265    1.426   .     A
C239   C242    1.406   .     A
C240   C241    1.392   .     A
C240   H279    1.084   .     S
C241   C253    1.397   .     A
C241   H287    1.084   .     S
C242   H286    1.076   .     S
C242   C253    1.394   .     A
C243   C321    1.345   .     S
C243   C332    1.537   .     S
C244   C397    1.345   1_455 S
C244   H439    1.087   1_455 S
C245   C252    1.424   .     A
C245   C258    1.517   .     S
C245   C254    1.402   .     A
C246   C249    1.454   .     S
C246   Br463   1.933   .     S
C246   C478    1.350   .     S
C247   C248    1.427   .     S
C248   O297    1.276   .     A
C248   O303    1.272   .     A
C249   O298    1.259   .     A
C249   O304    1.270   .     A
C250   O293    1.276   .     A
C250   C253    1.456   .     S
C250   O295    1.274   .     A
C251   O296    1.292   .     A
C251   O294    1.285   .     A
C251   C252    1.487   .     S
C252   C256    1.404   .     A
C254   C263    1.400   .     A
C254   H289    1.085   .     S
C255   H273    1.111   .     S
C255   C257    1.529   .     S
C255   H272    1.112   .     S
C255   C397    1.537   1_455 S
C256   C262    1.411   .     A
C256   H290    1.077   .     S
C257   H271    1.111   .     S
C257   H423    1.111   1_455 S
C257   H424    1.110   1_455 S
C258   H277    1.112   .     S
C258   H278    1.108   .     S
C258   C259    1.528   .     S
C259   H276    1.111   .     S
C259   H275    1.109   .     S
C259   H274    1.110   .     S
C260   C261    1.528   .     S
C260   C266    1.530   .     S
C260   H284    1.112   .     S
C260   H283    1.101   .     S
C261   H282    1.111   .     S
C261   H281    1.109   .     S
C261   H280    1.111   .     S
C262   C264    1.425   .     A
C262   C263    1.411   .     A
C263   C960    1.394   .     S
C264   C958    1.428   .     S
C265   C266    1.432   .     A
C265   C957    1.428   1_554 S
C266   C267    1.399   .     A
C267   H268    1.085   .     S
C267   C956    1.394   1_554 S
H269   C334    1.111   .     S
H270   C334    1.110   .     S
H285   C321    1.087   .     S
O292   Zn306   1.945   .     S
O292   Zn308   1.926   .     S
O292   Zn307   1.921   .     S
O292   Zn305   1.962   .     S
O293   Zn306   1.911   .     S
O294   Zn308   1.927   .     S
O295   Zn307   1.923   .     S
O296   Zn305   1.909   .     S
O297   Zn305   1.936   .     S
O298   Zn308   1.936   .     S
O299   Zn306   1.923   .     S
O300   Zn307   1.939   .     S
O301   Zn308   1.932   .     S
O302   Zn305   1.918   .     S
O303   Zn306   1.945   .     S
O304   Zn307   1.939   .     S
Br310  C555    1.932   .     S
C311   O376    1.273   .     A
C311   C321    1.442   .     S
C311   O378    1.265   .     A
C312   H368    1.077   .     S
C312   C341    1.416   .     A
C312   C313    1.388   .     A
C313   H365    1.084   .     S
C313   C1008   1.391   .     S
C314   O377    1.275   .     A
C314   C320    1.474   .     S
C314   O379    1.286   .     A
C315   C316    1.419   .     A
C315   C317    1.404   .     A
C315   C1006   1.391   1_554 S
C316   C342    1.426   .     A
C316   C319    1.406   .     A
C317   C318    1.392   .     A
C317   H356    1.084   .     S
C318   C330    1.397   .     A
C318   H364    1.084   .     S
C319   H363    1.076   .     S
C319   C330    1.394   .     A
C320   C398    1.345   .     S
C320   C409    1.537   .     S
C322   C329    1.424   .     A
C322   C335    1.517   .     S
C322   C331    1.402   .     A
C323   C326    1.454   .     S
C323   Br540   1.933   .     S
C323   C555    1.350   .     S
C324   C325    1.427   .     S
C325   O374    1.276   .     A
C325   O380    1.272   .     A
C326   O375    1.259   .     A
C326   O381    1.270   .     A
C327   O370    1.276   .     A
C327   C330    1.456   .     S
C327   O372    1.274   .     A
C328   O373    1.292   .     A
C328   O371    1.285   .     A
C328   C329    1.487   .     S
C329   C333    1.404   .     A
C331   C340    1.400   .     A
C331   H366    1.085   .     S
C332   H350    1.111   .     S
C332   C334    1.529   .     S
C332   H349    1.112   .     S
C333   C339    1.411   .     A
C333   H367    1.077   .     S
C334   H348    1.111   .     S
C335   H354    1.112   .     S
C335   H355    1.108   .     S
C335   C336    1.528   .     S
C336   H353    1.111   .     S
C336   H352    1.109   .     S
C336   H351    1.110   .     S
C337   C338    1.528   .     S
C337   C343    1.530   .     S
C337   H361    1.112   .     S
C337   H360    1.101   .     S
C338   H359    1.111   .     S
C338   H358    1.109   .     S
C338   H357    1.111   .     S
C339   C341    1.425   .     A
C339   C340    1.411   .     A
C340   C1037   1.394   .     S
C341   C1035   1.428   .     S
C342   C343    1.432   .     A
C342   C1034   1.428   1_554 S
C343   C344    1.399   .     A
C344   H345    1.085   .     S
C344   C1033   1.394   1_554 S
H346   C411    1.111   .     S
H347   C411    1.110   .     S
H362   C398    1.087   .     S
O369   Zn383   1.945   .     S
O369   Zn385   1.926   .     S
O369   Zn384   1.921   .     S
O369   Zn382   1.962   .     S
O370   Zn383   1.911   .     S
O371   Zn385   1.927   .     S
O372   Zn384   1.923   .     S
O373   Zn382   1.909   .     S
O374   Zn382   1.936   .     S
O375   Zn385   1.936   .     S
O376   Zn383   1.923   .     S
O377   Zn384   1.939   .     S
O378   Zn385   1.932   .     S
O379   Zn382   1.918   .     S
O380   Zn383   1.945   .     S
O381   Zn384   1.939   .     S
Br387  C632    1.932   .     S
C388   O453    1.273   .     A
C388   C398    1.442   .     S
C388   O455    1.265   .     A
C389   H445    1.077   .     S
C389   C418    1.416   .     A
C389   C390    1.388   .     A
C390   H442    1.084   .     S
C390   C1085   1.391   .     S
C391   O454    1.275   .     A
C391   C397    1.474   .     S
C391   O456    1.286   .     A
C392   C393    1.419   .     A
C392   C394    1.404   .     A
C392   C1083   1.391   1_554 S
C393   C419    1.426   .     A
C393   C396    1.406   .     A
C394   C395    1.392   .     A
C394   H433    1.084   .     S
C395   C407    1.397   .     A
C395   H441    1.084   .     S
C396   H440    1.076   .     S
C396   C407    1.394   .     A
C397   C244    1.345   1_655 S
C397   C255    1.537   1_655 S
C399   C406    1.424   .     A
C399   C412    1.517   .     S
C399   C408    1.402   .     A
C400   C403    1.454   .     S
C400   Br617   1.933   .     S
C400   C632    1.350   .     S
C401   C402    1.427   .     S
C402   O451    1.276   .     A
C402   O457    1.272   .     A
C403   O452    1.259   .     A
C403   O458    1.270   .     A
C404   O447    1.276   .     A
C404   C407    1.456   .     S
C404   O449    1.274   .     A
C405   O450    1.292   .     A
C405   O448    1.285   .     A
C405   C406    1.487   .     S
C406   C410    1.404   .     A
C408   C417    1.400   .     A
C408   H443    1.085   .     S
C409   H427    1.111   .     S
C409   C411    1.529   .     S
C409   H426    1.112   .     S
C410   C416    1.411   .     A
C410   H444    1.077   .     S
C411   H425    1.111   .     S
C412   H431    1.112   .     S
C412   H432    1.108   .     S
C412   C413    1.528   .     S
C413   H430    1.111   .     S
C413   H429    1.109   .     S
C413   H428    1.110   .     S
C414   C415    1.528   .     S
C414   C420    1.530   .     S
C414   H438    1.112   .     S
C414   H437    1.101   .     S
C415   H436    1.111   .     S
C415   H435    1.109   .     S
C415   H434    1.111   .     S
C416   C418    1.425   .     A
C416   C417    1.411   .     A
C417   C1114   1.394   .     S
C418   C1112   1.428   .     S
C419   C420    1.432   .     A
C419   C1111   1.428   1_554 S
C420   C421    1.399   .     A
C421   H422    1.085   .     S
C421   C1110   1.394   1_554 S
H423   C257    1.111   1_655 S
H424   C257    1.110   1_655 S
H439   C244    1.087   1_655 S
O446   Zn460   1.945   .     S
O446   Zn462   1.926   .     S
O446   Zn461   1.921   .     S
O446   Zn459   1.962   .     S
O447   Zn460   1.911   .     S
O448   Zn462   1.927   .     S
O449   Zn461   1.923   .     S
O450   Zn459   1.909   .     S
O451   Zn459   1.936   .     S
O452   Zn462   1.936   .     S
O453   Zn460   1.923   .     S
O454   Zn461   1.939   .     S
O455   Zn462   1.932   .     S
O456   Zn459   1.918   .     S
O457   Zn460   1.945   .     S
O458   Zn461   1.939   .     S
Br464  C16     1.932   1_565 S
C465   O530    1.273   .     A
C465   C475    1.442   .     S
C465   O532    1.265   .     A
C466   H522    1.077   .     S
C466   C495    1.416   .     A
C466   C467    1.388   .     A
C467   H519    1.084   .     S
C467   C1162   1.391   .     S
C468   O531    1.275   .     A
C468   C474    1.474   .     S
C468   O533    1.286   .     A
C469   C470    1.419   .     A
C469   C471    1.404   .     A
C469   C1160   1.391   1_554 S
C470   C496    1.426   .     A
C470   C473    1.406   .     A
C471   C472    1.392   .     A
C471   H510    1.084   .     S
C472   C484    1.397   .     A
C472   H518    1.084   .     S
C473   H517    1.076   .     S
C473   C484    1.394   .     A
C474   C552    1.345   .     S
C474   C563    1.537   .     S
C475   C628    1.345   1_455 S
C475   H670    1.087   1_455 S
C476   C483    1.424   .     A
C476   C489    1.517   .     S
C476   C485    1.402   .     A
C477   C480    1.454   .     S
C477   Br1     1.933   1_565 S
C477   C16     1.350   1_565 S
C478   C479    1.427   .     S
C479   O528    1.276   .     A
C479   O534    1.272   .     A
C480   O529    1.259   .     A
C480   O535    1.270   .     A
C481   O524    1.276   .     A
C481   C484    1.456   .     S
C481   O526    1.274   .     A
C482   O527    1.292   .     A
C482   O525    1.285   .     A
C482   C483    1.487   .     S
C483   C487    1.404   .     A
C485   C494    1.400   .     A
C485   H520    1.085   .     S
C486   H504    1.111   .     S
C486   C488    1.529   .     S
C486   H503    1.112   .     S
C486   C628    1.537   1_455 S
C487   C493    1.411   .     A
C487   H521    1.077   .     S
C488   H502    1.111   .     S
C488   H654    1.111   1_455 S
C488   H655    1.110   1_455 S
C489   H508    1.112   .     S
C489   H509    1.108   .     S
C489   C490    1.528   .     S
C490   H507    1.111   .     S
C490   H506    1.109   .     S
C490   H505    1.110   .     S
C491   C492    1.528   .     S
C491   C497    1.530   .     S
C491   H515    1.112   .     S
C491   H514    1.101   .     S
C492   H513    1.111   .     S
C492   H512    1.109   .     S
C492   H511    1.111   .     S
C493   C495    1.425   .     A
C493   C494    1.411   .     A
C494   C1191   1.394   .     S
C495   C1189   1.428   .     S
C496   C497    1.432   .     A
C496   C1188   1.428   1_554 S
C497   C498    1.399   .     A
C498   H499    1.085   .     S
C498   C1187   1.394   1_554 S
H500   C565    1.111   .     S
H501   C565    1.110   .     S
H516   C552    1.087   .     S
O523   Zn537   1.945   .     S
O523   Zn539   1.926   .     S
O523   Zn538   1.921   .     S
O523   Zn536   1.962   .     S
O524   Zn537   1.911   .     S
O525   Zn539   1.927   .     S
O526   Zn538   1.923   .     S
O527   Zn536   1.909   .     S
O528   Zn536   1.936   .     S
O529   Zn539   1.936   .     S
O530   Zn537   1.923   .     S
O531   Zn538   1.939   .     S
O532   Zn539   1.932   .     S
O533   Zn536   1.918   .     S
O534   Zn537   1.945   .     S
O535   Zn538   1.939   .     S
Br541  C93     1.932   1_565 S
C542   O607    1.273   .     A
C542   C552    1.442   .     S
C542   O609    1.265   .     A
C543   H599    1.077   .     S
C543   C572    1.416   .     A
C543   C544    1.388   .     A
C544   H596    1.084   .     S
C544   C1239   1.391   .     S
C545   O608    1.275   .     A
C545   C551    1.474   .     S
C545   O610    1.286   .     A
C546   C547    1.419   .     A
C546   C548    1.404   .     A
C546   C1237   1.391   1_554 S
C547   C573    1.426   .     A
C547   C550    1.406   .     A
C548   C549    1.392   .     A
C548   H587    1.084   .     S
C549   C561    1.397   .     A
C549   H595    1.084   .     S
C550   H594    1.076   .     S
C550   C561    1.394   .     A
C551   C629    1.345   .     S
C551   C640    1.537   .     S
C553   C560    1.424   .     A
C553   C566    1.517   .     S
C553   C562    1.402   .     A
C554   C557    1.454   .     S
C554   Br78    1.933   1_565 S
C554   C93     1.350   1_565 S
C555   C556    1.427   .     S
C556   O605    1.276   .     A
C556   O611    1.272   .     A
C557   O606    1.259   .     A
C557   O612    1.270   .     A
C558   O601    1.276   .     A
C558   C561    1.456   .     S
C558   O603    1.274   .     A
C559   O604    1.292   .     A
C559   O602    1.285   .     A
C559   C560    1.487   .     S
C560   C564    1.404   .     A
C562   C571    1.400   .     A
C562   H597    1.085   .     S
C563   H581    1.111   .     S
C563   C565    1.529   .     S
C563   H580    1.112   .     S
C564   C570    1.411   .     A
C564   H598    1.077   .     S
C565   H579    1.111   .     S
C566   H585    1.112   .     S
C566   H586    1.108   .     S
C566   C567    1.528   .     S
C567   H584    1.111   .     S
C567   H583    1.109   .     S
C567   H582    1.110   .     S
C568   C569    1.528   .     S
C568   C574    1.530   .     S
C568   H592    1.112   .     S
C568   H591    1.101   .     S
C569   H590    1.111   .     S
C569   H589    1.109   .     S
C569   H588    1.111   .     S
C570   C572    1.425   .     A
C570   C571    1.411   .     A
C571   C1268   1.394   .     S
C572   C1266   1.428   .     S
C573   C574    1.432   .     A
C573   C1265   1.428   1_554 S
C574   C575    1.399   .     A
C575   H576    1.085   .     S
C575   C1264   1.394   1_554 S
H577   C642    1.111   .     S
H578   C642    1.110   .     S
H593   C629    1.087   .     S
O600   Zn614   1.945   .     S
O600   Zn616   1.926   .     S
O600   Zn615   1.921   .     S
O600   Zn613   1.962   .     S
O601   Zn614   1.911   .     S
O602   Zn616   1.927   .     S
O603   Zn615   1.923   .     S
O604   Zn613   1.909   .     S
O605   Zn613   1.936   .     S
O606   Zn616   1.936   .     S
O607   Zn614   1.923   .     S
O608   Zn615   1.939   .     S
O609   Zn616   1.932   .     S
O610   Zn613   1.918   .     S
O611   Zn614   1.945   .     S
O612   Zn615   1.939   .     S
Br618  C170    1.932   1_565 S
C619   O684    1.273   .     A
C619   C629    1.442   .     S
C619   O686    1.265   .     A
C620   H676    1.077   .     S
C620   C649    1.416   .     A
C620   C621    1.388   .     A
C621   H673    1.084   .     S
C621   C1316   1.391   .     S
C622   O685    1.275   .     A
C622   C628    1.474   .     S
C622   O687    1.286   .     A
C623   C624    1.419   .     A
C623   C625    1.404   .     A
C623   C1314   1.391   1_554 S
C624   C650    1.426   .     A
C624   C627    1.406   .     A
C625   C626    1.392   .     A
C625   H664    1.084   .     S
C626   C638    1.397   .     A
C626   H672    1.084   .     S
C627   H671    1.076   .     S
C627   C638    1.394   .     A
C628   C475    1.345   1_655 S
C628   C486    1.537   1_655 S
C630   C637    1.424   .     A
C630   C643    1.517   .     S
C630   C639    1.402   .     A
C631   C634    1.454   .     S
C631   Br155   1.933   1_565 S
C631   C170    1.350   1_565 S
C632   C633    1.427   .     S
C633   O682    1.276   .     A
C633   O688    1.272   .     A
C634   O683    1.259   .     A
C634   O689    1.270   .     A
C635   O678    1.276   .     A
C635   C638    1.456   .     S
C635   O680    1.274   .     A
C636   O681    1.292   .     A
C636   O679    1.285   .     A
C636   C637    1.487   .     S
C637   C641    1.404   .     A
C639   C648    1.400   .     A
C639   H674    1.085   .     S
C640   H658    1.111   .     S
C640   C642    1.529   .     S
C640   H657    1.112   .     S
C641   C647    1.411   .     A
C641   H675    1.077   .     S
C642   H656    1.111   .     S
C643   H662    1.112   .     S
C643   H663    1.108   .     S
C643   C644    1.528   .     S
C644   H661    1.111   .     S
C644   H660    1.109   .     S
C644   H659    1.110   .     S
C645   C646    1.528   .     S
C645   C651    1.530   .     S
C645   H669    1.112   .     S
C645   H668    1.101   .     S
C646   H667    1.111   .     S
C646   H666    1.109   .     S
C646   H665    1.111   .     S
C647   C649    1.425   .     A
C647   C648    1.411   .     A
C648   C1345   1.394   .     S
C649   C1343   1.428   .     S
C650   C651    1.432   .     A
C650   C1342   1.428   1_554 S
C651   C652    1.399   .     A
C652   H653    1.085   .     S
C652   C1341   1.394   1_554 S
H654   C488    1.111   1_655 S
H655   C488    1.110   1_655 S
H670   C475    1.087   1_655 S
O677   Zn691   1.945   .     S
O677   Zn693   1.926   .     S
O677   Zn692   1.921   .     S
O677   Zn690   1.962   .     S
O678   Zn691   1.911   .     S
O679   Zn693   1.927   .     S
O680   Zn692   1.923   .     S
O681   Zn690   1.909   .     S
O682   Zn690   1.936   .     S
O683   Zn693   1.936   .     S
O684   Zn691   1.923   .     S
O685   Zn692   1.939   .     S
O686   Zn693   1.932   .     S
O687   Zn690   1.918   .     S
O688   Zn691   1.945   .     S
O689   Zn692   1.939   .     S
Br694  C1170   1.933   1_545 S
Br695  C940    1.932   .     S
C696   O761    1.273   .     A
C696   C706    1.442   .     S
C696   O763    1.265   .     A
C697   H753    1.077   .     S
C697   C726    1.416   .     A
C697   C698    1.388   .     A
C698   H750    1.084   .     S
C698   C7      1.391   1_556 S
C699   O762    1.275   .     A
C699   C705    1.474   .     S
C699   O764    1.286   .     A
C700   C701    1.419   .     A
C700   C702    1.404   .     A
C701   C727    1.426   .     A
C701   C704    1.406   .     A
C702   C703    1.392   .     A
C702   H741    1.084   .     S
C703   C715    1.397   .     A
C703   H749    1.084   .     S
C704   H748    1.076   .     S
C704   C715    1.394   .     A
C705   C783    1.345   .     S
C705   C794    1.537   .     S
C706   C859    1.345   1_455 S
C706   H901    1.087   1_455 S
C707   C714    1.424   .     A
C707   C720    1.517   .     S
C707   C716    1.402   .     A
C708   C711    1.454   .     S
C708   Br925   1.933   .     S
C708   C940    1.350   .     S
C709   C710    1.427   .     S
C709   C1170   1.350   1_545 S
C709   Br1157  1.932   1_545 S
C710   O759    1.276   .     A
C710   O765    1.272   .     A
C711   O760    1.259   .     A
C711   O766    1.270   .     A
C712   O755    1.276   .     A
C712   C715    1.456   .     S
C712   O757    1.274   .     A
C713   O758    1.292   .     A
C713   O756    1.285   .     A
C713   C714    1.487   .     S
C714   C718    1.404   .     A
C716   C725    1.400   .     A
C716   H751    1.085   .     S
C717   H735    1.111   .     S
C717   C719    1.529   .     S
C717   H734    1.112   .     S
C717   C859    1.537   1_455 S
C718   C724    1.411   .     A
C718   H752    1.077   .     S
C719   H733    1.111   .     S
C719   H885    1.111   1_455 S
C719   H886    1.110   1_455 S
C720   H739    1.112   .     S
C720   H740    1.108   .     S
C720   C721    1.528   .     S
C721   H738    1.111   .     S
C721   H737    1.109   .     S
C721   H736    1.110   .     S
C722   C723    1.528   .     S
C722   C728    1.530   .     S
C722   H746    1.112   .     S
C722   H745    1.101   .     S
C723   H744    1.111   .     S
C723   H743    1.109   .     S
C723   H742    1.111   .     S
C724   C726    1.425   .     A
C724   C725    1.411   .     A
C725   C36     1.394   1_556 S
C726   C34     1.428   1_556 S
C727   C728    1.432   .     A
C728   C729    1.399   .     A
C729   H730    1.085   .     S
H731   C796    1.111   .     S
H732   C796    1.110   .     S
H747   C783    1.087   .     S
O754   Zn768   1.945   .     S
O754   Zn770   1.926   .     S
O754   Zn769   1.921   .     S
O754   Zn767   1.962   .     S
O755   Zn768   1.911   .     S
O756   Zn770   1.927   .     S
O757   Zn769   1.923   .     S
O758   Zn767   1.909   .     S
O759   Zn767   1.936   .     S
O760   Zn770   1.936   .     S
O761   Zn768   1.923   .     S
O762   Zn769   1.939   .     S
O763   Zn770   1.932   .     S
O764   Zn767   1.918   .     S
O765   Zn768   1.945   .     S
O766   Zn769   1.939   .     S
Br771  C1247   1.933   1_545 S
Br772  C1017   1.932   .     S
C773   O838    1.273   .     A
C773   C783    1.442   .     S
C773   O840    1.265   .     A
C774   H830    1.077   .     S
C774   C803    1.416   .     A
C774   C775    1.388   .     A
C775   H827    1.084   .     S
C775   C84     1.391   1_556 S
C776   O839    1.275   .     A
C776   C782    1.474   .     S
C776   O841    1.286   .     A
C777   C778    1.419   .     A
C777   C779    1.404   .     A
C778   C804    1.426   .     A
C778   C781    1.406   .     A
C779   C780    1.392   .     A
C779   H818    1.084   .     S
C780   C792    1.397   .     A
C780   H826    1.084   .     S
C781   H825    1.076   .     S
C781   C792    1.394   .     A
C782   C860    1.345   .     S
C782   C871    1.537   .     S
C784   C791    1.424   .     A
C784   C797    1.517   .     S
C784   C793    1.402   .     A
C785   C788    1.454   .     S
C785   Br1002  1.933   .     S
C785   C1017   1.350   .     S
C786   C787    1.427   .     S
C786   C1247   1.350   1_545 S
C786   Br1234  1.932   1_545 S
C787   O836    1.276   .     A
C787   O842    1.272   .     A
C788   O837    1.259   .     A
C788   O843    1.270   .     A
C789   O832    1.276   .     A
C789   C792    1.456   .     S
C789   O834    1.274   .     A
C790   O835    1.292   .     A
C790   O833    1.285   .     A
C790   C791    1.487   .     S
C791   C795    1.404   .     A
C793   C802    1.400   .     A
C793   H828    1.085   .     S
C794   H812    1.111   .     S
C794   C796    1.529   .     S
C794   H811    1.112   .     S
C795   C801    1.411   .     A
C795   H829    1.077   .     S
C796   H810    1.111   .     S
C797   H816    1.112   .     S
C797   H817    1.108   .     S
C797   C798    1.528   .     S
C798   H815    1.111   .     S
C798   H814    1.109   .     S
C798   H813    1.110   .     S
C799   C800    1.528   .     S
C799   C805    1.530   .     S
C799   H823    1.112   .     S
C799   H822    1.101   .     S
C800   H821    1.111   .     S
C800   H820    1.109   .     S
C800   H819    1.111   .     S
C801   C803    1.425   .     A
C801   C802    1.411   .     A
C802   C113    1.394   1_556 S
C803   C111    1.428   1_556 S
C804   C805    1.432   .     A
C805   C806    1.399   .     A
C806   H807    1.085   .     S
H808   C873    1.111   .     S
H809   C873    1.110   .     S
H824   C860    1.087   .     S
O831   Zn845   1.945   .     S
O831   Zn847   1.926   .     S
O831   Zn846   1.921   .     S
O831   Zn844   1.962   .     S
O832   Zn845   1.911   .     S
O833   Zn847   1.927   .     S
O834   Zn846   1.923   .     S
O835   Zn844   1.909   .     S
O836   Zn844   1.936   .     S
O837   Zn847   1.936   .     S
O838   Zn845   1.923   .     S
O839   Zn846   1.939   .     S
O840   Zn847   1.932   .     S
O841   Zn844   1.918   .     S
O842   Zn845   1.945   .     S
O843   Zn846   1.939   .     S
Br848  C1324   1.933   1_545 S
Br849  C1094   1.932   .     S
C850   O915    1.273   .     A
C850   C860    1.442   .     S
C850   O917    1.265   .     A
C851   H907    1.077   .     S
C851   C880    1.416   .     A
C851   C852    1.388   .     A
C852   H904    1.084   .     S
C852   C161    1.391   1_556 S
C853   O916    1.275   .     A
C853   C859    1.474   .     S
C853   O918    1.286   .     A
C854   C855    1.419   .     A
C854   C856    1.404   .     A
C855   C881    1.426   .     A
C855   C858    1.406   .     A
C856   C857    1.392   .     A
C856   H895    1.084   .     S
C857   C869    1.397   .     A
C857   H903    1.084   .     S
C858   H902    1.076   .     S
C858   C869    1.394   .     A
C859   C706    1.345   1_655 S
C859   C717    1.537   1_655 S
C861   C868    1.424   .     A
C861   C874    1.517   .     S
C861   C870    1.402   .     A
C862   C865    1.454   .     S
C862   Br1079  1.933   .     S
C862   C1094   1.350   .     S
C863   C864    1.427   .     S
C863   C1324   1.350   1_545 S
C863   Br1311  1.932   1_545 S
C864   O913    1.276   .     A
C864   O919    1.272   .     A
C865   O914    1.259   .     A
C865   O920    1.270   .     A
C866   O909    1.276   .     A
C866   C869    1.456   .     S
C866   O911    1.274   .     A
C867   O912    1.292   .     A
C867   O910    1.285   .     A
C867   C868    1.487   .     S
C868   C872    1.404   .     A
C870   C879    1.400   .     A
C870   H905    1.085   .     S
C871   H889    1.111   .     S
C871   C873    1.529   .     S
C871   H888    1.112   .     S
C872   C878    1.411   .     A
C872   H906    1.077   .     S
C873   H887    1.111   .     S
C874   H893    1.112   .     S
C874   H894    1.108   .     S
C874   C875    1.528   .     S
C875   H892    1.111   .     S
C875   H891    1.109   .     S
C875   H890    1.110   .     S
C876   C877    1.528   .     S
C876   C882    1.530   .     S
C876   H900    1.112   .     S
C876   H899    1.101   .     S
C877   H898    1.111   .     S
C877   H897    1.109   .     S
C877   H896    1.111   .     S
C878   C880    1.425   .     A
C878   C879    1.411   .     A
C879   C190    1.394   1_556 S
C880   C188    1.428   1_556 S
C881   C882    1.432   .     A
C882   C883    1.399   .     A
C883   H884    1.085   .     S
H885   C719    1.111   1_655 S
H886   C719    1.110   1_655 S
H901   C706    1.087   1_655 S
O908   Zn922   1.945   .     S
O908   Zn924   1.926   .     S
O908   Zn923   1.921   .     S
O908   Zn921   1.962   .     S
O909   Zn922   1.911   .     S
O910   Zn924   1.927   .     S
O911   Zn923   1.923   .     S
O912   Zn921   1.909   .     S
O913   Zn921   1.936   .     S
O914   Zn924   1.936   .     S
O915   Zn922   1.923   .     S
O916   Zn923   1.939   .     S
O917   Zn924   1.932   .     S
O918   Zn921   1.918   .     S
O919   Zn922   1.945   .     S
O920   Zn923   1.939   .     S
Br926  C1171   1.932   .     S
C927   O992    1.273   .     A
C927   C937    1.442   .     S
C927   O994    1.265   .     A
C928   H984    1.077   .     S
C928   C957    1.416   .     A
C928   C929    1.388   .     A
C929   H981    1.084   .     S
C929   C238    1.391   1_556 S
C930   O993    1.275   .     A
C930   C936    1.474   .     S
C930   O995    1.286   .     A
C931   C932    1.419   .     A
C931   C933    1.404   .     A
C932   C958    1.426   .     A
C932   C935    1.406   .     A
C933   C934    1.392   .     A
C933   H972    1.084   .     S
C934   C946    1.397   .     A
C934   H980    1.084   .     S
C935   H979    1.076   .     S
C935   C946    1.394   .     A
C936   C1014   1.345   .     S
C936   C1025   1.537   .     S
C937   C1090   1.345   1_455 S
C937   H1132   1.087   1_455 S
C938   C945    1.424   .     A
C938   C951    1.517   .     S
C938   C947    1.402   .     A
C939   C942    1.454   .     S
C939   Br1156  1.933   .     S
C939   C1171   1.350   .     S
C940   C941    1.427   .     S
C941   O990    1.276   .     A
C941   O996    1.272   .     A
C942   O991    1.259   .     A
C942   O997    1.270   .     A
C943   O986    1.276   .     A
C943   C946    1.456   .     S
C943   O988    1.274   .     A
C944   O989    1.292   .     A
C944   O987    1.285   .     A
C944   C945    1.487   .     S
C945   C949    1.404   .     A
C947   C956    1.400   .     A
C947   H982    1.085   .     S
C948   H966    1.111   .     S
C948   C950    1.529   .     S
C948   H965    1.112   .     S
C948   C1090   1.537   1_455 S
C949   C955    1.411   .     A
C949   H983    1.077   .     S
C950   H964    1.111   .     S
C950   H1116   1.111   1_455 S
C950   H1117   1.110   1_455 S
C951   H970    1.112   .     S
C951   H971    1.108   .     S
C951   C952    1.528   .     S
C952   H969    1.111   .     S
C952   H968    1.109   .     S
C952   H967    1.110   .     S
C953   C954    1.528   .     S
C953   C959    1.530   .     S
C953   H977    1.112   .     S
C953   H976    1.101   .     S
C954   H975    1.111   .     S
C954   H974    1.109   .     S
C954   H973    1.111   .     S
C955   C957    1.425   .     A
C955   C956    1.411   .     A
C956   C267    1.394   1_556 S
C957   C265    1.428   1_556 S
C958   C959    1.432   .     A
C959   C960    1.399   .     A
C960   H961    1.085   .     S
H962   C1027   1.111   .     S
H963   C1027   1.110   .     S
H978   C1014   1.087   .     S
O985   Zn999   1.945   .     S
O985   Zn1001  1.926   .     S
O985   Zn1000  1.921   .     S
O985   Zn998   1.962   .     S
O986   Zn999   1.911   .     S
O987   Zn1001  1.927   .     S
O988   Zn1000  1.923   .     S
O989   Zn998   1.909   .     S
O990   Zn998   1.936   .     S
O991   Zn1001  1.936   .     S
O992   Zn999   1.923   .     S
O993   Zn1000  1.939   .     S
O994   Zn1001  1.932   .     S
O995   Zn998   1.918   .     S
O996   Zn999   1.945   .     S
O997   Zn1000  1.939   .     S
Br1003 C1248   1.932   .     S
C1004  O1069   1.273   .     A
C1004  C1014   1.442   .     S
C1004  O1071   1.265   .     A
C1005  H1061   1.077   .     S
C1005  C1034   1.416   .     A
C1005  C1006   1.388   .     A
C1006  H1058   1.084   .     S
C1006  C315    1.391   1_556 S
C1007  O1070   1.275   .     A
C1007  C1013   1.474   .     S
C1007  O1072   1.286   .     A
C1008  C1009   1.419   .     A
C1008  C1010   1.404   .     A
C1009  C1035   1.426   .     A
C1009  C1012   1.406   .     A
C1010  C1011   1.392   .     A
C1010  H1049   1.084   .     S
C1011  C1023   1.397   .     A
C1011  H1057   1.084   .     S
C1012  H1056   1.076   .     S
C1012  C1023   1.394   .     A
C1013  C1091   1.345   .     S
C1013  C1102   1.537   .     S
C1015  C1022   1.424   .     A
C1015  C1028   1.517   .     S
C1015  C1024   1.402   .     A
C1016  C1019   1.454   .     S
C1016  Br1233  1.933   .     S
C1016  C1248   1.350   .     S
C1017  C1018   1.427   .     S
C1018  O1067   1.276   .     A
C1018  O1073   1.272   .     A
C1019  O1068   1.259   .     A
C1019  O1074   1.270   .     A
C1020  O1063   1.276   .     A
C1020  C1023   1.456   .     S
C1020  O1065   1.274   .     A
C1021  O1066   1.292   .     A
C1021  O1064   1.285   .     A
C1021  C1022   1.487   .     S
C1022  C1026   1.404   .     A
C1024  C1033   1.400   .     A
C1024  H1059   1.085   .     S
C1025  H1043   1.111   .     S
C1025  C1027   1.529   .     S
C1025  H1042   1.112   .     S
C1026  C1032   1.411   .     A
C1026  H1060   1.077   .     S
C1027  H1041   1.111   .     S
C1028  H1047   1.112   .     S
C1028  H1048   1.108   .     S
C1028  C1029   1.528   .     S
C1029  H1046   1.111   .     S
C1029  H1045   1.109   .     S
C1029  H1044   1.110   .     S
C1030  C1031   1.528   .     S
C1030  C1036   1.530   .     S
C1030  H1054   1.112   .     S
C1030  H1053   1.101   .     S
C1031  H1052   1.111   .     S
C1031  H1051   1.109   .     S
C1031  H1050   1.111   .     S
C1032  C1034   1.425   .     A
C1032  C1033   1.411   .     A
C1033  C344    1.394   1_556 S
C1034  C342    1.428   1_556 S
C1035  C1036   1.432   .     A
C1036  C1037   1.399   .     A
C1037  H1038   1.085   .     S
H1039  C1104   1.111   .     S
H1040  C1104   1.110   .     S
H1055  C1091   1.087   .     S
O1062  Zn1076  1.945   .     S
O1062  Zn1078  1.926   .     S
O1062  Zn1077  1.921   .     S
O1062  Zn1075  1.962   .     S
O1063  Zn1076  1.911   .     S
O1064  Zn1078  1.927   .     S
O1065  Zn1077  1.923   .     S
O1066  Zn1075  1.909   .     S
O1067  Zn1075  1.936   .     S
O1068  Zn1078  1.936   .     S
O1069  Zn1076  1.923   .     S
O1070  Zn1077  1.939   .     S
O1071  Zn1078  1.932   .     S
O1072  Zn1075  1.918   .     S
O1073  Zn1076  1.945   .     S
O1074  Zn1077  1.939   .     S
Br1080 C1325   1.932   .     S
C1081  O1146   1.273   .     A
C1081  C1091   1.442   .     S
C1081  O1148   1.265   .     A
C1082  H1138   1.077   .     S
C1082  C1111   1.416   .     A
C1082  C1083   1.388   .     A
C1083  H1135   1.084   .     S
C1083  C392    1.391   1_556 S
C1084  O1147   1.275   .     A
C1084  C1090   1.474   .     S
C1084  O1149   1.286   .     A
C1085  C1086   1.419   .     A
C1085  C1087   1.404   .     A
C1086  C1112   1.426   .     A
C1086  C1089   1.406   .     A
C1087  C1088   1.392   .     A
C1087  H1126   1.084   .     S
C1088  C1100   1.397   .     A
C1088  H1134   1.084   .     S
C1089  H1133   1.076   .     S
C1089  C1100   1.394   .     A
C1090  C937    1.345   1_655 S
C1090  C948    1.537   1_655 S
C1092  C1099   1.424   .     A
C1092  C1105   1.517   .     S
C1092  C1101   1.402   .     A
C1093  C1096   1.454   .     S
C1093  Br1310  1.933   .     S
C1093  C1325   1.350   .     S
C1094  C1095   1.427   .     S
C1095  O1144   1.276   .     A
C1095  O1150   1.272   .     A
C1096  O1145   1.259   .     A
C1096  O1151   1.270   .     A
C1097  O1140   1.276   .     A
C1097  C1100   1.456   .     S
C1097  O1142   1.274   .     A
C1098  O1143   1.292   .     A
C1098  O1141   1.285   .     A
C1098  C1099   1.487   .     S
C1099  C1103   1.404   .     A
C1101  C1110   1.400   .     A
C1101  H1136   1.085   .     S
C1102  H1120   1.111   .     S
C1102  C1104   1.529   .     S
C1102  H1119   1.112   .     S
C1103  C1109   1.411   .     A
C1103  H1137   1.077   .     S
C1104  H1118   1.111   .     S
C1105  H1124   1.112   .     S
C1105  H1125   1.108   .     S
C1105  C1106   1.528   .     S
C1106  H1123   1.111   .     S
C1106  H1122   1.109   .     S
C1106  H1121   1.110   .     S
C1107  C1108   1.528   .     S
C1107  C1113   1.530   .     S
C1107  H1131   1.112   .     S
C1107  H1130   1.101   .     S
C1108  H1129   1.111   .     S
C1108  H1128   1.109   .     S
C1108  H1127   1.111   .     S
C1109  C1111   1.425   .     A
C1109  C1110   1.411   .     A
C1110  C421    1.394   1_556 S
C1111  C419    1.428   1_556 S
C1112  C1113   1.432   .     A
C1113  C1114   1.399   .     A
C1114  H1115   1.085   .     S
H1116  C950    1.111   1_655 S
H1117  C950    1.110   1_655 S
H1132  C937    1.087   1_655 S
O1139  Zn1153  1.945   .     S
O1139  Zn1155  1.926   .     S
O1139  Zn1154  1.921   .     S
O1139  Zn1152  1.962   .     S
O1140  Zn1153  1.911   .     S
O1141  Zn1155  1.927   .     S
O1142  Zn1154  1.923   .     S
O1143  Zn1152  1.909   .     S
O1144  Zn1152  1.936   .     S
O1145  Zn1155  1.936   .     S
O1146  Zn1153  1.923   .     S
O1147  Zn1154  1.939   .     S
O1148  Zn1155  1.932   .     S
O1149  Zn1152  1.918   .     S
O1150  Zn1153  1.945   .     S
O1151  Zn1154  1.939   .     S
Br1157 C709    1.932   1_565 S
C1158  O1223   1.273   .     A
C1158  C1168   1.442   .     S
C1158  O1225   1.265   .     A
C1159  H1215   1.077   .     S
C1159  C1188   1.416   .     A
C1159  C1160   1.388   .     A
C1160  H1212   1.084   .     S
C1160  C469    1.391   1_556 S
C1161  O1224   1.275   .     A
C1161  C1167   1.474   .     S
C1161  O1226   1.286   .     A
C1162  C1163   1.419   .     A
C1162  C1164   1.404   .     A
C1163  C1189   1.426   .     A
C1163  C1166   1.406   .     A
C1164  C1165   1.392   .     A
C1164  H1203   1.084   .     S
C1165  C1177   1.397   .     A
C1165  H1211   1.084   .     S
C1166  H1210   1.076   .     S
C1166  C1177   1.394   .     A
C1167  C1245   1.345   .     S
C1167  C1256   1.537   .     S
C1168  C1321   1.345   1_455 S
C1168  H1363   1.087   1_455 S
C1169  C1176   1.424   .     A
C1169  C1182   1.517   .     S
C1169  C1178   1.402   .     A
C1170  C1173   1.454   .     S
C1170  Br694   1.933   1_565 S
C1170  C709    1.350   1_565 S
C1171  C1172   1.427   .     S
C1172  O1221   1.276   .     A
C1172  O1227   1.272   .     A
C1173  O1222   1.259   .     A
C1173  O1228   1.270   .     A
C1174  O1217   1.276   .     A
C1174  C1177   1.456   .     S
C1174  O1219   1.274   .     A
C1175  O1220   1.292   .     A
C1175  O1218   1.285   .     A
C1175  C1176   1.487   .     S
C1176  C1180   1.404   .     A
C1178  C1187   1.400   .     A
C1178  H1213   1.085   .     S
C1179  H1197   1.111   .     S
C1179  C1181   1.529   .     S
C1179  H1196   1.112   .     S
C1179  C1321   1.537   1_455 S
C1180  C1186   1.411   .     A
C1180  H1214   1.077   .     S
C1181  H1195   1.111   .     S
C1181  H1347   1.111   1_455 S
C1181  H1348   1.110   1_455 S
C1182  H1201   1.112   .     S
C1182  H1202   1.108   .     S
C1182  C1183   1.528   .     S
C1183  H1200   1.111   .     S
C1183  H1199   1.109   .     S
C1183  H1198   1.110   .     S
C1184  C1185   1.528   .     S
C1184  C1190   1.530   .     S
C1184  H1208   1.112   .     S
C1184  H1207   1.101   .     S
C1185  H1206   1.111   .     S
C1185  H1205   1.109   .     S
C1185  H1204   1.111   .     S
C1186  C1188   1.425   .     A
C1186  C1187   1.411   .     A
C1187  C498    1.394   1_556 S
C1188  C496    1.428   1_556 S
C1189  C1190   1.432   .     A
C1190  C1191   1.399   .     A
C1191  H1192   1.085   .     S
H1193  C1258   1.111   .     S
H1194  C1258   1.110   .     S
H1209  C1245   1.087   .     S
O1216  Zn1230  1.945   .     S
O1216  Zn1232  1.926   .     S
O1216  Zn1231  1.921   .     S
O1216  Zn1229  1.962   .     S
O1217  Zn1230  1.911   .     S
O1218  Zn1232  1.927   .     S
O1219  Zn1231  1.923   .     S
O1220  Zn1229  1.909   .     S
O1221  Zn1229  1.936   .     S
O1222  Zn1232  1.936   .     S
O1223  Zn1230  1.923   .     S
O1224  Zn1231  1.939   .     S
O1225  Zn1232  1.932   .     S
O1226  Zn1229  1.918   .     S
O1227  Zn1230  1.945   .     S
O1228  Zn1231  1.939   .     S
Br1234 C786    1.932   1_565 S
C1235  O1300   1.273   .     A
C1235  C1245   1.442   .     S
C1235  O1302   1.265   .     A
C1236  H1292   1.077   .     S
C1236  C1265   1.416   .     A
C1236  C1237   1.388   .     A
C1237  H1289   1.084   .     S
C1237  C546    1.391   1_556 S
C1238  O1301   1.275   .     A
C1238  C1244   1.474   .     S
C1238  O1303   1.286   .     A
C1239  C1240   1.419   .     A
C1239  C1241   1.404   .     A
C1240  C1266   1.426   .     A
C1240  C1243   1.406   .     A
C1241  C1242   1.392   .     A
C1241  H1280   1.084   .     S
C1242  C1254   1.397   .     A
C1242  H1288   1.084   .     S
C1243  H1287   1.076   .     S
C1243  C1254   1.394   .     A
C1244  C1322   1.345   .     S
C1244  C1333   1.537   .     S
C1246  C1253   1.424   .     A
C1246  C1259   1.517   .     S
C1246  C1255   1.402   .     A
C1247  C1250   1.454   .     S
C1247  Br771   1.933   1_565 S
C1247  C786    1.350   1_565 S
C1248  C1249   1.427   .     S
C1249  O1298   1.276   .     A
C1249  O1304   1.272   .     A
C1250  O1299   1.259   .     A
C1250  O1305   1.270   .     A
C1251  O1294   1.276   .     A
C1251  C1254   1.456   .     S
C1251  O1296   1.274   .     A
C1252  O1297   1.292   .     A
C1252  O1295   1.285   .     A
C1252  C1253   1.487   .     S
C1253  C1257   1.404   .     A
C1255  C1264   1.400   .     A
C1255  H1290   1.085   .     S
C1256  H1274   1.111   .     S
C1256  C1258   1.529   .     S
C1256  H1273   1.112   .     S
C1257  C1263   1.411   .     A
C1257  H1291   1.077   .     S
C1258  H1272   1.111   .     S
C1259  H1278   1.112   .     S
C1259  H1279   1.108   .     S
C1259  C1260   1.528   .     S
C1260  H1277   1.111   .     S
C1260  H1276   1.109   .     S
C1260  H1275   1.110   .     S
C1261  C1262   1.528   .     S
C1261  C1267   1.530   .     S
C1261  H1285   1.112   .     S
C1261  H1284   1.101   .     S
C1262  H1283   1.111   .     S
C1262  H1282   1.109   .     S
C1262  H1281   1.111   .     S
C1263  C1265   1.425   .     A
C1263  C1264   1.411   .     A
C1264  C575    1.394   1_556 S
C1265  C573    1.428   1_556 S
C1266  C1267   1.432   .     A
C1267  C1268   1.399   .     A
C1268  H1269   1.085   .     S
H1270  C1335   1.111   .     S
H1271  C1335   1.110   .     S
H1286  C1322   1.087   .     S
O1293  Zn1307  1.945   .     S
O1293  Zn1309  1.926   .     S
O1293  Zn1308  1.921   .     S
O1293  Zn1306  1.962   .     S
O1294  Zn1307  1.911   .     S
O1295  Zn1309  1.927   .     S
O1296  Zn1308  1.923   .     S
O1297  Zn1306  1.909   .     S
O1298  Zn1306  1.936   .     S
O1299  Zn1309  1.936   .     S
O1300  Zn1307  1.923   .     S
O1301  Zn1308  1.939   .     S
O1302  Zn1309  1.932   .     S
O1303  Zn1306  1.918   .     S
O1304  Zn1307  1.945   .     S
O1305  Zn1308  1.939   .     S
Br1311 C863    1.932   1_565 S
C1312  O1377   1.273   .     A
C1312  C1322   1.442   .     S
C1312  O1379   1.265   .     A
C1313  H1369   1.077   .     S
C1313  C1342   1.416   .     A
C1313  C1314   1.388   .     A
C1314  H1366   1.084   .     S
C1314  C623    1.391   1_556 S
C1315  O1378   1.275   .     A
C1315  C1321   1.474   .     S
C1315  O1380   1.286   .     A
C1316  C1317   1.419   .     A
C1316  C1318   1.404   .     A
C1317  C1343   1.426   .     A
C1317  C1320   1.406   .     A
C1318  C1319   1.392   .     A
C1318  H1357   1.084   .     S
C1319  C1331   1.397   .     A
C1319  H1365   1.084   .     S
C1320  H1364   1.076   .     S
C1320  C1331   1.394   .     A
C1321  C1168   1.345   1_655 S
C1321  C1179   1.537   1_655 S
C1323  C1330   1.424   .     A
C1323  C1336   1.517   .     S
C1323  C1332   1.402   .     A
C1324  C1327   1.454   .     S
C1324  Br848   1.933   1_565 S
C1324  C863    1.350   1_565 S
C1325  C1326   1.427   .     S
C1326  O1375   1.276   .     A
C1326  O1381   1.272   .     A
C1327  O1376   1.259   .     A
C1327  O1382   1.270   .     A
C1328  O1371   1.276   .     A
C1328  C1331   1.456   .     S
C1328  O1373   1.274   .     A
C1329  O1374   1.292   .     A
C1329  O1372   1.285   .     A
C1329  C1330   1.487   .     S
C1330  C1334   1.404   .     A
C1332  C1341   1.400   .     A
C1332  H1367   1.085   .     S
C1333  H1351   1.111   .     S
C1333  C1335   1.529   .     S
C1333  H1350   1.112   .     S
C1334  C1340   1.411   .     A
C1334  H1368   1.077   .     S
C1335  H1349   1.111   .     S
C1336  H1355   1.112   .     S
C1336  H1356   1.108   .     S
C1336  C1337   1.528   .     S
C1337  H1354   1.111   .     S
C1337  H1353   1.109   .     S
C1337  H1352   1.110   .     S
C1338  C1339   1.528   .     S
C1338  C1344   1.530   .     S
C1338  H1362   1.112   .     S
C1338  H1361   1.101   .     S
C1339  H1360   1.111   .     S
C1339  H1359   1.109   .     S
C1339  H1358   1.111   .     S
C1340  C1342   1.425   .     A
C1340  C1341   1.411   .     A
C1341  C652    1.394   1_556 S
C1342  C650    1.428   1_556 S
C1343  C1344   1.432   .     A
C1344  C1345   1.399   .     A
C1345  H1346   1.085   .     S
H1347  C1181   1.111   1_655 S
H1348  C1181   1.110   1_655 S
H1363  C1168   1.087   1_655 S
O1370  Zn1384  1.945   .     S
O1370  Zn1386  1.926   .     S
O1370  Zn1385  1.921   .     S
O1370  Zn1383  1.962   .     S
O1371  Zn1384  1.911   .     S
O1372  Zn1386  1.927   .     S
O1373  Zn1385  1.923   .     S
O1374  Zn1383  1.909   .     S
O1375  Zn1383  1.936   .     S
O1376  Zn1386  1.936   .     S
O1377  Zn1384  1.923   .     S
O1378  Zn1385  1.939   .     S
O1379  Zn1386  1.932   .     S
O1380  Zn1383  1.918   .     S
O1381  Zn1384  1.945   .     S
O1382  Zn1385  1.939   .     S
