data_str_m1_o10_o16_pcu_sym.181
_audit_creation_date              2020-01-03
_audit_creation_method            'Materials Studio'
_symmetry_space_group_name_H-M    'P1'
_symmetry_Int_Tables_number       1
_symmetry_cell_setting            triclinic
loop_
_symmetry_equiv_pos_as_xyz
  x,y,z
_cell_length_a                    32.5424
_cell_length_b                    32.7921
_cell_length_c                    30.9480
_cell_angle_alpha                 97.0135
_cell_angle_beta                  74.5600
_cell_angle_gamma                 98.9008
loop_
_atom_site_label
_atom_site_type_symbol
_atom_site_fract_x
_atom_site_fract_y
_atom_site_fract_z
_atom_site_U_iso_or_equiv
_atom_site_adp_type
_atom_site_occupancy
Zn1    Zn    0.19338   0.13994   0.28734   0.00000  Uiso   1.00
Zn2    Zn    0.13379   0.12458   0.21875   0.00000  Uiso   1.00
Zn3    Zn    0.21056   0.19775   0.20657   0.00000  Uiso   1.00
Zn4    Zn    0.12893   0.20439   0.28733   0.00000  Uiso   1.00
O5     O     0.16667   0.16667   0.25000   0.00000  Uiso   1.00
O6     O     0.07071   0.18878   0.28213   0.00000  Uiso   1.00
O7     O     0.25491   0.15226   0.27013   0.00000  Uiso   1.00
O8     O     0.13760   0.06944   0.23413   0.00000  Uiso   1.00
O9     O     0.20345   0.25620   0.21360   0.00000  Uiso   1.00
O10    O     0.15451   0.12637   0.15458   0.00000  Uiso   1.00
O11    O     0.12940   0.20391   0.34968   0.00000  Uiso   1.00
O12    O     0.20824   0.17759   0.14606   0.00000  Uiso   1.00
O13    O     0.17451   0.15880   0.34968   0.00000  Uiso   1.00
O14    O     0.17930   0.08019   0.28213   0.00000  Uiso   1.00
O15    O     0.14632   0.26085   0.27013   0.00000  Uiso   1.00
O16    O     0.07412   0.13291   0.23413   0.00000  Uiso   1.00
O17    O     0.26693   0.19272   0.21360   0.00000  Uiso   1.00
C18    C     0.05262   0.15913   0.26059   0.00000  Uiso   1.00
C19    C     0.28090   0.17404   0.23987   0.00000  Uiso   1.00
C20    C     0.15599   0.05620   0.26014   0.00000  Uiso   1.00
C21    C     0.17644   0.27797   0.24026   0.00000  Uiso   1.00
C22    C     0.18518   0.14793   0.12925   0.00000  Uiso   1.00
C23    C     0.14812   0.18440   0.37096   0.00000  Uiso   1.00
C24    C     0.19000   0.08588   0.01994   0.00000  Uiso   1.00
H25    H     0.20474   0.07671   0.08111   0.00000  Uiso   1.00
C26    C     0.19105   0.13903   0.08096   0.00000  Uiso   1.00
C27    C     0.13628   0.23488   0.43695   0.00000  Uiso   1.00
C28    C     0.14116   0.24905   0.47953   0.00000  Uiso   1.00
C29    C     0.15322   0.22320   0.00504   0.00000  Uiso   1.00
C30    C     0.15769   0.18119   0.48970   0.00000  Uiso   1.00
C31    C     0.14784   0.16539   0.44802   0.00000  Uiso   1.00
C32    C     0.17160   0.15444   0.01439   0.00000  Uiso   1.00
C33    C     0.17570   0.11276   0.49682   0.00000  Uiso   1.00
C34    C     0.16195   0.09700   0.45848   0.00000  Uiso   1.00
C35    C     0.14485   0.12186   0.43610   0.00000  Uiso   1.00
C36    C     0.18018   0.16711   0.05679   0.00000  Uiso   1.00
C37    C     0.19707   0.09882   0.06205   0.00000  Uiso   1.00
C38    C     0.14166   0.19389   0.41987   0.00000  Uiso   1.00
H39    H     0.15892   0.23732   0.03652   0.00000  Uiso   1.00
C40    C     0.32723   0.17764   0.23556   0.00000  Uiso   1.00
C41    C     0.00757   0.15729   0.26310   0.00000  Uiso   1.00
H42    H     0.31874   0.13832   0.28792   0.00000  Uiso   1.00
C43    C     0.18009   0.32267   0.23703   0.00000  Uiso   1.00
C44    C     0.15061   0.01255   0.26438   0.00000  Uiso   1.00
C45    C     0.21780   0.00934   0.20225   0.00000  Uiso   1.00
H46    H     0.23914   0.32012   0.18229   0.00000  Uiso   1.00
H47    H     0.20579   0.02406   0.17833   0.00000  Uiso   1.00
H48    H     0.23767   0.03327   0.21924   0.00000  Uiso   1.00
C49    C     0.11130   0.33005   0.29982   0.00000  Uiso   1.00
H50    H     0.09225   0.02220   0.31673   0.00000  Uiso   1.00
H51    H     0.08979   0.30674   0.28417   0.00000  Uiso   1.00
H52    H     0.12100   0.31687   0.32644   0.00000  Uiso   1.00
H53    H     0.16154   0.06419   0.44777   0.00000  Uiso   1.00
H54    H     0.19316   0.05404   0.00669   0.00000  Uiso   1.00
H55    H     0.17522   0.19730   0.07375   0.00000  Uiso   1.00
H56    H     0.13068   0.25684   0.41632   0.00000  Uiso   1.00
H57    H     0.13783   0.28102   0.49191   0.00000  Uiso   1.00
C58    C     0.11855   0.09936   0.40477   0.00000  Uiso   1.00
H59    H     0.09670   0.07308   0.42131   0.00000  Uiso   1.00
H60    H     0.09743   0.11920   0.39670   0.00000  Uiso   1.00
H61    H     0.13995   0.08654   0.37348   0.00000  Uiso   1.00
C62    C     0.02524   0.20374   0.20082   0.00000  Uiso   1.00
H63    H     0.00876   0.21843   0.18087   0.00000  Uiso   1.00
H64    H     0.04398   0.22881   0.21779   0.00000  Uiso   1.00
H65    H     0.04769   0.18407   0.17707   0.00000  Uiso   1.00
Zn66   Zn    0.52672   0.13994   0.28734   0.00000  Uiso   1.00
Zn67   Zn    0.46713   0.12458   0.21875   0.00000  Uiso   1.00
Zn68   Zn    0.54389   0.19775   0.20657   0.00000  Uiso   1.00
Zn69   Zn    0.46226   0.20439   0.28733   0.00000  Uiso   1.00
O70    O     0.50000   0.16667   0.25000   0.00000  Uiso   1.00
O71    O     0.40405   0.18878   0.28213   0.00000  Uiso   1.00
O72    O     0.58824   0.15226   0.27013   0.00000  Uiso   1.00
O73    O     0.47093   0.06944   0.23413   0.00000  Uiso   1.00
O74    O     0.53678   0.25620   0.21360   0.00000  Uiso   1.00
O75    O     0.48784   0.12637   0.15458   0.00000  Uiso   1.00
O76    O     0.46274   0.20391   0.34968   0.00000  Uiso   1.00
O77    O     0.54157   0.17759   0.14606   0.00000  Uiso   1.00
O78    O     0.50785   0.15880   0.34968   0.00000  Uiso   1.00
O79    O     0.51264   0.08019   0.28213   0.00000  Uiso   1.00
O80    O     0.47965   0.26085   0.27013   0.00000  Uiso   1.00
O81    O     0.40745   0.13291   0.23413   0.00000  Uiso   1.00
O82    O     0.60026   0.19272   0.21360   0.00000  Uiso   1.00
C83    C     0.38595   0.15913   0.26059   0.00000  Uiso   1.00
C84    C     0.61424   0.17404   0.23987   0.00000  Uiso   1.00
C85    C     0.48932   0.05620   0.26014   0.00000  Uiso   1.00
C86    C     0.50978   0.27797   0.24026   0.00000  Uiso   1.00
C87    C     0.51852   0.14793   0.12925   0.00000  Uiso   1.00
C88    C     0.48145   0.18440   0.37096   0.00000  Uiso   1.00
C89    C     0.52333   0.08588   0.01994   0.00000  Uiso   1.00
H90    H     0.53807   0.07671   0.08111   0.00000  Uiso   1.00
C91    C     0.52438   0.13903   0.08096   0.00000  Uiso   1.00
C92    C     0.46962   0.23488   0.43695   0.00000  Uiso   1.00
C93    C     0.47450   0.24905   0.47953   0.00000  Uiso   1.00
C94    C     0.48656   0.22320   0.00504   0.00000  Uiso   1.00
C95    C     0.49102   0.18119   0.48970   0.00000  Uiso   1.00
C96    C     0.48118   0.16539   0.44802   0.00000  Uiso   1.00
C97    C     0.50493   0.15444   0.01439   0.00000  Uiso   1.00
C98    C     0.50903   0.11276   0.49682   0.00000  Uiso   1.00
C99    C     0.49528   0.09700   0.45848   0.00000  Uiso   1.00
C100   C     0.47818   0.12186   0.43610   0.00000  Uiso   1.00
C101   C     0.51351   0.16711   0.05679   0.00000  Uiso   1.00
C102   C     0.53040   0.09882   0.06205   0.00000  Uiso   1.00
C103   C     0.47499   0.19389   0.41987   0.00000  Uiso   1.00
H104   H     0.49226   0.23732   0.03652   0.00000  Uiso   1.00
C105   C     0.66056   0.17764   0.23556   0.00000  Uiso   1.00
C106   C     0.34090   0.15729   0.26310   0.00000  Uiso   1.00
H107   H     0.65207   0.13832   0.28792   0.00000  Uiso   1.00
C108   C     0.51342   0.32267   0.23703   0.00000  Uiso   1.00
C109   C     0.48394   0.01255   0.26438   0.00000  Uiso   1.00
C110   C     0.55113   0.00934   0.20225   0.00000  Uiso   1.00
H111   H     0.57248   0.32012   0.18229   0.00000  Uiso   1.00
H112   H     0.53912   0.02406   0.17833   0.00000  Uiso   1.00
H113   H     0.57100   0.03327   0.21924   0.00000  Uiso   1.00
C114   C     0.44463   0.33005   0.29982   0.00000  Uiso   1.00
H115   H     0.42558   0.02220   0.31673   0.00000  Uiso   1.00
H116   H     0.42312   0.30674   0.28417   0.00000  Uiso   1.00
H117   H     0.45433   0.31687   0.32644   0.00000  Uiso   1.00
H118   H     0.49488   0.06419   0.44777   0.00000  Uiso   1.00
H119   H     0.52649   0.05404   0.00669   0.00000  Uiso   1.00
H120   H     0.50855   0.19730   0.07375   0.00000  Uiso   1.00
H121   H     0.46402   0.25684   0.41632   0.00000  Uiso   1.00
H122   H     0.47116   0.28102   0.49191   0.00000  Uiso   1.00
C123   C     0.45189   0.09936   0.40477   0.00000  Uiso   1.00
H124   H     0.43004   0.07308   0.42131   0.00000  Uiso   1.00
H125   H     0.43076   0.11920   0.39670   0.00000  Uiso   1.00
H126   H     0.47328   0.08654   0.37348   0.00000  Uiso   1.00
C127   C     0.35857   0.20374   0.20082   0.00000  Uiso   1.00
H128   H     0.34209   0.21843   0.18087   0.00000  Uiso   1.00
H129   H     0.37731   0.22881   0.21779   0.00000  Uiso   1.00
H130   H     0.38102   0.18407   0.17707   0.00000  Uiso   1.00
Zn131  Zn    0.86005   0.13994   0.28734   0.00000  Uiso   1.00
Zn132  Zn    0.80046   0.12458   0.21875   0.00000  Uiso   1.00
Zn133  Zn    0.87723   0.19775   0.20657   0.00000  Uiso   1.00
Zn134  Zn    0.79560   0.20439   0.28733   0.00000  Uiso   1.00
O135   O     0.83333   0.16667   0.25000   0.00000  Uiso   1.00
O136   O     0.73738   0.18878   0.28213   0.00000  Uiso   1.00
O137   O     0.92158   0.15226   0.27013   0.00000  Uiso   1.00
O138   O     0.80426   0.06944   0.23413   0.00000  Uiso   1.00
O139   O     0.87012   0.25620   0.21360   0.00000  Uiso   1.00
O140   O     0.82118   0.12637   0.15458   0.00000  Uiso   1.00
O141   O     0.79607   0.20391   0.34968   0.00000  Uiso   1.00
O142   O     0.87491   0.17759   0.14606   0.00000  Uiso   1.00
O143   O     0.84118   0.15880   0.34968   0.00000  Uiso   1.00
O144   O     0.84597   0.08019   0.28213   0.00000  Uiso   1.00
O145   O     0.81298   0.26085   0.27013   0.00000  Uiso   1.00
O146   O     0.74078   0.13291   0.23413   0.00000  Uiso   1.00
O147   O     0.93360   0.19272   0.21360   0.00000  Uiso   1.00
C148   C     0.71928   0.15913   0.26059   0.00000  Uiso   1.00
C149   C     0.94757   0.17404   0.23987   0.00000  Uiso   1.00
C150   C     0.82266   0.05620   0.26014   0.00000  Uiso   1.00
C151   C     0.84311   0.27797   0.24026   0.00000  Uiso   1.00
C152   C     0.85185   0.14793   0.12925   0.00000  Uiso   1.00
C153   C     0.81479   0.18440   0.37096   0.00000  Uiso   1.00
C154   C     0.85667   0.08588   0.01994   0.00000  Uiso   1.00
H155   H     0.87141   0.07671   0.08111   0.00000  Uiso   1.00
C156   C     0.85772   0.13903   0.08096   0.00000  Uiso   1.00
C157   C     0.80295   0.23488   0.43695   0.00000  Uiso   1.00
C158   C     0.80783   0.24905   0.47953   0.00000  Uiso   1.00
C159   C     0.81989   0.22320   0.00504   0.00000  Uiso   1.00
C160   C     0.82436   0.18119   0.48970   0.00000  Uiso   1.00
C161   C     0.81451   0.16539   0.44802   0.00000  Uiso   1.00
C162   C     0.83827   0.15444   0.01439   0.00000  Uiso   1.00
C163   C     0.84236   0.11276   0.49682   0.00000  Uiso   1.00
C164   C     0.82862   0.09700   0.45848   0.00000  Uiso   1.00
C165   C     0.81151   0.12186   0.43610   0.00000  Uiso   1.00
C166   C     0.84684   0.16711   0.05679   0.00000  Uiso   1.00
C167   C     0.86373   0.09882   0.06205   0.00000  Uiso   1.00
C168   C     0.80833   0.19389   0.41987   0.00000  Uiso   1.00
H169   H     0.82559   0.23732   0.03652   0.00000  Uiso   1.00
C170   C     0.99389   0.17764   0.23556   0.00000  Uiso   1.00
C171   C     0.67424   0.15729   0.26310   0.00000  Uiso   1.00
H172   H     0.98541   0.13832   0.28792   0.00000  Uiso   1.00
C173   C     0.84675   0.32267   0.23703   0.00000  Uiso   1.00
C174   C     0.81728   0.01255   0.26438   0.00000  Uiso   1.00
C175   C     0.88447   0.00934   0.20225   0.00000  Uiso   1.00
H176   H     0.90581   0.32012   0.18229   0.00000  Uiso   1.00
H177   H     0.87245   0.02406   0.17833   0.00000  Uiso   1.00
H178   H     0.90434   0.03327   0.21924   0.00000  Uiso   1.00
C179   C     0.77796   0.33005   0.29982   0.00000  Uiso   1.00
H180   H     0.75892   0.02220   0.31673   0.00000  Uiso   1.00
H181   H     0.75646   0.30674   0.28417   0.00000  Uiso   1.00
H182   H     0.78767   0.31687   0.32644   0.00000  Uiso   1.00
H183   H     0.82821   0.06419   0.44777   0.00000  Uiso   1.00
H184   H     0.85983   0.05404   0.00669   0.00000  Uiso   1.00
H185   H     0.84188   0.19730   0.07375   0.00000  Uiso   1.00
H186   H     0.79735   0.25684   0.41632   0.00000  Uiso   1.00
H187   H     0.80449   0.28102   0.49191   0.00000  Uiso   1.00
C188   C     0.78522   0.09936   0.40477   0.00000  Uiso   1.00
H189   H     0.76337   0.07308   0.42131   0.00000  Uiso   1.00
H190   H     0.76409   0.11920   0.39670   0.00000  Uiso   1.00
H191   H     0.80661   0.08654   0.37348   0.00000  Uiso   1.00
C192   C     0.69191   0.20374   0.20082   0.00000  Uiso   1.00
H193   H     0.67542   0.21843   0.18087   0.00000  Uiso   1.00
H194   H     0.71065   0.22881   0.21779   0.00000  Uiso   1.00
H195   H     0.71435   0.18407   0.17707   0.00000  Uiso   1.00
Zn196  Zn    0.19338   0.47327   0.28734   0.00000  Uiso   1.00
Zn197  Zn    0.13379   0.45791   0.21875   0.00000  Uiso   1.00
Zn198  Zn    0.21056   0.53109   0.20657   0.00000  Uiso   1.00
Zn199  Zn    0.12893   0.53773   0.28733   0.00000  Uiso   1.00
O200   O     0.16667   0.50000   0.25000   0.00000  Uiso   1.00
O201   O     0.07071   0.52211   0.28213   0.00000  Uiso   1.00
O202   O     0.25491   0.48559   0.27013   0.00000  Uiso   1.00
O203   O     0.13760   0.40277   0.23413   0.00000  Uiso   1.00
O204   O     0.20345   0.58953   0.21360   0.00000  Uiso   1.00
O205   O     0.15451   0.45970   0.15458   0.00000  Uiso   1.00
O206   O     0.12940   0.53724   0.34968   0.00000  Uiso   1.00
O207   O     0.20824   0.51092   0.14606   0.00000  Uiso   1.00
O208   O     0.17451   0.49213   0.34968   0.00000  Uiso   1.00
O209   O     0.17930   0.41352   0.28213   0.00000  Uiso   1.00
O210   O     0.14632   0.59418   0.27013   0.00000  Uiso   1.00
O211   O     0.07412   0.46625   0.23413   0.00000  Uiso   1.00
O212   O     0.26693   0.52605   0.21360   0.00000  Uiso   1.00
C213   C     0.05262   0.49246   0.26059   0.00000  Uiso   1.00
C214   C     0.28090   0.50737   0.23987   0.00000  Uiso   1.00
C215   C     0.15599   0.38953   0.26014   0.00000  Uiso   1.00
C216   C     0.17644   0.61130   0.24026   0.00000  Uiso   1.00
C217   C     0.18518   0.48126   0.12925   0.00000  Uiso   1.00
C218   C     0.14812   0.51774   0.37096   0.00000  Uiso   1.00
C219   C     0.19000   0.41922   0.01994   0.00000  Uiso   1.00
H220   H     0.20474   0.41004   0.08111   0.00000  Uiso   1.00
C221   C     0.19105   0.47236   0.08096   0.00000  Uiso   1.00
C222   C     0.13628   0.56821   0.43695   0.00000  Uiso   1.00
C223   C     0.14116   0.58238   0.47953   0.00000  Uiso   1.00
C224   C     0.15322   0.55653   0.00504   0.00000  Uiso   1.00
C225   C     0.15769   0.51452   0.48970   0.00000  Uiso   1.00
C226   C     0.14784   0.49872   0.44802   0.00000  Uiso   1.00
C227   C     0.17160   0.48777   0.01439   0.00000  Uiso   1.00
C228   C     0.17570   0.44609   0.49682   0.00000  Uiso   1.00
C229   C     0.16195   0.43033   0.45848   0.00000  Uiso   1.00
C230   C     0.14485   0.45519   0.43610   0.00000  Uiso   1.00
C231   C     0.18018   0.50044   0.05679   0.00000  Uiso   1.00
C232   C     0.19707   0.43215   0.06205   0.00000  Uiso   1.00
C233   C     0.14166   0.52723   0.41987   0.00000  Uiso   1.00
H234   H     0.15892   0.57066   0.03652   0.00000  Uiso   1.00
C235   C     0.32723   0.51097   0.23556   0.00000  Uiso   1.00
C236   C     0.00757   0.49062   0.26310   0.00000  Uiso   1.00
H237   H     0.31874   0.47165   0.28792   0.00000  Uiso   1.00
C238   C     0.18009   0.65600   0.23703   0.00000  Uiso   1.00
C239   C     0.15061   0.34588   0.26438   0.00000  Uiso   1.00
C240   C     0.21780   0.34267   0.20225   0.00000  Uiso   1.00
H241   H     0.23914   0.65346   0.18229   0.00000  Uiso   1.00
H242   H     0.20579   0.35739   0.17833   0.00000  Uiso   1.00
H243   H     0.23767   0.36661   0.21924   0.00000  Uiso   1.00
C244   C     0.11130   0.66339   0.29982   0.00000  Uiso   1.00
H245   H     0.09225   0.35553   0.31673   0.00000  Uiso   1.00
H246   H     0.08979   0.64008   0.28417   0.00000  Uiso   1.00
H247   H     0.12100   0.65020   0.32644   0.00000  Uiso   1.00
H248   H     0.16154   0.39752   0.44777   0.00000  Uiso   1.00
H249   H     0.19316   0.38737   0.00669   0.00000  Uiso   1.00
H250   H     0.17522   0.53064   0.07375   0.00000  Uiso   1.00
H251   H     0.13068   0.59017   0.41632   0.00000  Uiso   1.00
H252   H     0.13783   0.61435   0.49191   0.00000  Uiso   1.00
C253   C     0.11855   0.43269   0.40477   0.00000  Uiso   1.00
H254   H     0.09670   0.40641   0.42131   0.00000  Uiso   1.00
H255   H     0.09743   0.45253   0.39670   0.00000  Uiso   1.00
H256   H     0.13995   0.41987   0.37348   0.00000  Uiso   1.00
C257   C     0.02524   0.53707   0.20082   0.00000  Uiso   1.00
H258   H     0.00876   0.55177   0.18087   0.00000  Uiso   1.00
H259   H     0.04398   0.56214   0.21779   0.00000  Uiso   1.00
H260   H     0.04769   0.51741   0.17707   0.00000  Uiso   1.00
Zn261  Zn    0.52672   0.47327   0.28734   0.00000  Uiso   1.00
Zn262  Zn    0.46713   0.45791   0.21875   0.00000  Uiso   1.00
Zn263  Zn    0.54389   0.53109   0.20657   0.00000  Uiso   1.00
Zn264  Zn    0.46226   0.53773   0.28733   0.00000  Uiso   1.00
O265   O     0.50000   0.50000   0.25000   0.00000  Uiso   1.00
O266   O     0.40405   0.52211   0.28213   0.00000  Uiso   1.00
O267   O     0.58824   0.48559   0.27013   0.00000  Uiso   1.00
O268   O     0.47093   0.40277   0.23413   0.00000  Uiso   1.00
O269   O     0.53678   0.58953   0.21360   0.00000  Uiso   1.00
O270   O     0.48784   0.45970   0.15458   0.00000  Uiso   1.00
O271   O     0.46274   0.53724   0.34968   0.00000  Uiso   1.00
O272   O     0.54157   0.51092   0.14606   0.00000  Uiso   1.00
O273   O     0.50785   0.49213   0.34968   0.00000  Uiso   1.00
O274   O     0.51264   0.41352   0.28213   0.00000  Uiso   1.00
O275   O     0.47965   0.59418   0.27013   0.00000  Uiso   1.00
O276   O     0.40745   0.46625   0.23413   0.00000  Uiso   1.00
O277   O     0.60026   0.52605   0.21360   0.00000  Uiso   1.00
C278   C     0.38595   0.49246   0.26059   0.00000  Uiso   1.00
C279   C     0.61424   0.50737   0.23987   0.00000  Uiso   1.00
C280   C     0.48932   0.38953   0.26014   0.00000  Uiso   1.00
C281   C     0.50978   0.61130   0.24026   0.00000  Uiso   1.00
C282   C     0.51852   0.48126   0.12925   0.00000  Uiso   1.00
C283   C     0.48145   0.51774   0.37096   0.00000  Uiso   1.00
C284   C     0.52333   0.41922   0.01994   0.00000  Uiso   1.00
H285   H     0.53807   0.41004   0.08111   0.00000  Uiso   1.00
C286   C     0.52438   0.47236   0.08096   0.00000  Uiso   1.00
C287   C     0.46962   0.56821   0.43695   0.00000  Uiso   1.00
C288   C     0.47450   0.58238   0.47953   0.00000  Uiso   1.00
C289   C     0.48656   0.55653   0.00504   0.00000  Uiso   1.00
C290   C     0.49102   0.51452   0.48970   0.00000  Uiso   1.00
C291   C     0.48118   0.49872   0.44802   0.00000  Uiso   1.00
C292   C     0.50493   0.48777   0.01439   0.00000  Uiso   1.00
C293   C     0.50903   0.44609   0.49682   0.00000  Uiso   1.00
C294   C     0.49528   0.43033   0.45848   0.00000  Uiso   1.00
C295   C     0.47818   0.45519   0.43610   0.00000  Uiso   1.00
C296   C     0.51351   0.50044   0.05679   0.00000  Uiso   1.00
C297   C     0.53040   0.43215   0.06205   0.00000  Uiso   1.00
C298   C     0.47499   0.52723   0.41987   0.00000  Uiso   1.00
H299   H     0.49226   0.57066   0.03652   0.00000  Uiso   1.00
C300   C     0.66056   0.51097   0.23556   0.00000  Uiso   1.00
C301   C     0.34090   0.49062   0.26310   0.00000  Uiso   1.00
H302   H     0.65207   0.47165   0.28792   0.00000  Uiso   1.00
C303   C     0.51342   0.65600   0.23703   0.00000  Uiso   1.00
C304   C     0.48394   0.34588   0.26438   0.00000  Uiso   1.00
C305   C     0.55113   0.34267   0.20225   0.00000  Uiso   1.00
H306   H     0.57248   0.65346   0.18229   0.00000  Uiso   1.00
H307   H     0.53912   0.35739   0.17833   0.00000  Uiso   1.00
H308   H     0.57100   0.36661   0.21924   0.00000  Uiso   1.00
C309   C     0.44463   0.66339   0.29982   0.00000  Uiso   1.00
H310   H     0.42558   0.35553   0.31673   0.00000  Uiso   1.00
H311   H     0.42312   0.64008   0.28417   0.00000  Uiso   1.00
H312   H     0.45433   0.65020   0.32644   0.00000  Uiso   1.00
H313   H     0.49488   0.39752   0.44777   0.00000  Uiso   1.00
H314   H     0.52649   0.38737   0.00669   0.00000  Uiso   1.00
H315   H     0.50855   0.53064   0.07375   0.00000  Uiso   1.00
H316   H     0.46402   0.59017   0.41632   0.00000  Uiso   1.00
H317   H     0.47116   0.61435   0.49191   0.00000  Uiso   1.00
C318   C     0.45189   0.43269   0.40477   0.00000  Uiso   1.00
H319   H     0.43004   0.40641   0.42131   0.00000  Uiso   1.00
H320   H     0.43076   0.45253   0.39670   0.00000  Uiso   1.00
H321   H     0.47328   0.41987   0.37348   0.00000  Uiso   1.00
C322   C     0.35857   0.53707   0.20082   0.00000  Uiso   1.00
H323   H     0.34209   0.55177   0.18087   0.00000  Uiso   1.00
H324   H     0.37731   0.56214   0.21779   0.00000  Uiso   1.00
H325   H     0.38102   0.51741   0.17707   0.00000  Uiso   1.00
Zn326  Zn    0.86005   0.47327   0.28734   0.00000  Uiso   1.00
Zn327  Zn    0.80046   0.45791   0.21875   0.00000  Uiso   1.00
Zn328  Zn    0.87723   0.53109   0.20657   0.00000  Uiso   1.00
Zn329  Zn    0.79560   0.53773   0.28733   0.00000  Uiso   1.00
O330   O     0.83333   0.50000   0.25000   0.00000  Uiso   1.00
O331   O     0.73738   0.52211   0.28213   0.00000  Uiso   1.00
O332   O     0.92158   0.48559   0.27013   0.00000  Uiso   1.00
O333   O     0.80426   0.40277   0.23413   0.00000  Uiso   1.00
O334   O     0.87012   0.58953   0.21360   0.00000  Uiso   1.00
O335   O     0.82118   0.45970   0.15458   0.00000  Uiso   1.00
O336   O     0.79607   0.53724   0.34968   0.00000  Uiso   1.00
O337   O     0.87491   0.51092   0.14606   0.00000  Uiso   1.00
O338   O     0.84118   0.49213   0.34968   0.00000  Uiso   1.00
O339   O     0.84597   0.41352   0.28213   0.00000  Uiso   1.00
O340   O     0.81298   0.59418   0.27013   0.00000  Uiso   1.00
O341   O     0.74078   0.46625   0.23413   0.00000  Uiso   1.00
O342   O     0.93360   0.52605   0.21360   0.00000  Uiso   1.00
C343   C     0.71928   0.49246   0.26059   0.00000  Uiso   1.00
C344   C     0.94757   0.50737   0.23987   0.00000  Uiso   1.00
C345   C     0.82266   0.38953   0.26014   0.00000  Uiso   1.00
C346   C     0.84311   0.61130   0.24026   0.00000  Uiso   1.00
C347   C     0.85185   0.48126   0.12925   0.00000  Uiso   1.00
C348   C     0.81479   0.51774   0.37096   0.00000  Uiso   1.00
C349   C     0.85667   0.41922   0.01994   0.00000  Uiso   1.00
H350   H     0.87141   0.41004   0.08111   0.00000  Uiso   1.00
C351   C     0.85772   0.47236   0.08096   0.00000  Uiso   1.00
C352   C     0.80295   0.56821   0.43695   0.00000  Uiso   1.00
C353   C     0.80783   0.58238   0.47953   0.00000  Uiso   1.00
C354   C     0.81989   0.55653   0.00504   0.00000  Uiso   1.00
C355   C     0.82436   0.51452   0.48970   0.00000  Uiso   1.00
C356   C     0.81451   0.49872   0.44802   0.00000  Uiso   1.00
C357   C     0.83827   0.48777   0.01439   0.00000  Uiso   1.00
C358   C     0.84236   0.44609   0.49682   0.00000  Uiso   1.00
C359   C     0.82862   0.43033   0.45848   0.00000  Uiso   1.00
C360   C     0.81151   0.45519   0.43610   0.00000  Uiso   1.00
C361   C     0.84684   0.50044   0.05679   0.00000  Uiso   1.00
C362   C     0.86373   0.43215   0.06205   0.00000  Uiso   1.00
C363   C     0.80833   0.52723   0.41987   0.00000  Uiso   1.00
H364   H     0.82559   0.57066   0.03652   0.00000  Uiso   1.00
C365   C     0.99389   0.51097   0.23556   0.00000  Uiso   1.00
C366   C     0.67424   0.49062   0.26310   0.00000  Uiso   1.00
H367   H     0.98541   0.47165   0.28792   0.00000  Uiso   1.00
C368   C     0.84675   0.65600   0.23703   0.00000  Uiso   1.00
C369   C     0.81728   0.34588   0.26438   0.00000  Uiso   1.00
C370   C     0.88447   0.34267   0.20225   0.00000  Uiso   1.00
H371   H     0.90581   0.65346   0.18229   0.00000  Uiso   1.00
H372   H     0.87245   0.35739   0.17833   0.00000  Uiso   1.00
H373   H     0.90434   0.36661   0.21924   0.00000  Uiso   1.00
C374   C     0.77796   0.66339   0.29982   0.00000  Uiso   1.00
H375   H     0.75892   0.35553   0.31673   0.00000  Uiso   1.00
H376   H     0.75646   0.64008   0.28417   0.00000  Uiso   1.00
H377   H     0.78767   0.65020   0.32644   0.00000  Uiso   1.00
H378   H     0.82821   0.39752   0.44777   0.00000  Uiso   1.00
H379   H     0.85983   0.38737   0.00669   0.00000  Uiso   1.00
H380   H     0.84188   0.53064   0.07375   0.00000  Uiso   1.00
H381   H     0.79735   0.59017   0.41632   0.00000  Uiso   1.00
H382   H     0.80449   0.61435   0.49191   0.00000  Uiso   1.00
C383   C     0.78522   0.43269   0.40477   0.00000  Uiso   1.00
H384   H     0.76337   0.40641   0.42131   0.00000  Uiso   1.00
H385   H     0.76409   0.45253   0.39670   0.00000  Uiso   1.00
H386   H     0.80661   0.41987   0.37348   0.00000  Uiso   1.00
C387   C     0.69191   0.53707   0.20082   0.00000  Uiso   1.00
H388   H     0.67542   0.55177   0.18087   0.00000  Uiso   1.00
H389   H     0.71065   0.56214   0.21779   0.00000  Uiso   1.00
H390   H     0.71435   0.51741   0.17707   0.00000  Uiso   1.00
Zn391  Zn    0.19338   0.80661   0.28734   0.00000  Uiso   1.00
Zn392  Zn    0.13379   0.79124   0.21875   0.00000  Uiso   1.00
Zn393  Zn    0.21056   0.86442   0.20657   0.00000  Uiso   1.00
Zn394  Zn    0.12893   0.87106   0.28733   0.00000  Uiso   1.00
O395   O     0.16667   0.83333   0.25000   0.00000  Uiso   1.00
O396   O     0.07071   0.85544   0.28213   0.00000  Uiso   1.00
O397   O     0.25491   0.81892   0.27013   0.00000  Uiso   1.00
O398   O     0.13760   0.73610   0.23413   0.00000  Uiso   1.00
O399   O     0.20345   0.92286   0.21360   0.00000  Uiso   1.00
O400   O     0.15451   0.79304   0.15458   0.00000  Uiso   1.00
O401   O     0.12940   0.87058   0.34968   0.00000  Uiso   1.00
O402   O     0.20824   0.84425   0.14606   0.00000  Uiso   1.00
O403   O     0.17451   0.82546   0.34968   0.00000  Uiso   1.00
O404   O     0.17930   0.74686   0.28213   0.00000  Uiso   1.00
O405   O     0.14632   0.92751   0.27013   0.00000  Uiso   1.00
O406   O     0.07412   0.79958   0.23413   0.00000  Uiso   1.00
O407   O     0.26693   0.85939   0.21360   0.00000  Uiso   1.00
C408   C     0.05262   0.82579   0.26059   0.00000  Uiso   1.00
C409   C     0.28090   0.84070   0.23987   0.00000  Uiso   1.00
C410   C     0.15599   0.72287   0.26014   0.00000  Uiso   1.00
C411   C     0.17644   0.94463   0.24026   0.00000  Uiso   1.00
C412   C     0.18518   0.81460   0.12925   0.00000  Uiso   1.00
C413   C     0.14812   0.85107   0.37096   0.00000  Uiso   1.00
C414   C     0.19000   0.75255   0.01994   0.00000  Uiso   1.00
H415   H     0.20474   0.74337   0.08111   0.00000  Uiso   1.00
C416   C     0.19105   0.80569   0.08096   0.00000  Uiso   1.00
C417   C     0.13628   0.90154   0.43695   0.00000  Uiso   1.00
C418   C     0.14116   0.91571   0.47953   0.00000  Uiso   1.00
C419   C     0.15322   0.88987   0.00504   0.00000  Uiso   1.00
C420   C     0.15769   0.84786   0.48970   0.00000  Uiso   1.00
C421   C     0.14784   0.83206   0.44802   0.00000  Uiso   1.00
C422   C     0.17160   0.82111   0.01439   0.00000  Uiso   1.00
C423   C     0.17570   0.77942   0.49682   0.00000  Uiso   1.00
C424   C     0.16195   0.76367   0.45848   0.00000  Uiso   1.00
C425   C     0.14485   0.78853   0.43610   0.00000  Uiso   1.00
C426   C     0.18018   0.83377   0.05679   0.00000  Uiso   1.00
C427   C     0.19707   0.76548   0.06205   0.00000  Uiso   1.00
C428   C     0.14166   0.86056   0.41987   0.00000  Uiso   1.00
H429   H     0.15892   0.90399   0.03652   0.00000  Uiso   1.00
C430   C     0.32723   0.84430   0.23556   0.00000  Uiso   1.00
C431   C     0.00757   0.82395   0.26310   0.00000  Uiso   1.00
H432   H     0.31874   0.80498   0.28792   0.00000  Uiso   1.00
C433   C     0.18009   0.98934   0.23703   0.00000  Uiso   1.00
C434   C     0.15061   0.67921   0.26438   0.00000  Uiso   1.00
C435   C     0.21780   0.67601   0.20225   0.00000  Uiso   1.00
H436   H     0.23914   0.98679   0.18229   0.00000  Uiso   1.00
H437   H     0.20579   0.69073   0.17833   0.00000  Uiso   1.00
H438   H     0.23767   0.69994   0.21924   0.00000  Uiso   1.00
C439   C     0.11130   0.99672   0.29982   0.00000  Uiso   1.00
H440   H     0.09225   0.68886   0.31673   0.00000  Uiso   1.00
H441   H     0.08979   0.97341   0.28417   0.00000  Uiso   1.00
H442   H     0.12100   0.98353   0.32644   0.00000  Uiso   1.00
H443   H     0.16154   0.73085   0.44777   0.00000  Uiso   1.00
H444   H     0.19316   0.72071   0.00669   0.00000  Uiso   1.00
H445   H     0.17522   0.86397   0.07375   0.00000  Uiso   1.00
H446   H     0.13068   0.92350   0.41632   0.00000  Uiso   1.00
H447   H     0.13783   0.94769   0.49191   0.00000  Uiso   1.00
C448   C     0.11855   0.76603   0.40477   0.00000  Uiso   1.00
H449   H     0.09670   0.73974   0.42131   0.00000  Uiso   1.00
H450   H     0.09743   0.78586   0.39670   0.00000  Uiso   1.00
H451   H     0.13995   0.75321   0.37348   0.00000  Uiso   1.00
C452   C     0.02524   0.87040   0.20082   0.00000  Uiso   1.00
H453   H     0.00876   0.88510   0.18087   0.00000  Uiso   1.00
H454   H     0.04398   0.89548   0.21779   0.00000  Uiso   1.00
H455   H     0.04769   0.85074   0.17707   0.00000  Uiso   1.00
Zn456  Zn    0.52672   0.80661   0.28734   0.00000  Uiso   1.00
Zn457  Zn    0.46713   0.79124   0.21875   0.00000  Uiso   1.00
Zn458  Zn    0.54389   0.86442   0.20657   0.00000  Uiso   1.00
Zn459  Zn    0.46226   0.87106   0.28733   0.00000  Uiso   1.00
O460   O     0.50000   0.83333   0.25000   0.00000  Uiso   1.00
O461   O     0.40405   0.85544   0.28213   0.00000  Uiso   1.00
O462   O     0.58824   0.81892   0.27013   0.00000  Uiso   1.00
O463   O     0.47093   0.73610   0.23413   0.00000  Uiso   1.00
O464   O     0.53678   0.92286   0.21360   0.00000  Uiso   1.00
O465   O     0.48784   0.79304   0.15458   0.00000  Uiso   1.00
O466   O     0.46274   0.87058   0.34968   0.00000  Uiso   1.00
O467   O     0.54157   0.84425   0.14606   0.00000  Uiso   1.00
O468   O     0.50785   0.82546   0.34968   0.00000  Uiso   1.00
O469   O     0.51264   0.74686   0.28213   0.00000  Uiso   1.00
O470   O     0.47965   0.92751   0.27013   0.00000  Uiso   1.00
O471   O     0.40745   0.79958   0.23413   0.00000  Uiso   1.00
O472   O     0.60026   0.85939   0.21360   0.00000  Uiso   1.00
C473   C     0.38595   0.82579   0.26059   0.00000  Uiso   1.00
C474   C     0.61424   0.84070   0.23987   0.00000  Uiso   1.00
C475   C     0.48932   0.72287   0.26014   0.00000  Uiso   1.00
C476   C     0.50978   0.94463   0.24026   0.00000  Uiso   1.00
C477   C     0.51852   0.81460   0.12925   0.00000  Uiso   1.00
C478   C     0.48145   0.85107   0.37096   0.00000  Uiso   1.00
C479   C     0.52333   0.75255   0.01994   0.00000  Uiso   1.00
H480   H     0.53807   0.74337   0.08111   0.00000  Uiso   1.00
C481   C     0.52438   0.80569   0.08096   0.00000  Uiso   1.00
C482   C     0.46962   0.90154   0.43695   0.00000  Uiso   1.00
C483   C     0.47450   0.91571   0.47953   0.00000  Uiso   1.00
C484   C     0.48656   0.88987   0.00504   0.00000  Uiso   1.00
C485   C     0.49102   0.84786   0.48970   0.00000  Uiso   1.00
C486   C     0.48118   0.83206   0.44802   0.00000  Uiso   1.00
C487   C     0.50493   0.82111   0.01439   0.00000  Uiso   1.00
C488   C     0.50903   0.77942   0.49682   0.00000  Uiso   1.00
C489   C     0.49528   0.76367   0.45848   0.00000  Uiso   1.00
C490   C     0.47818   0.78853   0.43610   0.00000  Uiso   1.00
C491   C     0.51351   0.83377   0.05679   0.00000  Uiso   1.00
C492   C     0.53040   0.76548   0.06205   0.00000  Uiso   1.00
C493   C     0.47499   0.86056   0.41987   0.00000  Uiso   1.00
H494   H     0.49226   0.90399   0.03652   0.00000  Uiso   1.00
C495   C     0.66056   0.84430   0.23556   0.00000  Uiso   1.00
C496   C     0.34090   0.82395   0.26310   0.00000  Uiso   1.00
H497   H     0.65207   0.80498   0.28792   0.00000  Uiso   1.00
C498   C     0.51342   0.98934   0.23703   0.00000  Uiso   1.00
C499   C     0.48394   0.67921   0.26438   0.00000  Uiso   1.00
C500   C     0.55113   0.67601   0.20225   0.00000  Uiso   1.00
H501   H     0.57248   0.98679   0.18229   0.00000  Uiso   1.00
H502   H     0.53912   0.69073   0.17833   0.00000  Uiso   1.00
H503   H     0.57100   0.69994   0.21924   0.00000  Uiso   1.00
C504   C     0.44463   0.99672   0.29982   0.00000  Uiso   1.00
H505   H     0.42558   0.68886   0.31673   0.00000  Uiso   1.00
H506   H     0.42312   0.97341   0.28417   0.00000  Uiso   1.00
H507   H     0.45433   0.98353   0.32644   0.00000  Uiso   1.00
H508   H     0.49488   0.73085   0.44777   0.00000  Uiso   1.00
H509   H     0.52649   0.72071   0.00669   0.00000  Uiso   1.00
H510   H     0.50855   0.86397   0.07375   0.00000  Uiso   1.00
H511   H     0.46402   0.92350   0.41632   0.00000  Uiso   1.00
H512   H     0.47116   0.94769   0.49191   0.00000  Uiso   1.00
C513   C     0.45189   0.76603   0.40477   0.00000  Uiso   1.00
H514   H     0.43004   0.73974   0.42131   0.00000  Uiso   1.00
H515   H     0.43076   0.78586   0.39670   0.00000  Uiso   1.00
H516   H     0.47328   0.75321   0.37348   0.00000  Uiso   1.00
C517   C     0.35857   0.87040   0.20082   0.00000  Uiso   1.00
H518   H     0.34209   0.88510   0.18087   0.00000  Uiso   1.00
H519   H     0.37731   0.89548   0.21779   0.00000  Uiso   1.00
H520   H     0.38102   0.85074   0.17707   0.00000  Uiso   1.00
Zn521  Zn    0.86005   0.80661   0.28734   0.00000  Uiso   1.00
Zn522  Zn    0.80046   0.79124   0.21875   0.00000  Uiso   1.00
Zn523  Zn    0.87723   0.86442   0.20657   0.00000  Uiso   1.00
Zn524  Zn    0.79560   0.87106   0.28733   0.00000  Uiso   1.00
O525   O     0.83333   0.83333   0.25000   0.00000  Uiso   1.00
O526   O     0.73738   0.85544   0.28213   0.00000  Uiso   1.00
O527   O     0.92158   0.81892   0.27013   0.00000  Uiso   1.00
O528   O     0.80426   0.73610   0.23413   0.00000  Uiso   1.00
O529   O     0.87012   0.92286   0.21360   0.00000  Uiso   1.00
O530   O     0.82118   0.79304   0.15458   0.00000  Uiso   1.00
O531   O     0.79607   0.87058   0.34968   0.00000  Uiso   1.00
O532   O     0.87491   0.84425   0.14606   0.00000  Uiso   1.00
O533   O     0.84118   0.82546   0.34968   0.00000  Uiso   1.00
O534   O     0.84597   0.74686   0.28213   0.00000  Uiso   1.00
O535   O     0.81298   0.92751   0.27013   0.00000  Uiso   1.00
O536   O     0.74078   0.79958   0.23413   0.00000  Uiso   1.00
O537   O     0.93360   0.85939   0.21360   0.00000  Uiso   1.00
C538   C     0.71928   0.82579   0.26059   0.00000  Uiso   1.00
C539   C     0.94757   0.84070   0.23987   0.00000  Uiso   1.00
C540   C     0.82266   0.72287   0.26014   0.00000  Uiso   1.00
C541   C     0.84311   0.94463   0.24026   0.00000  Uiso   1.00
C542   C     0.85185   0.81460   0.12925   0.00000  Uiso   1.00
C543   C     0.81479   0.85107   0.37096   0.00000  Uiso   1.00
C544   C     0.85667   0.75255   0.01994   0.00000  Uiso   1.00
H545   H     0.87141   0.74337   0.08111   0.00000  Uiso   1.00
C546   C     0.85772   0.80569   0.08096   0.00000  Uiso   1.00
C547   C     0.80295   0.90154   0.43695   0.00000  Uiso   1.00
C548   C     0.80783   0.91571   0.47953   0.00000  Uiso   1.00
C549   C     0.81989   0.88987   0.00504   0.00000  Uiso   1.00
C550   C     0.82436   0.84786   0.48970   0.00000  Uiso   1.00
C551   C     0.81451   0.83206   0.44802   0.00000  Uiso   1.00
C552   C     0.83827   0.82111   0.01439   0.00000  Uiso   1.00
C553   C     0.84236   0.77942   0.49682   0.00000  Uiso   1.00
C554   C     0.82862   0.76367   0.45848   0.00000  Uiso   1.00
C555   C     0.81151   0.78853   0.43610   0.00000  Uiso   1.00
C556   C     0.84684   0.83377   0.05679   0.00000  Uiso   1.00
C557   C     0.86373   0.76548   0.06205   0.00000  Uiso   1.00
C558   C     0.80833   0.86056   0.41987   0.00000  Uiso   1.00
H559   H     0.82559   0.90399   0.03652   0.00000  Uiso   1.00
C560   C     0.99389   0.84430   0.23556   0.00000  Uiso   1.00
C561   C     0.67424   0.82395   0.26310   0.00000  Uiso   1.00
H562   H     0.98541   0.80498   0.28792   0.00000  Uiso   1.00
C563   C     0.84675   0.98934   0.23703   0.00000  Uiso   1.00
C564   C     0.81728   0.67921   0.26438   0.00000  Uiso   1.00
C565   C     0.88447   0.67601   0.20225   0.00000  Uiso   1.00
H566   H     0.90581   0.98679   0.18229   0.00000  Uiso   1.00
H567   H     0.87245   0.69073   0.17833   0.00000  Uiso   1.00
H568   H     0.90434   0.69994   0.21924   0.00000  Uiso   1.00
C569   C     0.77796   0.99672   0.29982   0.00000  Uiso   1.00
H570   H     0.75892   0.68886   0.31673   0.00000  Uiso   1.00
H571   H     0.75646   0.97341   0.28417   0.00000  Uiso   1.00
H572   H     0.78767   0.98353   0.32644   0.00000  Uiso   1.00
H573   H     0.82821   0.73085   0.44777   0.00000  Uiso   1.00
H574   H     0.85983   0.72071   0.00669   0.00000  Uiso   1.00
H575   H     0.84188   0.86397   0.07375   0.00000  Uiso   1.00
H576   H     0.79735   0.92350   0.41632   0.00000  Uiso   1.00
H577   H     0.80449   0.94769   0.49191   0.00000  Uiso   1.00
C578   C     0.78522   0.76603   0.40477   0.00000  Uiso   1.00
H579   H     0.76337   0.73974   0.42131   0.00000  Uiso   1.00
H580   H     0.76409   0.78586   0.39670   0.00000  Uiso   1.00
H581   H     0.80661   0.75321   0.37348   0.00000  Uiso   1.00
C582   C     0.69191   0.87040   0.20082   0.00000  Uiso   1.00
H583   H     0.67542   0.88510   0.18087   0.00000  Uiso   1.00
H584   H     0.71065   0.89548   0.21779   0.00000  Uiso   1.00
H585   H     0.71435   0.85074   0.17707   0.00000  Uiso   1.00
Zn586  Zn    0.19338   0.13994   0.78734   0.00000  Uiso   1.00
Zn587  Zn    0.13379   0.12458   0.71875   0.00000  Uiso   1.00
Zn588  Zn    0.21056   0.19775   0.70657   0.00000  Uiso   1.00
Zn589  Zn    0.12893   0.20439   0.78733   0.00000  Uiso   1.00
O590   O     0.16667   0.16667   0.75000   0.00000  Uiso   1.00
O591   O     0.07071   0.18878   0.78213   0.00000  Uiso   1.00
O592   O     0.25491   0.15226   0.77013   0.00000  Uiso   1.00
O593   O     0.13760   0.06944   0.73413   0.00000  Uiso   1.00
O594   O     0.20345   0.25620   0.71360   0.00000  Uiso   1.00
O595   O     0.15451   0.12637   0.65458   0.00000  Uiso   1.00
O596   O     0.12940   0.20391   0.84968   0.00000  Uiso   1.00
O597   O     0.20824   0.17759   0.64606   0.00000  Uiso   1.00
O598   O     0.17451   0.15880   0.84968   0.00000  Uiso   1.00
O599   O     0.17930   0.08019   0.78213   0.00000  Uiso   1.00
O600   O     0.14632   0.26085   0.77013   0.00000  Uiso   1.00
O601   O     0.07412   0.13291   0.73413   0.00000  Uiso   1.00
O602   O     0.26693   0.19272   0.71360   0.00000  Uiso   1.00
C603   C     0.05262   0.15913   0.76059   0.00000  Uiso   1.00
C604   C     0.28090   0.17404   0.73987   0.00000  Uiso   1.00
C605   C     0.15599   0.05620   0.76014   0.00000  Uiso   1.00
C606   C     0.17644   0.27797   0.74026   0.00000  Uiso   1.00
C607   C     0.18518   0.14793   0.62925   0.00000  Uiso   1.00
C608   C     0.14812   0.18440   0.87096   0.00000  Uiso   1.00
C609   C     0.19000   0.08588   0.51994   0.00000  Uiso   1.00
H610   H     0.20474   0.07671   0.58111   0.00000  Uiso   1.00
C611   C     0.19105   0.13903   0.58096   0.00000  Uiso   1.00
C612   C     0.13628   0.23488   0.93695   0.00000  Uiso   1.00
C613   C     0.14116   0.24905   0.97953   0.00000  Uiso   1.00
C614   C     0.15322   0.22320   0.50504   0.00000  Uiso   1.00
C615   C     0.15769   0.18119   0.98970   0.00000  Uiso   1.00
C616   C     0.14784   0.16539   0.94802   0.00000  Uiso   1.00
C617   C     0.17160   0.15444   0.51439   0.00000  Uiso   1.00
C618   C     0.17570   0.11276   0.99682   0.00000  Uiso   1.00
C619   C     0.16195   0.09700   0.95848   0.00000  Uiso   1.00
C620   C     0.14485   0.12186   0.93610   0.00000  Uiso   1.00
C621   C     0.18018   0.16711   0.55679   0.00000  Uiso   1.00
C622   C     0.19707   0.09882   0.56205   0.00000  Uiso   1.00
C623   C     0.14166   0.19389   0.91987   0.00000  Uiso   1.00
H624   H     0.15892   0.23732   0.53652   0.00000  Uiso   1.00
C625   C     0.32723   0.17764   0.73556   0.00000  Uiso   1.00
C626   C     0.00757   0.15729   0.76310   0.00000  Uiso   1.00
H627   H     0.31874   0.13832   0.78792   0.00000  Uiso   1.00
C628   C     0.18009   0.32267   0.73703   0.00000  Uiso   1.00
C629   C     0.15061   0.01255   0.76438   0.00000  Uiso   1.00
C630   C     0.21780   0.00934   0.70225   0.00000  Uiso   1.00
H631   H     0.23914   0.32012   0.68229   0.00000  Uiso   1.00
H632   H     0.20579   0.02406   0.67833   0.00000  Uiso   1.00
H633   H     0.23767   0.03327   0.71924   0.00000  Uiso   1.00
C634   C     0.11130   0.33005   0.79982   0.00000  Uiso   1.00
H635   H     0.09225   0.02220   0.81673   0.00000  Uiso   1.00
H636   H     0.08979   0.30674   0.78417   0.00000  Uiso   1.00
H637   H     0.12100   0.31687   0.82644   0.00000  Uiso   1.00
H638   H     0.16154   0.06419   0.94777   0.00000  Uiso   1.00
H639   H     0.19316   0.05404   0.50669   0.00000  Uiso   1.00
H640   H     0.17522   0.19730   0.57375   0.00000  Uiso   1.00
H641   H     0.13068   0.25684   0.91632   0.00000  Uiso   1.00
H642   H     0.13783   0.28102   0.99191   0.00000  Uiso   1.00
C643   C     0.11855   0.09936   0.90477   0.00000  Uiso   1.00
H644   H     0.09670   0.07308   0.92131   0.00000  Uiso   1.00
H645   H     0.09743   0.11920   0.89670   0.00000  Uiso   1.00
H646   H     0.13995   0.08654   0.87348   0.00000  Uiso   1.00
C647   C     0.02524   0.20374   0.70082   0.00000  Uiso   1.00
H648   H     0.00876   0.21843   0.68087   0.00000  Uiso   1.00
H649   H     0.04398   0.22881   0.71779   0.00000  Uiso   1.00
H650   H     0.04769   0.18407   0.67707   0.00000  Uiso   1.00
Zn651  Zn    0.52672   0.13994   0.78734   0.00000  Uiso   1.00
Zn652  Zn    0.46713   0.12458   0.71875   0.00000  Uiso   1.00
Zn653  Zn    0.54389   0.19775   0.70657   0.00000  Uiso   1.00
Zn654  Zn    0.46226   0.20439   0.78733   0.00000  Uiso   1.00
O655   O     0.50000   0.16667   0.75000   0.00000  Uiso   1.00
O656   O     0.40405   0.18878   0.78213   0.00000  Uiso   1.00
O657   O     0.58824   0.15226   0.77013   0.00000  Uiso   1.00
O658   O     0.47093   0.06944   0.73413   0.00000  Uiso   1.00
O659   O     0.53678   0.25620   0.71360   0.00000  Uiso   1.00
O660   O     0.48784   0.12637   0.65458   0.00000  Uiso   1.00
O661   O     0.46274   0.20391   0.84968   0.00000  Uiso   1.00
O662   O     0.54157   0.17759   0.64606   0.00000  Uiso   1.00
O663   O     0.50785   0.15880   0.84968   0.00000  Uiso   1.00
O664   O     0.51264   0.08019   0.78213   0.00000  Uiso   1.00
O665   O     0.47965   0.26085   0.77013   0.00000  Uiso   1.00
O666   O     0.40745   0.13291   0.73413   0.00000  Uiso   1.00
O667   O     0.60026   0.19272   0.71360   0.00000  Uiso   1.00
C668   C     0.38595   0.15913   0.76059   0.00000  Uiso   1.00
C669   C     0.61424   0.17404   0.73987   0.00000  Uiso   1.00
C670   C     0.48932   0.05620   0.76014   0.00000  Uiso   1.00
C671   C     0.50978   0.27797   0.74026   0.00000  Uiso   1.00
C672   C     0.51852   0.14793   0.62925   0.00000  Uiso   1.00
C673   C     0.48145   0.18440   0.87096   0.00000  Uiso   1.00
C674   C     0.52333   0.08588   0.51994   0.00000  Uiso   1.00
H675   H     0.53807   0.07671   0.58111   0.00000  Uiso   1.00
C676   C     0.52438   0.13903   0.58096   0.00000  Uiso   1.00
C677   C     0.46962   0.23488   0.93695   0.00000  Uiso   1.00
C678   C     0.47450   0.24905   0.97953   0.00000  Uiso   1.00
C679   C     0.48656   0.22320   0.50504   0.00000  Uiso   1.00
C680   C     0.49102   0.18119   0.98970   0.00000  Uiso   1.00
C681   C     0.48118   0.16539   0.94802   0.00000  Uiso   1.00
C682   C     0.50493   0.15444   0.51439   0.00000  Uiso   1.00
C683   C     0.50903   0.11276   0.99682   0.00000  Uiso   1.00
C684   C     0.49528   0.09700   0.95848   0.00000  Uiso   1.00
C685   C     0.47818   0.12186   0.93610   0.00000  Uiso   1.00
C686   C     0.51351   0.16711   0.55679   0.00000  Uiso   1.00
C687   C     0.53040   0.09882   0.56205   0.00000  Uiso   1.00
C688   C     0.47499   0.19389   0.91987   0.00000  Uiso   1.00
H689   H     0.49226   0.23732   0.53652   0.00000  Uiso   1.00
C690   C     0.66056   0.17764   0.73556   0.00000  Uiso   1.00
C691   C     0.34090   0.15729   0.76310   0.00000  Uiso   1.00
H692   H     0.65207   0.13832   0.78792   0.00000  Uiso   1.00
C693   C     0.51342   0.32267   0.73703   0.00000  Uiso   1.00
C694   C     0.48394   0.01255   0.76438   0.00000  Uiso   1.00
C695   C     0.55113   0.00934   0.70225   0.00000  Uiso   1.00
H696   H     0.57248   0.32012   0.68229   0.00000  Uiso   1.00
H697   H     0.53912   0.02406   0.67833   0.00000  Uiso   1.00
H698   H     0.57100   0.03327   0.71924   0.00000  Uiso   1.00
C699   C     0.44463   0.33005   0.79982   0.00000  Uiso   1.00
H700   H     0.42558   0.02220   0.81673   0.00000  Uiso   1.00
H701   H     0.42312   0.30674   0.78417   0.00000  Uiso   1.00
H702   H     0.45433   0.31687   0.82644   0.00000  Uiso   1.00
H703   H     0.49488   0.06419   0.94777   0.00000  Uiso   1.00
H704   H     0.52649   0.05404   0.50669   0.00000  Uiso   1.00
H705   H     0.50855   0.19730   0.57375   0.00000  Uiso   1.00
H706   H     0.46402   0.25684   0.91632   0.00000  Uiso   1.00
H707   H     0.47116   0.28102   0.99191   0.00000  Uiso   1.00
C708   C     0.45189   0.09936   0.90477   0.00000  Uiso   1.00
H709   H     0.43004   0.07308   0.92131   0.00000  Uiso   1.00
H710   H     0.43076   0.11920   0.89670   0.00000  Uiso   1.00
H711   H     0.47328   0.08654   0.87348   0.00000  Uiso   1.00
C712   C     0.35857   0.20374   0.70082   0.00000  Uiso   1.00
H713   H     0.34209   0.21843   0.68087   0.00000  Uiso   1.00
H714   H     0.37731   0.22881   0.71779   0.00000  Uiso   1.00
H715   H     0.38102   0.18407   0.67707   0.00000  Uiso   1.00
Zn716  Zn    0.86005   0.13994   0.78734   0.00000  Uiso   1.00
Zn717  Zn    0.80046   0.12458   0.71875   0.00000  Uiso   1.00
Zn718  Zn    0.87723   0.19775   0.70657   0.00000  Uiso   1.00
Zn719  Zn    0.79560   0.20439   0.78733   0.00000  Uiso   1.00
O720   O     0.83333   0.16667   0.75000   0.00000  Uiso   1.00
O721   O     0.73738   0.18878   0.78213   0.00000  Uiso   1.00
O722   O     0.92158   0.15226   0.77013   0.00000  Uiso   1.00
O723   O     0.80426   0.06944   0.73413   0.00000  Uiso   1.00
O724   O     0.87012   0.25620   0.71360   0.00000  Uiso   1.00
O725   O     0.82118   0.12637   0.65458   0.00000  Uiso   1.00
O726   O     0.79607   0.20391   0.84968   0.00000  Uiso   1.00
O727   O     0.87491   0.17759   0.64606   0.00000  Uiso   1.00
O728   O     0.84118   0.15880   0.84968   0.00000  Uiso   1.00
O729   O     0.84597   0.08019   0.78213   0.00000  Uiso   1.00
O730   O     0.81298   0.26085   0.77013   0.00000  Uiso   1.00
O731   O     0.74078   0.13291   0.73413   0.00000  Uiso   1.00
O732   O     0.93360   0.19272   0.71360   0.00000  Uiso   1.00
C733   C     0.71928   0.15913   0.76059   0.00000  Uiso   1.00
C734   C     0.94757   0.17404   0.73987   0.00000  Uiso   1.00
C735   C     0.82266   0.05620   0.76014   0.00000  Uiso   1.00
C736   C     0.84311   0.27797   0.74026   0.00000  Uiso   1.00
C737   C     0.85185   0.14793   0.62925   0.00000  Uiso   1.00
C738   C     0.81479   0.18440   0.87096   0.00000  Uiso   1.00
C739   C     0.85667   0.08588   0.51994   0.00000  Uiso   1.00
H740   H     0.87141   0.07671   0.58111   0.00000  Uiso   1.00
C741   C     0.85772   0.13903   0.58096   0.00000  Uiso   1.00
C742   C     0.80295   0.23488   0.93695   0.00000  Uiso   1.00
C743   C     0.80783   0.24905   0.97953   0.00000  Uiso   1.00
C744   C     0.81989   0.22320   0.50504   0.00000  Uiso   1.00
C745   C     0.82436   0.18119   0.98970   0.00000  Uiso   1.00
C746   C     0.81451   0.16539   0.94802   0.00000  Uiso   1.00
C747   C     0.83827   0.15444   0.51439   0.00000  Uiso   1.00
C748   C     0.84236   0.11276   0.99682   0.00000  Uiso   1.00
C749   C     0.82862   0.09700   0.95848   0.00000  Uiso   1.00
C750   C     0.81151   0.12186   0.93610   0.00000  Uiso   1.00
C751   C     0.84684   0.16711   0.55679   0.00000  Uiso   1.00
C752   C     0.86373   0.09882   0.56205   0.00000  Uiso   1.00
C753   C     0.80833   0.19389   0.91987   0.00000  Uiso   1.00
H754   H     0.82559   0.23732   0.53652   0.00000  Uiso   1.00
C755   C     0.99389   0.17764   0.73556   0.00000  Uiso   1.00
C756   C     0.67424   0.15729   0.76310   0.00000  Uiso   1.00
H757   H     0.98541   0.13832   0.78792   0.00000  Uiso   1.00
C758   C     0.84675   0.32267   0.73703   0.00000  Uiso   1.00
C759   C     0.81728   0.01255   0.76438   0.00000  Uiso   1.00
C760   C     0.88447   0.00934   0.70225   0.00000  Uiso   1.00
H761   H     0.90581   0.32012   0.68229   0.00000  Uiso   1.00
H762   H     0.87245   0.02406   0.67833   0.00000  Uiso   1.00
H763   H     0.90434   0.03327   0.71924   0.00000  Uiso   1.00
C764   C     0.77796   0.33005   0.79982   0.00000  Uiso   1.00
H765   H     0.75892   0.02220   0.81673   0.00000  Uiso   1.00
H766   H     0.75646   0.30674   0.78417   0.00000  Uiso   1.00
H767   H     0.78767   0.31687   0.82644   0.00000  Uiso   1.00
H768   H     0.82821   0.06419   0.94777   0.00000  Uiso   1.00
H769   H     0.85983   0.05404   0.50669   0.00000  Uiso   1.00
H770   H     0.84188   0.19730   0.57375   0.00000  Uiso   1.00
H771   H     0.79735   0.25684   0.91632   0.00000  Uiso   1.00
H772   H     0.80449   0.28102   0.99191   0.00000  Uiso   1.00
C773   C     0.78522   0.09936   0.90477   0.00000  Uiso   1.00
H774   H     0.76337   0.07308   0.92131   0.00000  Uiso   1.00
H775   H     0.76409   0.11920   0.89670   0.00000  Uiso   1.00
H776   H     0.80661   0.08654   0.87348   0.00000  Uiso   1.00
C777   C     0.69191   0.20374   0.70082   0.00000  Uiso   1.00
H778   H     0.67542   0.21843   0.68087   0.00000  Uiso   1.00
H779   H     0.71065   0.22881   0.71779   0.00000  Uiso   1.00
H780   H     0.71435   0.18407   0.67707   0.00000  Uiso   1.00
Zn781  Zn    0.19338   0.47327   0.78734   0.00000  Uiso   1.00
Zn782  Zn    0.13379   0.45791   0.71875   0.00000  Uiso   1.00
Zn783  Zn    0.21056   0.53109   0.70657   0.00000  Uiso   1.00
Zn784  Zn    0.12893   0.53773   0.78733   0.00000  Uiso   1.00
O785   O     0.16667   0.50000   0.75000   0.00000  Uiso   1.00
O786   O     0.07071   0.52211   0.78213   0.00000  Uiso   1.00
O787   O     0.25491   0.48559   0.77013   0.00000  Uiso   1.00
O788   O     0.13760   0.40277   0.73413   0.00000  Uiso   1.00
O789   O     0.20345   0.58953   0.71360   0.00000  Uiso   1.00
O790   O     0.15451   0.45970   0.65458   0.00000  Uiso   1.00
O791   O     0.12940   0.53724   0.84968   0.00000  Uiso   1.00
O792   O     0.20824   0.51092   0.64606   0.00000  Uiso   1.00
O793   O     0.17451   0.49213   0.84968   0.00000  Uiso   1.00
O794   O     0.17930   0.41352   0.78213   0.00000  Uiso   1.00
O795   O     0.14632   0.59418   0.77013   0.00000  Uiso   1.00
O796   O     0.07412   0.46625   0.73413   0.00000  Uiso   1.00
O797   O     0.26693   0.52605   0.71360   0.00000  Uiso   1.00
C798   C     0.05262   0.49246   0.76059   0.00000  Uiso   1.00
C799   C     0.28090   0.50737   0.73987   0.00000  Uiso   1.00
C800   C     0.15599   0.38953   0.76014   0.00000  Uiso   1.00
C801   C     0.17644   0.61130   0.74026   0.00000  Uiso   1.00
C802   C     0.18518   0.48126   0.62925   0.00000  Uiso   1.00
C803   C     0.14812   0.51774   0.87096   0.00000  Uiso   1.00
C804   C     0.19000   0.41922   0.51994   0.00000  Uiso   1.00
H805   H     0.20474   0.41004   0.58111   0.00000  Uiso   1.00
C806   C     0.19105   0.47236   0.58096   0.00000  Uiso   1.00
C807   C     0.13628   0.56821   0.93695   0.00000  Uiso   1.00
C808   C     0.14116   0.58238   0.97953   0.00000  Uiso   1.00
C809   C     0.15322   0.55653   0.50504   0.00000  Uiso   1.00
C810   C     0.15769   0.51452   0.98970   0.00000  Uiso   1.00
C811   C     0.14784   0.49872   0.94802   0.00000  Uiso   1.00
C812   C     0.17160   0.48777   0.51439   0.00000  Uiso   1.00
C813   C     0.17570   0.44609   0.99682   0.00000  Uiso   1.00
C814   C     0.16195   0.43033   0.95848   0.00000  Uiso   1.00
C815   C     0.14485   0.45519   0.93610   0.00000  Uiso   1.00
C816   C     0.18018   0.50044   0.55679   0.00000  Uiso   1.00
C817   C     0.19707   0.43215   0.56205   0.00000  Uiso   1.00
C818   C     0.14166   0.52723   0.91987   0.00000  Uiso   1.00
H819   H     0.15892   0.57066   0.53652   0.00000  Uiso   1.00
C820   C     0.32723   0.51097   0.73556   0.00000  Uiso   1.00
C821   C     0.00757   0.49062   0.76310   0.00000  Uiso   1.00
H822   H     0.31874   0.47165   0.78792   0.00000  Uiso   1.00
C823   C     0.18009   0.65600   0.73703   0.00000  Uiso   1.00
C824   C     0.15061   0.34588   0.76438   0.00000  Uiso   1.00
C825   C     0.21780   0.34267   0.70225   0.00000  Uiso   1.00
H826   H     0.23914   0.65346   0.68229   0.00000  Uiso   1.00
H827   H     0.20579   0.35739   0.67833   0.00000  Uiso   1.00
H828   H     0.23767   0.36661   0.71924   0.00000  Uiso   1.00
C829   C     0.11130   0.66339   0.79982   0.00000  Uiso   1.00
H830   H     0.09225   0.35553   0.81673   0.00000  Uiso   1.00
H831   H     0.08979   0.64008   0.78417   0.00000  Uiso   1.00
H832   H     0.12100   0.65020   0.82644   0.00000  Uiso   1.00
H833   H     0.16154   0.39752   0.94777   0.00000  Uiso   1.00
H834   H     0.19316   0.38737   0.50669   0.00000  Uiso   1.00
H835   H     0.17522   0.53064   0.57375   0.00000  Uiso   1.00
H836   H     0.13068   0.59017   0.91632   0.00000  Uiso   1.00
H837   H     0.13783   0.61435   0.99191   0.00000  Uiso   1.00
C838   C     0.11855   0.43269   0.90477   0.00000  Uiso   1.00
H839   H     0.09670   0.40641   0.92131   0.00000  Uiso   1.00
H840   H     0.09743   0.45253   0.89670   0.00000  Uiso   1.00
H841   H     0.13995   0.41987   0.87348   0.00000  Uiso   1.00
C842   C     0.02524   0.53707   0.70082   0.00000  Uiso   1.00
H843   H     0.00876   0.55177   0.68087   0.00000  Uiso   1.00
H844   H     0.04398   0.56214   0.71779   0.00000  Uiso   1.00
H845   H     0.04769   0.51741   0.67707   0.00000  Uiso   1.00
Zn846  Zn    0.52672   0.47327   0.78734   0.00000  Uiso   1.00
Zn847  Zn    0.46713   0.45791   0.71875   0.00000  Uiso   1.00
Zn848  Zn    0.54389   0.53109   0.70657   0.00000  Uiso   1.00
Zn849  Zn    0.46226   0.53773   0.78733   0.00000  Uiso   1.00
O850   O     0.50000   0.50000   0.75000   0.00000  Uiso   1.00
O851   O     0.40405   0.52211   0.78213   0.00000  Uiso   1.00
O852   O     0.58824   0.48559   0.77013   0.00000  Uiso   1.00
O853   O     0.47093   0.40277   0.73413   0.00000  Uiso   1.00
O854   O     0.53678   0.58953   0.71360   0.00000  Uiso   1.00
O855   O     0.48784   0.45970   0.65458   0.00000  Uiso   1.00
O856   O     0.46274   0.53724   0.84968   0.00000  Uiso   1.00
O857   O     0.54157   0.51092   0.64606   0.00000  Uiso   1.00
O858   O     0.50785   0.49213   0.84968   0.00000  Uiso   1.00
O859   O     0.51264   0.41352   0.78213   0.00000  Uiso   1.00
O860   O     0.47965   0.59418   0.77013   0.00000  Uiso   1.00
O861   O     0.40745   0.46625   0.73413   0.00000  Uiso   1.00
O862   O     0.60026   0.52605   0.71360   0.00000  Uiso   1.00
C863   C     0.38595   0.49246   0.76059   0.00000  Uiso   1.00
C864   C     0.61424   0.50737   0.73987   0.00000  Uiso   1.00
C865   C     0.48932   0.38953   0.76014   0.00000  Uiso   1.00
C866   C     0.50978   0.61130   0.74026   0.00000  Uiso   1.00
C867   C     0.51852   0.48126   0.62925   0.00000  Uiso   1.00
C868   C     0.48145   0.51774   0.87096   0.00000  Uiso   1.00
C869   C     0.52333   0.41922   0.51994   0.00000  Uiso   1.00
H870   H     0.53807   0.41004   0.58111   0.00000  Uiso   1.00
C871   C     0.52438   0.47236   0.58096   0.00000  Uiso   1.00
C872   C     0.46962   0.56821   0.93695   0.00000  Uiso   1.00
C873   C     0.47450   0.58238   0.97953   0.00000  Uiso   1.00
C874   C     0.48656   0.55653   0.50504   0.00000  Uiso   1.00
C875   C     0.49102   0.51452   0.98970   0.00000  Uiso   1.00
C876   C     0.48118   0.49872   0.94802   0.00000  Uiso   1.00
C877   C     0.50493   0.48777   0.51439   0.00000  Uiso   1.00
C878   C     0.50903   0.44609   0.99682   0.00000  Uiso   1.00
C879   C     0.49528   0.43033   0.95848   0.00000  Uiso   1.00
C880   C     0.47818   0.45519   0.93610   0.00000  Uiso   1.00
C881   C     0.51351   0.50044   0.55679   0.00000  Uiso   1.00
C882   C     0.53040   0.43215   0.56205   0.00000  Uiso   1.00
C883   C     0.47499   0.52723   0.91987   0.00000  Uiso   1.00
H884   H     0.49226   0.57066   0.53652   0.00000  Uiso   1.00
C885   C     0.66056   0.51097   0.73556   0.00000  Uiso   1.00
C886   C     0.34090   0.49062   0.76310   0.00000  Uiso   1.00
H887   H     0.65207   0.47165   0.78792   0.00000  Uiso   1.00
C888   C     0.51342   0.65600   0.73703   0.00000  Uiso   1.00
C889   C     0.48394   0.34588   0.76438   0.00000  Uiso   1.00
C890   C     0.55113   0.34267   0.70225   0.00000  Uiso   1.00
H891   H     0.57248   0.65346   0.68229   0.00000  Uiso   1.00
H892   H     0.53912   0.35739   0.67833   0.00000  Uiso   1.00
H893   H     0.57100   0.36661   0.71924   0.00000  Uiso   1.00
C894   C     0.44463   0.66339   0.79982   0.00000  Uiso   1.00
H895   H     0.42558   0.35553   0.81673   0.00000  Uiso   1.00
H896   H     0.42312   0.64008   0.78417   0.00000  Uiso   1.00
H897   H     0.45433   0.65020   0.82644   0.00000  Uiso   1.00
H898   H     0.49488   0.39752   0.94777   0.00000  Uiso   1.00
H899   H     0.52649   0.38737   0.50669   0.00000  Uiso   1.00
H900   H     0.50855   0.53064   0.57375   0.00000  Uiso   1.00
H901   H     0.46402   0.59017   0.91632   0.00000  Uiso   1.00
H902   H     0.47116   0.61435   0.99191   0.00000  Uiso   1.00
C903   C     0.45189   0.43269   0.90477   0.00000  Uiso   1.00
H904   H     0.43004   0.40641   0.92131   0.00000  Uiso   1.00
H905   H     0.43076   0.45253   0.89670   0.00000  Uiso   1.00
H906   H     0.47328   0.41987   0.87348   0.00000  Uiso   1.00
C907   C     0.35857   0.53707   0.70082   0.00000  Uiso   1.00
H908   H     0.34209   0.55177   0.68087   0.00000  Uiso   1.00
H909   H     0.37731   0.56214   0.71779   0.00000  Uiso   1.00
H910   H     0.38102   0.51741   0.67707   0.00000  Uiso   1.00
Zn911  Zn    0.86005   0.47327   0.78734   0.00000  Uiso   1.00
Zn912  Zn    0.80046   0.45791   0.71875   0.00000  Uiso   1.00
Zn913  Zn    0.87723   0.53109   0.70657   0.00000  Uiso   1.00
Zn914  Zn    0.79560   0.53773   0.78733   0.00000  Uiso   1.00
O915   O     0.83333   0.50000   0.75000   0.00000  Uiso   1.00
O916   O     0.73738   0.52211   0.78213   0.00000  Uiso   1.00
O917   O     0.92158   0.48559   0.77013   0.00000  Uiso   1.00
O918   O     0.80426   0.40277   0.73413   0.00000  Uiso   1.00
O919   O     0.87012   0.58953   0.71360   0.00000  Uiso   1.00
O920   O     0.82118   0.45970   0.65458   0.00000  Uiso   1.00
O921   O     0.79607   0.53724   0.84968   0.00000  Uiso   1.00
O922   O     0.87491   0.51092   0.64606   0.00000  Uiso   1.00
O923   O     0.84118   0.49213   0.84968   0.00000  Uiso   1.00
O924   O     0.84597   0.41352   0.78213   0.00000  Uiso   1.00
O925   O     0.81298   0.59418   0.77013   0.00000  Uiso   1.00
O926   O     0.74078   0.46625   0.73413   0.00000  Uiso   1.00
O927   O     0.93360   0.52605   0.71360   0.00000  Uiso   1.00
C928   C     0.71928   0.49246   0.76059   0.00000  Uiso   1.00
C929   C     0.94757   0.50737   0.73987   0.00000  Uiso   1.00
C930   C     0.82266   0.38953   0.76014   0.00000  Uiso   1.00
C931   C     0.84311   0.61130   0.74026   0.00000  Uiso   1.00
C932   C     0.85185   0.48126   0.62925   0.00000  Uiso   1.00
C933   C     0.81479   0.51774   0.87096   0.00000  Uiso   1.00
C934   C     0.85667   0.41922   0.51994   0.00000  Uiso   1.00
H935   H     0.87141   0.41004   0.58111   0.00000  Uiso   1.00
C936   C     0.85772   0.47236   0.58096   0.00000  Uiso   1.00
C937   C     0.80295   0.56821   0.93695   0.00000  Uiso   1.00
C938   C     0.80783   0.58238   0.97953   0.00000  Uiso   1.00
C939   C     0.81989   0.55653   0.50504   0.00000  Uiso   1.00
C940   C     0.82436   0.51452   0.98970   0.00000  Uiso   1.00
C941   C     0.81451   0.49872   0.94802   0.00000  Uiso   1.00
C942   C     0.83827   0.48777   0.51439   0.00000  Uiso   1.00
C943   C     0.84236   0.44609   0.99682   0.00000  Uiso   1.00
C944   C     0.82862   0.43033   0.95848   0.00000  Uiso   1.00
C945   C     0.81151   0.45519   0.93610   0.00000  Uiso   1.00
C946   C     0.84684   0.50044   0.55679   0.00000  Uiso   1.00
C947   C     0.86373   0.43215   0.56205   0.00000  Uiso   1.00
C948   C     0.80833   0.52723   0.91987   0.00000  Uiso   1.00
H949   H     0.82559   0.57066   0.53652   0.00000  Uiso   1.00
C950   C     0.99389   0.51097   0.73556   0.00000  Uiso   1.00
C951   C     0.67424   0.49062   0.76310   0.00000  Uiso   1.00
H952   H     0.98541   0.47165   0.78792   0.00000  Uiso   1.00
C953   C     0.84675   0.65600   0.73703   0.00000  Uiso   1.00
C954   C     0.81728   0.34588   0.76438   0.00000  Uiso   1.00
C955   C     0.88447   0.34267   0.70225   0.00000  Uiso   1.00
H956   H     0.90581   0.65346   0.68229   0.00000  Uiso   1.00
H957   H     0.87245   0.35739   0.67833   0.00000  Uiso   1.00
H958   H     0.90434   0.36661   0.71924   0.00000  Uiso   1.00
C959   C     0.77796   0.66339   0.79982   0.00000  Uiso   1.00
H960   H     0.75892   0.35553   0.81673   0.00000  Uiso   1.00
H961   H     0.75646   0.64008   0.78417   0.00000  Uiso   1.00
H962   H     0.78767   0.65020   0.82644   0.00000  Uiso   1.00
H963   H     0.82821   0.39752   0.94777   0.00000  Uiso   1.00
H964   H     0.85983   0.38737   0.50669   0.00000  Uiso   1.00
H965   H     0.84188   0.53064   0.57375   0.00000  Uiso   1.00
H966   H     0.79735   0.59017   0.91632   0.00000  Uiso   1.00
H967   H     0.80449   0.61435   0.99191   0.00000  Uiso   1.00
C968   C     0.78522   0.43269   0.90477   0.00000  Uiso   1.00
H969   H     0.76337   0.40641   0.92131   0.00000  Uiso   1.00
H970   H     0.76409   0.45253   0.89670   0.00000  Uiso   1.00
H971   H     0.80661   0.41987   0.87348   0.00000  Uiso   1.00
C972   C     0.69191   0.53707   0.70082   0.00000  Uiso   1.00
H973   H     0.67542   0.55177   0.68087   0.00000  Uiso   1.00
H974   H     0.71065   0.56214   0.71779   0.00000  Uiso   1.00
H975   H     0.71435   0.51741   0.67707   0.00000  Uiso   1.00
Zn976  Zn    0.19338   0.80661   0.78734   0.00000  Uiso   1.00
Zn977  Zn    0.13379   0.79124   0.71875   0.00000  Uiso   1.00
Zn978  Zn    0.21056   0.86442   0.70657   0.00000  Uiso   1.00
Zn979  Zn    0.12893   0.87106   0.78733   0.00000  Uiso   1.00
O980   O     0.16667   0.83333   0.75000   0.00000  Uiso   1.00
O981   O     0.07071   0.85544   0.78213   0.00000  Uiso   1.00
O982   O     0.25491   0.81892   0.77013   0.00000  Uiso   1.00
O983   O     0.13760   0.73610   0.73413   0.00000  Uiso   1.00
O984   O     0.20345   0.92286   0.71360   0.00000  Uiso   1.00
O985   O     0.15451   0.79304   0.65458   0.00000  Uiso   1.00
O986   O     0.12940   0.87058   0.84968   0.00000  Uiso   1.00
O987   O     0.20824   0.84425   0.64606   0.00000  Uiso   1.00
O988   O     0.17451   0.82546   0.84968   0.00000  Uiso   1.00
O989   O     0.17930   0.74686   0.78213   0.00000  Uiso   1.00
O990   O     0.14632   0.92751   0.77013   0.00000  Uiso   1.00
O991   O     0.07412   0.79958   0.73413   0.00000  Uiso   1.00
O992   O     0.26693   0.85939   0.71360   0.00000  Uiso   1.00
C993   C     0.05262   0.82579   0.76059   0.00000  Uiso   1.00
C994   C     0.28090   0.84070   0.73987   0.00000  Uiso   1.00
C995   C     0.15599   0.72287   0.76014   0.00000  Uiso   1.00
C996   C     0.17644   0.94463   0.74026   0.00000  Uiso   1.00
C997   C     0.18518   0.81460   0.62925   0.00000  Uiso   1.00
C998   C     0.14812   0.85107   0.87096   0.00000  Uiso   1.00
C999   C     0.19000   0.75255   0.51994   0.00000  Uiso   1.00
H1000  H     0.20474   0.74337   0.58111   0.00000  Uiso   1.00
C1001  C     0.19105   0.80569   0.58096   0.00000  Uiso   1.00
C1002  C     0.13628   0.90154   0.93695   0.00000  Uiso   1.00
C1003  C     0.14116   0.91571   0.97953   0.00000  Uiso   1.00
C1004  C     0.15322   0.88987   0.50504   0.00000  Uiso   1.00
C1005  C     0.15769   0.84786   0.98970   0.00000  Uiso   1.00
C1006  C     0.14784   0.83206   0.94802   0.00000  Uiso   1.00
C1007  C     0.17160   0.82111   0.51439   0.00000  Uiso   1.00
C1008  C     0.17570   0.77942   0.99682   0.00000  Uiso   1.00
C1009  C     0.16195   0.76367   0.95848   0.00000  Uiso   1.00
C1010  C     0.14485   0.78853   0.93610   0.00000  Uiso   1.00
C1011  C     0.18018   0.83377   0.55679   0.00000  Uiso   1.00
C1012  C     0.19707   0.76548   0.56205   0.00000  Uiso   1.00
C1013  C     0.14166   0.86056   0.91987   0.00000  Uiso   1.00
H1014  H     0.15892   0.90399   0.53652   0.00000  Uiso   1.00
C1015  C     0.32723   0.84430   0.73556   0.00000  Uiso   1.00
C1016  C     0.00757   0.82395   0.76310   0.00000  Uiso   1.00
H1017  H     0.31874   0.80498   0.78792   0.00000  Uiso   1.00
C1018  C     0.18009   0.98934   0.73703   0.00000  Uiso   1.00
C1019  C     0.15061   0.67921   0.76438   0.00000  Uiso   1.00
C1020  C     0.21780   0.67601   0.70225   0.00000  Uiso   1.00
H1021  H     0.23914   0.98679   0.68229   0.00000  Uiso   1.00
H1022  H     0.20579   0.69073   0.67833   0.00000  Uiso   1.00
H1023  H     0.23767   0.69994   0.71924   0.00000  Uiso   1.00
C1024  C     0.11130   0.99672   0.79982   0.00000  Uiso   1.00
H1025  H     0.09225   0.68886   0.81673   0.00000  Uiso   1.00
H1026  H     0.08979   0.97341   0.78417   0.00000  Uiso   1.00
H1027  H     0.12100   0.98353   0.82644   0.00000  Uiso   1.00
H1028  H     0.16154   0.73085   0.94777   0.00000  Uiso   1.00
H1029  H     0.19316   0.72071   0.50669   0.00000  Uiso   1.00
H1030  H     0.17522   0.86397   0.57375   0.00000  Uiso   1.00
H1031  H     0.13068   0.92350   0.91632   0.00000  Uiso   1.00
H1032  H     0.13783   0.94769   0.99191   0.00000  Uiso   1.00
C1033  C     0.11855   0.76603   0.90477   0.00000  Uiso   1.00
H1034  H     0.09670   0.73974   0.92131   0.00000  Uiso   1.00
H1035  H     0.09743   0.78586   0.89670   0.00000  Uiso   1.00
H1036  H     0.13995   0.75321   0.87348   0.00000  Uiso   1.00
C1037  C     0.02524   0.87040   0.70082   0.00000  Uiso   1.00
H1038  H     0.00876   0.88510   0.68087   0.00000  Uiso   1.00
H1039  H     0.04398   0.89548   0.71779   0.00000  Uiso   1.00
H1040  H     0.04769   0.85074   0.67707   0.00000  Uiso   1.00
Zn1041 Zn    0.52672   0.80661   0.78734   0.00000  Uiso   1.00
Zn1042 Zn    0.46713   0.79124   0.71875   0.00000  Uiso   1.00
Zn1043 Zn    0.54389   0.86442   0.70657   0.00000  Uiso   1.00
Zn1044 Zn    0.46226   0.87106   0.78733   0.00000  Uiso   1.00
O1045  O     0.50000   0.83333   0.75000   0.00000  Uiso   1.00
O1046  O     0.40405   0.85544   0.78213   0.00000  Uiso   1.00
O1047  O     0.58824   0.81892   0.77013   0.00000  Uiso   1.00
O1048  O     0.47093   0.73610   0.73413   0.00000  Uiso   1.00
O1049  O     0.53678   0.92286   0.71360   0.00000  Uiso   1.00
O1050  O     0.48784   0.79304   0.65458   0.00000  Uiso   1.00
O1051  O     0.46274   0.87058   0.84968   0.00000  Uiso   1.00
O1052  O     0.54157   0.84425   0.64606   0.00000  Uiso   1.00
O1053  O     0.50785   0.82546   0.84968   0.00000  Uiso   1.00
O1054  O     0.51264   0.74686   0.78213   0.00000  Uiso   1.00
O1055  O     0.47965   0.92751   0.77013   0.00000  Uiso   1.00
O1056  O     0.40745   0.79958   0.73413   0.00000  Uiso   1.00
O1057  O     0.60026   0.85939   0.71360   0.00000  Uiso   1.00
C1058  C     0.38595   0.82579   0.76059   0.00000  Uiso   1.00
C1059  C     0.61424   0.84070   0.73987   0.00000  Uiso   1.00
C1060  C     0.48932   0.72287   0.76014   0.00000  Uiso   1.00
C1061  C     0.50978   0.94463   0.74026   0.00000  Uiso   1.00
C1062  C     0.51852   0.81460   0.62925   0.00000  Uiso   1.00
C1063  C     0.48145   0.85107   0.87096   0.00000  Uiso   1.00
C1064  C     0.52333   0.75255   0.51994   0.00000  Uiso   1.00
H1065  H     0.53807   0.74337   0.58111   0.00000  Uiso   1.00
C1066  C     0.52438   0.80569   0.58096   0.00000  Uiso   1.00
C1067  C     0.46962   0.90154   0.93695   0.00000  Uiso   1.00
C1068  C     0.47450   0.91571   0.97953   0.00000  Uiso   1.00
C1069  C     0.48656   0.88987   0.50504   0.00000  Uiso   1.00
C1070  C     0.49102   0.84786   0.98970   0.00000  Uiso   1.00
C1071  C     0.48118   0.83206   0.94802   0.00000  Uiso   1.00
C1072  C     0.50493   0.82111   0.51439   0.00000  Uiso   1.00
C1073  C     0.50903   0.77942   0.99682   0.00000  Uiso   1.00
C1074  C     0.49528   0.76367   0.95848   0.00000  Uiso   1.00
C1075  C     0.47818   0.78853   0.93610   0.00000  Uiso   1.00
C1076  C     0.51351   0.83377   0.55679   0.00000  Uiso   1.00
C1077  C     0.53040   0.76548   0.56205   0.00000  Uiso   1.00
C1078  C     0.47499   0.86056   0.91987   0.00000  Uiso   1.00
H1079  H     0.49226   0.90399   0.53652   0.00000  Uiso   1.00
C1080  C     0.66056   0.84430   0.73556   0.00000  Uiso   1.00
C1081  C     0.34090   0.82395   0.76310   0.00000  Uiso   1.00
H1082  H     0.65207   0.80498   0.78792   0.00000  Uiso   1.00
C1083  C     0.51342   0.98934   0.73703   0.00000  Uiso   1.00
C1084  C     0.48394   0.67921   0.76438   0.00000  Uiso   1.00
C1085  C     0.55113   0.67601   0.70225   0.00000  Uiso   1.00
H1086  H     0.57248   0.98679   0.68229   0.00000  Uiso   1.00
H1087  H     0.53912   0.69073   0.67833   0.00000  Uiso   1.00
H1088  H     0.57100   0.69994   0.71924   0.00000  Uiso   1.00
C1089  C     0.44463   0.99672   0.79982   0.00000  Uiso   1.00
H1090  H     0.42558   0.68886   0.81673   0.00000  Uiso   1.00
H1091  H     0.42312   0.97341   0.78417   0.00000  Uiso   1.00
H1092  H     0.45433   0.98353   0.82644   0.00000  Uiso   1.00
H1093  H     0.49488   0.73085   0.94777   0.00000  Uiso   1.00
H1094  H     0.52649   0.72071   0.50669   0.00000  Uiso   1.00
H1095  H     0.50855   0.86397   0.57375   0.00000  Uiso   1.00
H1096  H     0.46402   0.92350   0.91632   0.00000  Uiso   1.00
H1097  H     0.47116   0.94769   0.99191   0.00000  Uiso   1.00
C1098  C     0.45189   0.76603   0.90477   0.00000  Uiso   1.00
H1099  H     0.43004   0.73974   0.92131   0.00000  Uiso   1.00
H1100  H     0.43076   0.78586   0.89670   0.00000  Uiso   1.00
H1101  H     0.47328   0.75321   0.87348   0.00000  Uiso   1.00
C1102  C     0.35857   0.87040   0.70082   0.00000  Uiso   1.00
H1103  H     0.34209   0.88510   0.68087   0.00000  Uiso   1.00
H1104  H     0.37731   0.89548   0.71779   0.00000  Uiso   1.00
H1105  H     0.38102   0.85074   0.67707   0.00000  Uiso   1.00
Zn1106 Zn    0.86005   0.80661   0.78734   0.00000  Uiso   1.00
Zn1107 Zn    0.80046   0.79124   0.71875   0.00000  Uiso   1.00
Zn1108 Zn    0.87723   0.86442   0.70657   0.00000  Uiso   1.00
Zn1109 Zn    0.79560   0.87106   0.78733   0.00000  Uiso   1.00
O1110  O     0.83333   0.83333   0.75000   0.00000  Uiso   1.00
O1111  O     0.73738   0.85544   0.78213   0.00000  Uiso   1.00
O1112  O     0.92158   0.81892   0.77013   0.00000  Uiso   1.00
O1113  O     0.80426   0.73610   0.73413   0.00000  Uiso   1.00
O1114  O     0.87012   0.92286   0.71360   0.00000  Uiso   1.00
O1115  O     0.82118   0.79304   0.65458   0.00000  Uiso   1.00
O1116  O     0.79607   0.87058   0.84968   0.00000  Uiso   1.00
O1117  O     0.87491   0.84425   0.64606   0.00000  Uiso   1.00
O1118  O     0.84118   0.82546   0.84968   0.00000  Uiso   1.00
O1119  O     0.84597   0.74686   0.78213   0.00000  Uiso   1.00
O1120  O     0.81298   0.92751   0.77013   0.00000  Uiso   1.00
O1121  O     0.74078   0.79958   0.73413   0.00000  Uiso   1.00
O1122  O     0.93360   0.85939   0.71360   0.00000  Uiso   1.00
C1123  C     0.71928   0.82579   0.76059   0.00000  Uiso   1.00
C1124  C     0.94757   0.84070   0.73987   0.00000  Uiso   1.00
C1125  C     0.82266   0.72287   0.76014   0.00000  Uiso   1.00
C1126  C     0.84311   0.94463   0.74026   0.00000  Uiso   1.00
C1127  C     0.85185   0.81460   0.62925   0.00000  Uiso   1.00
C1128  C     0.81479   0.85107   0.87096   0.00000  Uiso   1.00
C1129  C     0.85667   0.75255   0.51994   0.00000  Uiso   1.00
H1130  H     0.87141   0.74337   0.58111   0.00000  Uiso   1.00
C1131  C     0.85772   0.80569   0.58096   0.00000  Uiso   1.00
C1132  C     0.80295   0.90154   0.93695   0.00000  Uiso   1.00
C1133  C     0.80783   0.91571   0.97953   0.00000  Uiso   1.00
C1134  C     0.81989   0.88987   0.50504   0.00000  Uiso   1.00
C1135  C     0.82436   0.84786   0.98970   0.00000  Uiso   1.00
C1136  C     0.81451   0.83206   0.94802   0.00000  Uiso   1.00
C1137  C     0.83827   0.82111   0.51439   0.00000  Uiso   1.00
C1138  C     0.84236   0.77942   0.99682   0.00000  Uiso   1.00
C1139  C     0.82862   0.76367   0.95848   0.00000  Uiso   1.00
C1140  C     0.81151   0.78853   0.93610   0.00000  Uiso   1.00
C1141  C     0.84684   0.83377   0.55679   0.00000  Uiso   1.00
C1142  C     0.86373   0.76548   0.56205   0.00000  Uiso   1.00
C1143  C     0.80833   0.86056   0.91987   0.00000  Uiso   1.00
H1144  H     0.82559   0.90399   0.53652   0.00000  Uiso   1.00
C1145  C     0.99389   0.84430   0.73556   0.00000  Uiso   1.00
C1146  C     0.67424   0.82395   0.76310   0.00000  Uiso   1.00
H1147  H     0.98541   0.80498   0.78792   0.00000  Uiso   1.00
C1148  C     0.84675   0.98934   0.73703   0.00000  Uiso   1.00
C1149  C     0.81728   0.67921   0.76438   0.00000  Uiso   1.00
C1150  C     0.88447   0.67601   0.70225   0.00000  Uiso   1.00
H1151  H     0.90581   0.98679   0.68229   0.00000  Uiso   1.00
H1152  H     0.87245   0.69073   0.67833   0.00000  Uiso   1.00
H1153  H     0.90434   0.69994   0.71924   0.00000  Uiso   1.00
C1154  C     0.77796   0.99672   0.79982   0.00000  Uiso   1.00
H1155  H     0.75892   0.68886   0.81673   0.00000  Uiso   1.00
H1156  H     0.75646   0.97341   0.78417   0.00000  Uiso   1.00
H1157  H     0.78767   0.98353   0.82644   0.00000  Uiso   1.00
H1158  H     0.82821   0.73085   0.94777   0.00000  Uiso   1.00
H1159  H     0.85983   0.72071   0.50669   0.00000  Uiso   1.00
H1160  H     0.84188   0.86397   0.57375   0.00000  Uiso   1.00
H1161  H     0.79735   0.92350   0.91632   0.00000  Uiso   1.00
H1162  H     0.80449   0.94769   0.99191   0.00000  Uiso   1.00
C1163  C     0.78522   0.76603   0.90477   0.00000  Uiso   1.00
H1164  H     0.76337   0.73974   0.92131   0.00000  Uiso   1.00
H1165  H     0.76409   0.78586   0.89670   0.00000  Uiso   1.00
H1166  H     0.80661   0.75321   0.87348   0.00000  Uiso   1.00
C1167  C     0.69191   0.87040   0.70082   0.00000  Uiso   1.00
H1168  H     0.67542   0.88510   0.68087   0.00000  Uiso   1.00
H1169  H     0.71065   0.89548   0.71779   0.00000  Uiso   1.00
H1170  H     0.71435   0.85074   0.67707   0.00000  Uiso   1.00
loop_
_geom_bond_atom_site_label_1
_geom_bond_atom_site_label_2
_geom_bond_distance
_geom_bond_site_symmetry_2
_ccdc_geom_bond_type
Zn1    O5      1.969   .     S
Zn1    O13     1.918   .     S
Zn1    O7      1.921   .     S
Zn1    O14     1.939   .     S
Zn2    O16     1.927   .     S
Zn2    O10     1.925   .     S
Zn2    O5      1.937   .     S
Zn2    O8      1.955   .     S
Zn3    O9      1.945   .     S
Zn3    O12     1.925   .     S
Zn3    O17     1.938   .     S
Zn3    O5      1.936   .     S
Zn4    O15     1.946   .     S
Zn4    O11     1.936   .     S
Zn4    O6      1.929   .     S
Zn4    O5      1.934   .     S
O6     C18     1.269   .     A
O7     C19     1.287   .     A
O8     C20     1.271   .     A
O9     C21     1.275   .     A
O10    C22     1.269   .     A
O11    C23     1.285   .     A
O12    C22     1.280   .     A
O13    C23     1.290   .     A
O14    C20     1.272   .     A
O15    C21     1.267   .     A
O16    C18     1.268   .     A
O17    C19     1.284   .     A
C18    C41     1.439   .     S
C19    C40     1.465   .     S
C20    C44     1.433   .     S
C21    C43     1.466   .     S
C22    C26     1.454   .     S
C23    C38     1.473   .     S
C24    C37     1.388   .     A
C24    H54     1.084   .     S
C24    C618    1.401   1_554 S
H25    C37     1.084   .     S
C26    C37     1.396   .     A
C26    C36     1.394   .     A
C27    C38     1.402   .     A
C27    C28     1.384   .     A
C27    H56     1.084   .     S
C28    H57     1.083   .     S
C28    C614    1.388   .     S
C29    H39     1.076   .     S
C29    C613    1.388   1_554 S
C29    C615    1.418   1_554 S
C30    C31     1.428   .     A
C30    C614    1.418   .     S
C30    C617    1.425   .     S
C31    C38     1.422   .     A
C31    C35     1.425   .     A
C32    C36     1.414   .     A
C32    C615    1.425   1_554 S
C32    C618    1.421   1_554 S
C33    C34     1.391   .     A
C33    C617    1.421   .     S
C33    C609    1.401   .     S
C34    C35     1.392   .     A
C34    H53     1.086   .     S
C35    C58     1.513   .     S
C36    H55     1.077   .     S
C40    C106    1.343   .     S
C40    C127    1.517   .     S
C41    C170    1.343   1_455 S
C41    H172    1.086   1_455 S
H42    C106    1.086   .     S
C43    C239    1.361   .     S
C43    C240    1.522   .     S
C44    C433    1.361   1_545 S
C44    C439    1.515   1_545 S
C45    H47     1.111   .     S
C45    H48     1.111   .     S
C45    C433    1.522   1_545 S
C45    H436    1.109   1_545 S
H46    C240    1.109   .     S
C49    H52     1.110   .     S
C49    H51     1.111   .     S
C49    C239    1.515   .     S
C49    H245    1.112   .     S
H50    C439    1.112   1_545 S
C58    H61     1.109   .     S
C58    H60     1.108   .     S
C58    H59     1.111   .     S
C62    H63     1.109   .     S
C62    H64     1.111   .     S
C62    H65     1.111   .     S
C62    C170    1.517   1_455 S
Zn66   O70     1.969   .     S
Zn66   O78     1.918   .     S
Zn66   O72     1.921   .     S
Zn66   O79     1.939   .     S
Zn67   O81     1.927   .     S
Zn67   O75     1.925   .     S
Zn67   O70     1.937   .     S
Zn67   O73     1.955   .     S
Zn68   O74     1.945   .     S
Zn68   O77     1.925   .     S
Zn68   O82     1.938   .     S
Zn68   O70     1.936   .     S
Zn69   O80     1.946   .     S
Zn69   O76     1.936   .     S
Zn69   O71     1.929   .     S
Zn69   O70     1.934   .     S
O71    C83     1.269   .     A
O72    C84     1.287   .     A
O73    C85     1.271   .     A
O74    C86     1.275   .     A
O75    C87     1.269   .     A
O76    C88     1.285   .     A
O77    C87     1.280   .     A
O78    C88     1.290   .     A
O79    C85     1.272   .     A
O80    C86     1.267   .     A
O81    C83     1.268   .     A
O82    C84     1.284   .     A
C83    C106    1.439   .     S
C84    C105    1.465   .     S
C85    C109    1.433   .     S
C86    C108    1.466   .     S
C87    C91     1.454   .     S
C88    C103    1.473   .     S
C89    C102    1.388   .     A
C89    H119    1.084   .     S
C89    C683    1.401   1_554 S
H90    C102    1.084   .     S
C91    C102    1.396   .     A
C91    C101    1.394   .     A
C92    C103    1.402   .     A
C92    C93     1.384   .     A
C92    H121    1.084   .     S
C93    H122    1.083   .     S
C93    C679    1.388   .     S
C94    H104    1.076   .     S
C94    C678    1.388   1_554 S
C94    C680    1.418   1_554 S
C95    C96     1.428   .     A
C95    C679    1.418   .     S
C95    C682    1.425   .     S
C96    C103    1.422   .     A
C96    C100    1.425   .     A
C97    C101    1.414   .     A
C97    C680    1.425   1_554 S
C97    C683    1.421   1_554 S
C98    C99     1.391   .     A
C98    C682    1.421   .     S
C98    C674    1.401   .     S
C99    C100    1.392   .     A
C99    H118    1.086   .     S
C100   C123    1.513   .     S
C101   H120    1.077   .     S
C105   C171    1.343   .     S
C105   C192    1.517   .     S
H107   C171    1.086   .     S
C108   C304    1.361   .     S
C108   C305    1.522   .     S
C109   C498    1.361   1_545 S
C109   C504    1.515   1_545 S
C110   H112    1.111   .     S
C110   H113    1.111   .     S
C110   C498    1.522   1_545 S
C110   H501    1.109   1_545 S
H111   C305    1.109   .     S
C114   H117    1.110   .     S
C114   H116    1.111   .     S
C114   C304    1.515   .     S
C114   H310    1.112   .     S
H115   C504    1.112   1_545 S
C123   H126    1.109   .     S
C123   H125    1.108   .     S
C123   H124    1.111   .     S
C127   H128    1.109   .     S
C127   H129    1.111   .     S
C127   H130    1.111   .     S
Zn131  O135    1.969   .     S
Zn131  O143    1.918   .     S
Zn131  O137    1.921   .     S
Zn131  O144    1.939   .     S
Zn132  O146    1.927   .     S
Zn132  O140    1.925   .     S
Zn132  O135    1.937   .     S
Zn132  O138    1.955   .     S
Zn133  O139    1.945   .     S
Zn133  O142    1.925   .     S
Zn133  O147    1.938   .     S
Zn133  O135    1.936   .     S
Zn134  O145    1.946   .     S
Zn134  O141    1.936   .     S
Zn134  O136    1.929   .     S
Zn134  O135    1.934   .     S
O136   C148    1.269   .     A
O137   C149    1.287   .     A
O138   C150    1.271   .     A
O139   C151    1.275   .     A
O140   C152    1.269   .     A
O141   C153    1.285   .     A
O142   C152    1.280   .     A
O143   C153    1.290   .     A
O144   C150    1.272   .     A
O145   C151    1.267   .     A
O146   C148    1.268   .     A
O147   C149    1.284   .     A
C148   C171    1.439   .     S
C149   C170    1.465   .     S
C150   C174    1.433   .     S
C151   C173    1.466   .     S
C152   C156    1.454   .     S
C153   C168    1.473   .     S
C154   C167    1.388   .     A
C154   H184    1.084   .     S
C154   C748    1.401   1_554 S
H155   C167    1.084   .     S
C156   C167    1.396   .     A
C156   C166    1.394   .     A
C157   C168    1.402   .     A
C157   C158    1.384   .     A
C157   H186    1.084   .     S
C158   H187    1.083   .     S
C158   C744    1.388   .     S
C159   H169    1.076   .     S
C159   C743    1.388   1_554 S
C159   C745    1.418   1_554 S
C160   C161    1.428   .     A
C160   C744    1.418   .     S
C160   C747    1.425   .     S
C161   C168    1.422   .     A
C161   C165    1.425   .     A
C162   C166    1.414   .     A
C162   C745    1.425   1_554 S
C162   C748    1.421   1_554 S
C163   C164    1.391   .     A
C163   C747    1.421   .     S
C163   C739    1.401   .     S
C164   C165    1.392   .     A
C164   H183    1.086   .     S
C165   C188    1.513   .     S
C166   H185    1.077   .     S
C170   C41     1.343   1_655 S
C170   C62     1.517   1_655 S
H172   C41     1.086   1_655 S
C173   C369    1.361   .     S
C173   C370    1.522   .     S
C174   C563    1.361   1_545 S
C174   C569    1.515   1_545 S
C175   H177    1.111   .     S
C175   H178    1.111   .     S
C175   C563    1.522   1_545 S
C175   H566    1.109   1_545 S
H176   C370    1.109   .     S
C179   H182    1.110   .     S
C179   H181    1.111   .     S
C179   C369    1.515   .     S
C179   H375    1.112   .     S
H180   C569    1.112   1_545 S
C188   H191    1.109   .     S
C188   H190    1.108   .     S
C188   H189    1.111   .     S
C192   H193    1.109   .     S
C192   H194    1.111   .     S
C192   H195    1.111   .     S
Zn196  O200    1.969   .     S
Zn196  O208    1.918   .     S
Zn196  O202    1.921   .     S
Zn196  O209    1.939   .     S
Zn197  O211    1.927   .     S
Zn197  O205    1.925   .     S
Zn197  O200    1.937   .     S
Zn197  O203    1.955   .     S
Zn198  O204    1.945   .     S
Zn198  O207    1.925   .     S
Zn198  O212    1.938   .     S
Zn198  O200    1.936   .     S
Zn199  O210    1.946   .     S
Zn199  O206    1.936   .     S
Zn199  O201    1.929   .     S
Zn199  O200    1.934   .     S
O201   C213    1.269   .     A
O202   C214    1.287   .     A
O203   C215    1.271   .     A
O204   C216    1.275   .     A
O205   C217    1.269   .     A
O206   C218    1.285   .     A
O207   C217    1.280   .     A
O208   C218    1.290   .     A
O209   C215    1.272   .     A
O210   C216    1.267   .     A
O211   C213    1.268   .     A
O212   C214    1.284   .     A
C213   C236    1.439   .     S
C214   C235    1.465   .     S
C215   C239    1.433   .     S
C216   C238    1.466   .     S
C217   C221    1.454   .     S
C218   C233    1.473   .     S
C219   C232    1.388   .     A
C219   H249    1.084   .     S
C219   C813    1.401   1_554 S
H220   C232    1.084   .     S
C221   C232    1.396   .     A
C221   C231    1.394   .     A
C222   C233    1.402   .     A
C222   C223    1.384   .     A
C222   H251    1.084   .     S
C223   H252    1.083   .     S
C223   C809    1.388   .     S
C224   H234    1.076   .     S
C224   C808    1.388   1_554 S
C224   C810    1.418   1_554 S
C225   C226    1.428   .     A
C225   C809    1.418   .     S
C225   C812    1.425   .     S
C226   C233    1.422   .     A
C226   C230    1.425   .     A
C227   C231    1.414   .     A
C227   C810    1.425   1_554 S
C227   C813    1.421   1_554 S
C228   C229    1.391   .     A
C228   C812    1.421   .     S
C228   C804    1.401   .     S
C229   C230    1.392   .     A
C229   H248    1.086   .     S
C230   C253    1.513   .     S
C231   H250    1.077   .     S
C235   C301    1.343   .     S
C235   C322    1.517   .     S
C236   C365    1.343   1_455 S
C236   H367    1.086   1_455 S
H237   C301    1.086   .     S
C238   C434    1.361   .     S
C238   C435    1.522   .     S
C240   H242    1.111   .     S
C240   H243    1.111   .     S
H241   C435    1.109   .     S
C244   H247    1.110   .     S
C244   H246    1.111   .     S
C244   C434    1.515   .     S
C244   H440    1.112   .     S
C253   H256    1.109   .     S
C253   H255    1.108   .     S
C253   H254    1.111   .     S
C257   H258    1.109   .     S
C257   H259    1.111   .     S
C257   H260    1.111   .     S
C257   C365    1.517   1_455 S
Zn261  O265    1.969   .     S
Zn261  O273    1.918   .     S
Zn261  O267    1.921   .     S
Zn261  O274    1.939   .     S
Zn262  O276    1.927   .     S
Zn262  O270    1.925   .     S
Zn262  O265    1.937   .     S
Zn262  O268    1.955   .     S
Zn263  O269    1.945   .     S
Zn263  O272    1.925   .     S
Zn263  O277    1.938   .     S
Zn263  O265    1.936   .     S
Zn264  O275    1.946   .     S
Zn264  O271    1.936   .     S
Zn264  O266    1.929   .     S
Zn264  O265    1.934   .     S
O266   C278    1.269   .     A
O267   C279    1.287   .     A
O268   C280    1.271   .     A
O269   C281    1.275   .     A
O270   C282    1.269   .     A
O271   C283    1.285   .     A
O272   C282    1.280   .     A
O273   C283    1.290   .     A
O274   C280    1.272   .     A
O275   C281    1.267   .     A
O276   C278    1.268   .     A
O277   C279    1.284   .     A
C278   C301    1.439   .     S
C279   C300    1.465   .     S
C280   C304    1.433   .     S
C281   C303    1.466   .     S
C282   C286    1.454   .     S
C283   C298    1.473   .     S
C284   C297    1.388   .     A
C284   H314    1.084   .     S
C284   C878    1.401   1_554 S
H285   C297    1.084   .     S
C286   C297    1.396   .     A
C286   C296    1.394   .     A
C287   C298    1.402   .     A
C287   C288    1.384   .     A
C287   H316    1.084   .     S
C288   H317    1.083   .     S
C288   C874    1.388   .     S
C289   H299    1.076   .     S
C289   C873    1.388   1_554 S
C289   C875    1.418   1_554 S
C290   C291    1.428   .     A
C290   C874    1.418   .     S
C290   C877    1.425   .     S
C291   C298    1.422   .     A
C291   C295    1.425   .     A
C292   C296    1.414   .     A
C292   C875    1.425   1_554 S
C292   C878    1.421   1_554 S
C293   C294    1.391   .     A
C293   C877    1.421   .     S
C293   C869    1.401   .     S
C294   C295    1.392   .     A
C294   H313    1.086   .     S
C295   C318    1.513   .     S
C296   H315    1.077   .     S
C300   C366    1.343   .     S
C300   C387    1.517   .     S
H302   C366    1.086   .     S
C303   C499    1.361   .     S
C303   C500    1.522   .     S
C305   H307    1.111   .     S
C305   H308    1.111   .     S
H306   C500    1.109   .     S
C309   H312    1.110   .     S
C309   H311    1.111   .     S
C309   C499    1.515   .     S
C309   H505    1.112   .     S
C318   H321    1.109   .     S
C318   H320    1.108   .     S
C318   H319    1.111   .     S
C322   H323    1.109   .     S
C322   H324    1.111   .     S
C322   H325    1.111   .     S
Zn326  O330    1.969   .     S
Zn326  O338    1.918   .     S
Zn326  O332    1.921   .     S
Zn326  O339    1.939   .     S
Zn327  O341    1.927   .     S
Zn327  O335    1.925   .     S
Zn327  O330    1.937   .     S
Zn327  O333    1.955   .     S
Zn328  O334    1.945   .     S
Zn328  O337    1.925   .     S
Zn328  O342    1.938   .     S
Zn328  O330    1.936   .     S
Zn329  O340    1.946   .     S
Zn329  O336    1.936   .     S
Zn329  O331    1.929   .     S
Zn329  O330    1.934   .     S
O331   C343    1.269   .     A
O332   C344    1.287   .     A
O333   C345    1.271   .     A
O334   C346    1.275   .     A
O335   C347    1.269   .     A
O336   C348    1.285   .     A
O337   C347    1.280   .     A
O338   C348    1.290   .     A
O339   C345    1.272   .     A
O340   C346    1.267   .     A
O341   C343    1.268   .     A
O342   C344    1.284   .     A
C343   C366    1.439   .     S
C344   C365    1.465   .     S
C345   C369    1.433   .     S
C346   C368    1.466   .     S
C347   C351    1.454   .     S
C348   C363    1.473   .     S
C349   C362    1.388   .     A
C349   H379    1.084   .     S
C349   C943    1.401   1_554 S
H350   C362    1.084   .     S
C351   C362    1.396   .     A
C351   C361    1.394   .     A
C352   C363    1.402   .     A
C352   C353    1.384   .     A
C352   H381    1.084   .     S
C353   H382    1.083   .     S
C353   C939    1.388   .     S
C354   H364    1.076   .     S
C354   C938    1.388   1_554 S
C354   C940    1.418   1_554 S
C355   C356    1.428   .     A
C355   C939    1.418   .     S
C355   C942    1.425   .     S
C356   C363    1.422   .     A
C356   C360    1.425   .     A
C357   C361    1.414   .     A
C357   C940    1.425   1_554 S
C357   C943    1.421   1_554 S
C358   C359    1.391   .     A
C358   C942    1.421   .     S
C358   C934    1.401   .     S
C359   C360    1.392   .     A
C359   H378    1.086   .     S
C360   C383    1.513   .     S
C361   H380    1.077   .     S
C365   C236    1.343   1_655 S
C365   C257    1.517   1_655 S
H367   C236    1.086   1_655 S
C368   C564    1.361   .     S
C368   C565    1.522   .     S
C370   H372    1.111   .     S
C370   H373    1.111   .     S
H371   C565    1.109   .     S
C374   H377    1.110   .     S
C374   H376    1.111   .     S
C374   C564    1.515   .     S
C374   H570    1.112   .     S
C383   H386    1.109   .     S
C383   H385    1.108   .     S
C383   H384    1.111   .     S
C387   H388    1.109   .     S
C387   H389    1.111   .     S
C387   H390    1.111   .     S
Zn391  O395    1.969   .     S
Zn391  O403    1.918   .     S
Zn391  O397    1.921   .     S
Zn391  O404    1.939   .     S
Zn392  O406    1.927   .     S
Zn392  O400    1.925   .     S
Zn392  O395    1.937   .     S
Zn392  O398    1.955   .     S
Zn393  O399    1.945   .     S
Zn393  O402    1.925   .     S
Zn393  O407    1.938   .     S
Zn393  O395    1.936   .     S
Zn394  O405    1.946   .     S
Zn394  O401    1.936   .     S
Zn394  O396    1.929   .     S
Zn394  O395    1.934   .     S
O396   C408    1.269   .     A
O397   C409    1.287   .     A
O398   C410    1.271   .     A
O399   C411    1.275   .     A
O400   C412    1.269   .     A
O401   C413    1.285   .     A
O402   C412    1.280   .     A
O403   C413    1.290   .     A
O404   C410    1.272   .     A
O405   C411    1.267   .     A
O406   C408    1.268   .     A
O407   C409    1.284   .     A
C408   C431    1.439   .     S
C409   C430    1.465   .     S
C410   C434    1.433   .     S
C411   C433    1.466   .     S
C412   C416    1.454   .     S
C413   C428    1.473   .     S
C414   C427    1.388   .     A
C414   H444    1.084   .     S
C414   C1008   1.401   1_554 S
H415   C427    1.084   .     S
C416   C427    1.396   .     A
C416   C426    1.394   .     A
C417   C428    1.402   .     A
C417   C418    1.384   .     A
C417   H446    1.084   .     S
C418   H447    1.083   .     S
C418   C1004   1.388   .     S
C419   H429    1.076   .     S
C419   C1003   1.388   1_554 S
C419   C1005   1.418   1_554 S
C420   C421    1.428   .     A
C420   C1004   1.418   .     S
C420   C1007   1.425   .     S
C421   C428    1.422   .     A
C421   C425    1.425   .     A
C422   C426    1.414   .     A
C422   C1005   1.425   1_554 S
C422   C1008   1.421   1_554 S
C423   C424    1.391   .     A
C423   C1007   1.421   .     S
C423   C999    1.401   .     S
C424   C425    1.392   .     A
C424   H443    1.086   .     S
C425   C448    1.513   .     S
C426   H445    1.077   .     S
C430   C496    1.343   .     S
C430   C517    1.517   .     S
C431   C560    1.343   1_455 S
C431   H562    1.086   1_455 S
H432   C496    1.086   .     S
C433   C44     1.361   1_565 S
C433   C45     1.522   1_565 S
C435   H437    1.111   .     S
C435   H438    1.111   .     S
H436   C45     1.109   1_565 S
C439   H442    1.110   .     S
C439   H441    1.111   .     S
C439   C44     1.515   1_565 S
C439   H50     1.112   1_565 S
C448   H451    1.109   .     S
C448   H450    1.108   .     S
C448   H449    1.111   .     S
C452   H453    1.109   .     S
C452   H454    1.111   .     S
C452   H455    1.111   .     S
C452   C560    1.517   1_455 S
Zn456  O460    1.969   .     S
Zn456  O468    1.918   .     S
Zn456  O462    1.921   .     S
Zn456  O469    1.939   .     S
Zn457  O471    1.927   .     S
Zn457  O465    1.925   .     S
Zn457  O460    1.937   .     S
Zn457  O463    1.955   .     S
Zn458  O464    1.945   .     S
Zn458  O467    1.925   .     S
Zn458  O472    1.938   .     S
Zn458  O460    1.936   .     S
Zn459  O470    1.946   .     S
Zn459  O466    1.936   .     S
Zn459  O461    1.929   .     S
Zn459  O460    1.934   .     S
O461   C473    1.269   .     A
O462   C474    1.287   .     A
O463   C475    1.271   .     A
O464   C476    1.275   .     A
O465   C477    1.269   .     A
O466   C478    1.285   .     A
O467   C477    1.280   .     A
O468   C478    1.290   .     A
O469   C475    1.272   .     A
O470   C476    1.267   .     A
O471   C473    1.268   .     A
O472   C474    1.284   .     A
C473   C496    1.439   .     S
C474   C495    1.465   .     S
C475   C499    1.433   .     S
C476   C498    1.466   .     S
C477   C481    1.454   .     S
C478   C493    1.473   .     S
C479   C492    1.388   .     A
C479   H509    1.084   .     S
C479   C1073   1.401   1_554 S
H480   C492    1.084   .     S
C481   C492    1.396   .     A
C481   C491    1.394   .     A
C482   C493    1.402   .     A
C482   C483    1.384   .     A
C482   H511    1.084   .     S
C483   H512    1.083   .     S
C483   C1069   1.388   .     S
C484   H494    1.076   .     S
C484   C1068   1.388   1_554 S
C484   C1070   1.418   1_554 S
C485   C486    1.428   .     A
C485   C1069   1.418   .     S
C485   C1072   1.425   .     S
C486   C493    1.422   .     A
C486   C490    1.425   .     A
C487   C491    1.414   .     A
C487   C1070   1.425   1_554 S
C487   C1073   1.421   1_554 S
C488   C489    1.391   .     A
C488   C1072   1.421   .     S
C488   C1064   1.401   .     S
C489   C490    1.392   .     A
C489   H508    1.086   .     S
C490   C513    1.513   .     S
C491   H510    1.077   .     S
C495   C561    1.343   .     S
C495   C582    1.517   .     S
H497   C561    1.086   .     S
C498   C109    1.361   1_565 S
C498   C110    1.522   1_565 S
C500   H502    1.111   .     S
C500   H503    1.111   .     S
H501   C110    1.109   1_565 S
C504   H507    1.110   .     S
C504   H506    1.111   .     S
C504   C109    1.515   1_565 S
C504   H115    1.112   1_565 S
C513   H516    1.109   .     S
C513   H515    1.108   .     S
C513   H514    1.111   .     S
C517   H518    1.109   .     S
C517   H519    1.111   .     S
C517   H520    1.111   .     S
Zn521  O525    1.969   .     S
Zn521  O533    1.918   .     S
Zn521  O527    1.921   .     S
Zn521  O534    1.939   .     S
Zn522  O536    1.927   .     S
Zn522  O530    1.925   .     S
Zn522  O525    1.937   .     S
Zn522  O528    1.955   .     S
Zn523  O529    1.945   .     S
Zn523  O532    1.925   .     S
Zn523  O537    1.938   .     S
Zn523  O525    1.936   .     S
Zn524  O535    1.946   .     S
Zn524  O531    1.936   .     S
Zn524  O526    1.929   .     S
Zn524  O525    1.934   .     S
O526   C538    1.269   .     A
O527   C539    1.287   .     A
O528   C540    1.271   .     A
O529   C541    1.275   .     A
O530   C542    1.269   .     A
O531   C543    1.285   .     A
O532   C542    1.280   .     A
O533   C543    1.290   .     A
O534   C540    1.272   .     A
O535   C541    1.267   .     A
O536   C538    1.268   .     A
O537   C539    1.284   .     A
C538   C561    1.439   .     S
C539   C560    1.465   .     S
C540   C564    1.433   .     S
C541   C563    1.466   .     S
C542   C546    1.454   .     S
C543   C558    1.473   .     S
C544   C557    1.388   .     A
C544   H574    1.084   .     S
C544   C1138   1.401   1_554 S
H545   C557    1.084   .     S
C546   C557    1.396   .     A
C546   C556    1.394   .     A
C547   C558    1.402   .     A
C547   C548    1.384   .     A
C547   H576    1.084   .     S
C548   H577    1.083   .     S
C548   C1134   1.388   .     S
C549   H559    1.076   .     S
C549   C1133   1.388   1_554 S
C549   C1135   1.418   1_554 S
C550   C551    1.428   .     A
C550   C1134   1.418   .     S
C550   C1137   1.425   .     S
C551   C558    1.422   .     A
C551   C555    1.425   .     A
C552   C556    1.414   .     A
C552   C1135   1.425   1_554 S
C552   C1138   1.421   1_554 S
C553   C554    1.391   .     A
C553   C1137   1.421   .     S
C553   C1129   1.401   .     S
C554   C555    1.392   .     A
C554   H573    1.086   .     S
C555   C578    1.513   .     S
C556   H575    1.077   .     S
C560   C431    1.343   1_655 S
C560   C452    1.517   1_655 S
H562   C431    1.086   1_655 S
C563   C174    1.361   1_565 S
C563   C175    1.522   1_565 S
C565   H567    1.111   .     S
C565   H568    1.111   .     S
H566   C175    1.109   1_565 S
C569   H572    1.110   .     S
C569   H571    1.111   .     S
C569   C174    1.515   1_565 S
C569   H180    1.112   1_565 S
C578   H581    1.109   .     S
C578   H580    1.108   .     S
C578   H579    1.111   .     S
C582   H583    1.109   .     S
C582   H584    1.111   .     S
C582   H585    1.111   .     S
Zn586  O590    1.969   .     S
Zn586  O598    1.918   .     S
Zn586  O592    1.921   .     S
Zn586  O599    1.939   .     S
Zn587  O601    1.927   .     S
Zn587  O595    1.925   .     S
Zn587  O590    1.937   .     S
Zn587  O593    1.955   .     S
Zn588  O594    1.945   .     S
Zn588  O597    1.925   .     S
Zn588  O602    1.938   .     S
Zn588  O590    1.936   .     S
Zn589  O600    1.946   .     S
Zn589  O596    1.936   .     S
Zn589  O591    1.929   .     S
Zn589  O590    1.934   .     S
O591   C603    1.269   .     A
O592   C604    1.287   .     A
O593   C605    1.271   .     A
O594   C606    1.275   .     A
O595   C607    1.269   .     A
O596   C608    1.285   .     A
O597   C607    1.280   .     A
O598   C608    1.290   .     A
O599   C605    1.272   .     A
O600   C606    1.267   .     A
O601   C603    1.268   .     A
O602   C604    1.284   .     A
C603   C626    1.439   .     S
C604   C625    1.465   .     S
C605   C629    1.433   .     S
C606   C628    1.466   .     S
C607   C611    1.454   .     S
C608   C623    1.473   .     S
C609   C622    1.388   .     A
C609   H639    1.084   .     S
H610   C622    1.084   .     S
C611   C622    1.396   .     A
C611   C621    1.394   .     A
C612   C623    1.402   .     A
C612   C613    1.384   .     A
C612   H641    1.084   .     S
C613   H642    1.083   .     S
C613   C29     1.388   1_556 S
C614   H624    1.076   .     S
C615   C616    1.428   .     A
C615   C29     1.418   1_556 S
C615   C32     1.425   1_556 S
C616   C623    1.422   .     A
C616   C620    1.425   .     A
C617   C621    1.414   .     A
C618   C619    1.391   .     A
C618   C32     1.421   1_556 S
C618   C24     1.401   1_556 S
C619   C620    1.392   .     A
C619   H638    1.086   .     S
C620   C643    1.513   .     S
C621   H640    1.077   .     S
C625   C691    1.343   .     S
C625   C712    1.517   .     S
C626   C755    1.343   1_455 S
C626   H757    1.086   1_455 S
H627   C691    1.086   .     S
C628   C824    1.361   .     S
C628   C825    1.522   .     S
C629   C1018   1.361   1_545 S
C629   C1024   1.515   1_545 S
C630   H632    1.111   .     S
C630   H633    1.111   .     S
C630   C1018   1.522   1_545 S
C630   H1021   1.109   1_545 S
H631   C825    1.109   .     S
C634   H637    1.110   .     S
C634   H636    1.111   .     S
C634   C824    1.515   .     S
C634   H830    1.112   .     S
H635   C1024   1.112   1_545 S
C643   H646    1.109   .     S
C643   H645    1.108   .     S
C643   H644    1.111   .     S
C647   H648    1.109   .     S
C647   H649    1.111   .     S
C647   H650    1.111   .     S
C647   C755    1.517   1_455 S
Zn651  O655    1.969   .     S
Zn651  O663    1.918   .     S
Zn651  O657    1.921   .     S
Zn651  O664    1.939   .     S
Zn652  O666    1.927   .     S
Zn652  O660    1.925   .     S
Zn652  O655    1.937   .     S
Zn652  O658    1.955   .     S
Zn653  O659    1.945   .     S
Zn653  O662    1.925   .     S
Zn653  O667    1.938   .     S
Zn653  O655    1.936   .     S
Zn654  O665    1.946   .     S
Zn654  O661    1.936   .     S
Zn654  O656    1.929   .     S
Zn654  O655    1.934   .     S
O656   C668    1.269   .     A
O657   C669    1.287   .     A
O658   C670    1.271   .     A
O659   C671    1.275   .     A
O660   C672    1.269   .     A
O661   C673    1.285   .     A
O662   C672    1.280   .     A
O663   C673    1.290   .     A
O664   C670    1.272   .     A
O665   C671    1.267   .     A
O666   C668    1.268   .     A
O667   C669    1.284   .     A
C668   C691    1.439   .     S
C669   C690    1.465   .     S
C670   C694    1.433   .     S
C671   C693    1.466   .     S
C672   C676    1.454   .     S
C673   C688    1.473   .     S
C674   C687    1.388   .     A
C674   H704    1.084   .     S
H675   C687    1.084   .     S
C676   C687    1.396   .     A
C676   C686    1.394   .     A
C677   C688    1.402   .     A
C677   C678    1.384   .     A
C677   H706    1.084   .     S
C678   H707    1.083   .     S
C678   C94     1.388   1_556 S
C679   H689    1.076   .     S
C680   C681    1.428   .     A
C680   C94     1.418   1_556 S
C680   C97     1.425   1_556 S
C681   C688    1.422   .     A
C681   C685    1.425   .     A
C682   C686    1.414   .     A
C683   C684    1.391   .     A
C683   C97     1.421   1_556 S
C683   C89     1.401   1_556 S
C684   C685    1.392   .     A
C684   H703    1.086   .     S
C685   C708    1.513   .     S
C686   H705    1.077   .     S
C690   C756    1.343   .     S
C690   C777    1.517   .     S
H692   C756    1.086   .     S
C693   C889    1.361   .     S
C693   C890    1.522   .     S
C694   C1083   1.361   1_545 S
C694   C1089   1.515   1_545 S
C695   H697    1.111   .     S
C695   H698    1.111   .     S
C695   C1083   1.522   1_545 S
C695   H1086   1.109   1_545 S
H696   C890    1.109   .     S
C699   H702    1.110   .     S
C699   H701    1.111   .     S
C699   C889    1.515   .     S
C699   H895    1.112   .     S
H700   C1089   1.112   1_545 S
C708   H711    1.109   .     S
C708   H710    1.108   .     S
C708   H709    1.111   .     S
C712   H713    1.109   .     S
C712   H714    1.111   .     S
C712   H715    1.111   .     S
Zn716  O720    1.969   .     S
Zn716  O728    1.918   .     S
Zn716  O722    1.921   .     S
Zn716  O729    1.939   .     S
Zn717  O731    1.927   .     S
Zn717  O725    1.925   .     S
Zn717  O720    1.937   .     S
Zn717  O723    1.955   .     S
Zn718  O724    1.945   .     S
Zn718  O727    1.925   .     S
Zn718  O732    1.938   .     S
Zn718  O720    1.936   .     S
Zn719  O730    1.946   .     S
Zn719  O726    1.936   .     S
Zn719  O721    1.929   .     S
Zn719  O720    1.934   .     S
O721   C733    1.269   .     A
O722   C734    1.287   .     A
O723   C735    1.271   .     A
O724   C736    1.275   .     A
O725   C737    1.269   .     A
O726   C738    1.285   .     A
O727   C737    1.280   .     A
O728   C738    1.290   .     A
O729   C735    1.272   .     A
O730   C736    1.267   .     A
O731   C733    1.268   .     A
O732   C734    1.284   .     A
C733   C756    1.439   .     S
C734   C755    1.465   .     S
C735   C759    1.433   .     S
C736   C758    1.466   .     S
C737   C741    1.454   .     S
C738   C753    1.473   .     S
C739   C752    1.388   .     A
C739   H769    1.084   .     S
H740   C752    1.084   .     S
C741   C752    1.396   .     A
C741   C751    1.394   .     A
C742   C753    1.402   .     A
C742   C743    1.384   .     A
C742   H771    1.084   .     S
C743   H772    1.083   .     S
C743   C159    1.388   1_556 S
C744   H754    1.076   .     S
C745   C746    1.428   .     A
C745   C159    1.418   1_556 S
C745   C162    1.425   1_556 S
C746   C753    1.422   .     A
C746   C750    1.425   .     A
C747   C751    1.414   .     A
C748   C749    1.391   .     A
C748   C162    1.421   1_556 S
C748   C154    1.401   1_556 S
C749   C750    1.392   .     A
C749   H768    1.086   .     S
C750   C773    1.513   .     S
C751   H770    1.077   .     S
C755   C626    1.343   1_655 S
C755   C647    1.517   1_655 S
H757   C626    1.086   1_655 S
C758   C954    1.361   .     S
C758   C955    1.522   .     S
C759   C1148   1.361   1_545 S
C759   C1154   1.515   1_545 S
C760   H762    1.111   .     S
C760   H763    1.111   .     S
C760   C1148   1.522   1_545 S
C760   H1151   1.109   1_545 S
H761   C955    1.109   .     S
C764   H767    1.110   .     S
C764   H766    1.111   .     S
C764   C954    1.515   .     S
C764   H960    1.112   .     S
H765   C1154   1.112   1_545 S
C773   H776    1.109   .     S
C773   H775    1.108   .     S
C773   H774    1.111   .     S
C777   H778    1.109   .     S
C777   H779    1.111   .     S
C777   H780    1.111   .     S
Zn781  O785    1.969   .     S
Zn781  O793    1.918   .     S
Zn781  O787    1.921   .     S
Zn781  O794    1.939   .     S
Zn782  O796    1.927   .     S
Zn782  O790    1.925   .     S
Zn782  O785    1.937   .     S
Zn782  O788    1.955   .     S
Zn783  O789    1.945   .     S
Zn783  O792    1.925   .     S
Zn783  O797    1.938   .     S
Zn783  O785    1.936   .     S
Zn784  O795    1.946   .     S
Zn784  O791    1.936   .     S
Zn784  O786    1.929   .     S
Zn784  O785    1.934   .     S
O786   C798    1.269   .     A
O787   C799    1.287   .     A
O788   C800    1.271   .     A
O789   C801    1.275   .     A
O790   C802    1.269   .     A
O791   C803    1.285   .     A
O792   C802    1.280   .     A
O793   C803    1.290   .     A
O794   C800    1.272   .     A
O795   C801    1.267   .     A
O796   C798    1.268   .     A
O797   C799    1.284   .     A
C798   C821    1.439   .     S
C799   C820    1.465   .     S
C800   C824    1.433   .     S
C801   C823    1.466   .     S
C802   C806    1.454   .     S
C803   C818    1.473   .     S
C804   C817    1.388   .     A
C804   H834    1.084   .     S
H805   C817    1.084   .     S
C806   C817    1.396   .     A
C806   C816    1.394   .     A
C807   C818    1.402   .     A
C807   C808    1.384   .     A
C807   H836    1.084   .     S
C808   H837    1.083   .     S
C808   C224    1.388   1_556 S
C809   H819    1.076   .     S
C810   C811    1.428   .     A
C810   C224    1.418   1_556 S
C810   C227    1.425   1_556 S
C811   C818    1.422   .     A
C811   C815    1.425   .     A
C812   C816    1.414   .     A
C813   C814    1.391   .     A
C813   C227    1.421   1_556 S
C813   C219    1.401   1_556 S
C814   C815    1.392   .     A
C814   H833    1.086   .     S
C815   C838    1.513   .     S
C816   H835    1.077   .     S
C820   C886    1.343   .     S
C820   C907    1.517   .     S
C821   C950    1.343   1_455 S
C821   H952    1.086   1_455 S
H822   C886    1.086   .     S
C823   C1019   1.361   .     S
C823   C1020   1.522   .     S
C825   H827    1.111   .     S
C825   H828    1.111   .     S
H826   C1020   1.109   .     S
C829   H832    1.110   .     S
C829   H831    1.111   .     S
C829   C1019   1.515   .     S
C829   H1025   1.112   .     S
C838   H841    1.109   .     S
C838   H840    1.108   .     S
C838   H839    1.111   .     S
C842   H843    1.109   .     S
C842   H844    1.111   .     S
C842   H845    1.111   .     S
C842   C950    1.517   1_455 S
Zn846  O850    1.969   .     S
Zn846  O858    1.918   .     S
Zn846  O852    1.921   .     S
Zn846  O859    1.939   .     S
Zn847  O861    1.927   .     S
Zn847  O855    1.925   .     S
Zn847  O850    1.937   .     S
Zn847  O853    1.955   .     S
Zn848  O854    1.945   .     S
Zn848  O857    1.925   .     S
Zn848  O862    1.938   .     S
Zn848  O850    1.936   .     S
Zn849  O860    1.946   .     S
Zn849  O856    1.936   .     S
Zn849  O851    1.929   .     S
Zn849  O850    1.934   .     S
O851   C863    1.269   .     A
O852   C864    1.287   .     A
O853   C865    1.271   .     A
O854   C866    1.275   .     A
O855   C867    1.269   .     A
O856   C868    1.285   .     A
O857   C867    1.280   .     A
O858   C868    1.290   .     A
O859   C865    1.272   .     A
O860   C866    1.267   .     A
O861   C863    1.268   .     A
O862   C864    1.284   .     A
C863   C886    1.439   .     S
C864   C885    1.465   .     S
C865   C889    1.433   .     S
C866   C888    1.466   .     S
C867   C871    1.454   .     S
C868   C883    1.473   .     S
C869   C882    1.388   .     A
C869   H899    1.084   .     S
H870   C882    1.084   .     S
C871   C882    1.396   .     A
C871   C881    1.394   .     A
C872   C883    1.402   .     A
C872   C873    1.384   .     A
C872   H901    1.084   .     S
C873   H902    1.083   .     S
C873   C289    1.388   1_556 S
C874   H884    1.076   .     S
C875   C876    1.428   .     A
C875   C289    1.418   1_556 S
C875   C292    1.425   1_556 S
C876   C883    1.422   .     A
C876   C880    1.425   .     A
C877   C881    1.414   .     A
C878   C879    1.391   .     A
C878   C292    1.421   1_556 S
C878   C284    1.401   1_556 S
C879   C880    1.392   .     A
C879   H898    1.086   .     S
C880   C903    1.513   .     S
C881   H900    1.077   .     S
C885   C951    1.343   .     S
C885   C972    1.517   .     S
H887   C951    1.086   .     S
C888   C1084   1.361   .     S
C888   C1085   1.522   .     S
C890   H892    1.111   .     S
C890   H893    1.111   .     S
H891   C1085   1.109   .     S
C894   H897    1.110   .     S
C894   H896    1.111   .     S
C894   C1084   1.515   .     S
C894   H1090   1.112   .     S
C903   H906    1.109   .     S
C903   H905    1.108   .     S
C903   H904    1.111   .     S
C907   H908    1.109   .     S
C907   H909    1.111   .     S
C907   H910    1.111   .     S
Zn911  O915    1.969   .     S
Zn911  O923    1.918   .     S
Zn911  O917    1.921   .     S
Zn911  O924    1.939   .     S
Zn912  O926    1.927   .     S
Zn912  O920    1.925   .     S
Zn912  O915    1.937   .     S
Zn912  O918    1.955   .     S
Zn913  O919    1.945   .     S
Zn913  O922    1.925   .     S
Zn913  O927    1.938   .     S
Zn913  O915    1.936   .     S
Zn914  O925    1.946   .     S
Zn914  O921    1.936   .     S
Zn914  O916    1.929   .     S
Zn914  O915    1.934   .     S
O916   C928    1.269   .     A
O917   C929    1.287   .     A
O918   C930    1.271   .     A
O919   C931    1.275   .     A
O920   C932    1.269   .     A
O921   C933    1.285   .     A
O922   C932    1.280   .     A
O923   C933    1.290   .     A
O924   C930    1.272   .     A
O925   C931    1.267   .     A
O926   C928    1.268   .     A
O927   C929    1.284   .     A
C928   C951    1.439   .     S
C929   C950    1.465   .     S
C930   C954    1.433   .     S
C931   C953    1.466   .     S
C932   C936    1.454   .     S
C933   C948    1.473   .     S
C934   C947    1.388   .     A
C934   H964    1.084   .     S
H935   C947    1.084   .     S
C936   C947    1.396   .     A
C936   C946    1.394   .     A
C937   C948    1.402   .     A
C937   C938    1.384   .     A
C937   H966    1.084   .     S
C938   H967    1.083   .     S
C938   C354    1.388   1_556 S
C939   H949    1.076   .     S
C940   C941    1.428   .     A
C940   C354    1.418   1_556 S
C940   C357    1.425   1_556 S
C941   C948    1.422   .     A
C941   C945    1.425   .     A
C942   C946    1.414   .     A
C943   C944    1.391   .     A
C943   C357    1.421   1_556 S
C943   C349    1.401   1_556 S
C944   C945    1.392   .     A
C944   H963    1.086   .     S
C945   C968    1.513   .     S
C946   H965    1.077   .     S
C950   C821    1.343   1_655 S
C950   C842    1.517   1_655 S
H952   C821    1.086   1_655 S
C953   C1149   1.361   .     S
C953   C1150   1.522   .     S
C955   H957    1.111   .     S
C955   H958    1.111   .     S
H956   C1150   1.109   .     S
C959   H962    1.110   .     S
C959   H961    1.111   .     S
C959   C1149   1.515   .     S
C959   H1155   1.112   .     S
C968   H971    1.109   .     S
C968   H970    1.108   .     S
C968   H969    1.111   .     S
C972   H973    1.109   .     S
C972   H974    1.111   .     S
C972   H975    1.111   .     S
Zn976  O980    1.969   .     S
Zn976  O988    1.918   .     S
Zn976  O982    1.921   .     S
Zn976  O989    1.939   .     S
Zn977  O991    1.927   .     S
Zn977  O985    1.925   .     S
Zn977  O980    1.937   .     S
Zn977  O983    1.955   .     S
Zn978  O984    1.945   .     S
Zn978  O987    1.925   .     S
Zn978  O992    1.938   .     S
Zn978  O980    1.936   .     S
Zn979  O990    1.946   .     S
Zn979  O986    1.936   .     S
Zn979  O981    1.929   .     S
Zn979  O980    1.934   .     S
O981   C993    1.269   .     A
O982   C994    1.287   .     A
O983   C995    1.271   .     A
O984   C996    1.275   .     A
O985   C997    1.269   .     A
O986   C998    1.285   .     A
O987   C997    1.280   .     A
O988   C998    1.290   .     A
O989   C995    1.272   .     A
O990   C996    1.267   .     A
O991   C993    1.268   .     A
O992   C994    1.284   .     A
C993   C1016   1.439   .     S
C994   C1015   1.465   .     S
C995   C1019   1.433   .     S
C996   C1018   1.466   .     S
C997   C1001   1.454   .     S
C998   C1013   1.473   .     S
C999   C1012   1.388   .     A
C999   H1029   1.084   .     S
H1000  C1012   1.084   .     S
C1001  C1012   1.396   .     A
C1001  C1011   1.394   .     A
C1002  C1013   1.402   .     A
C1002  C1003   1.384   .     A
C1002  H1031   1.084   .     S
C1003  H1032   1.083   .     S
C1003  C419    1.388   1_556 S
C1004  H1014   1.076   .     S
C1005  C1006   1.428   .     A
C1005  C419    1.418   1_556 S
C1005  C422    1.425   1_556 S
C1006  C1013   1.422   .     A
C1006  C1010   1.425   .     A
C1007  C1011   1.414   .     A
C1008  C1009   1.391   .     A
C1008  C422    1.421   1_556 S
C1008  C414    1.401   1_556 S
C1009  C1010   1.392   .     A
C1009  H1028   1.086   .     S
C1010  C1033   1.513   .     S
C1011  H1030   1.077   .     S
C1015  C1081   1.343   .     S
C1015  C1102   1.517   .     S
C1016  C1145   1.343   1_455 S
C1016  H1147   1.086   1_455 S
H1017  C1081   1.086   .     S
C1018  C629    1.361   1_565 S
C1018  C630    1.522   1_565 S
C1020  H1022   1.111   .     S
C1020  H1023   1.111   .     S
H1021  C630    1.109   1_565 S
C1024  H1027   1.110   .     S
C1024  H1026   1.111   .     S
C1024  C629    1.515   1_565 S
C1024  H635    1.112   1_565 S
C1033  H1036   1.109   .     S
C1033  H1035   1.108   .     S
C1033  H1034   1.111   .     S
C1037  H1038   1.109   .     S
C1037  H1039   1.111   .     S
C1037  H1040   1.111   .     S
C1037  C1145   1.517   1_455 S
Zn1041 O1045   1.969   .     S
Zn1041 O1053   1.918   .     S
Zn1041 O1047   1.921   .     S
Zn1041 O1054   1.939   .     S
Zn1042 O1056   1.927   .     S
Zn1042 O1050   1.925   .     S
Zn1042 O1045   1.937   .     S
Zn1042 O1048   1.955   .     S
Zn1043 O1049   1.945   .     S
Zn1043 O1052   1.925   .     S
Zn1043 O1057   1.938   .     S
Zn1043 O1045   1.936   .     S
Zn1044 O1055   1.946   .     S
Zn1044 O1051   1.936   .     S
Zn1044 O1046   1.929   .     S
Zn1044 O1045   1.934   .     S
O1046  C1058   1.269   .     A
O1047  C1059   1.287   .     A
O1048  C1060   1.271   .     A
O1049  C1061   1.275   .     A
O1050  C1062   1.269   .     A
O1051  C1063   1.285   .     A
O1052  C1062   1.280   .     A
O1053  C1063   1.290   .     A
O1054  C1060   1.272   .     A
O1055  C1061   1.267   .     A
O1056  C1058   1.268   .     A
O1057  C1059   1.284   .     A
C1058  C1081   1.439   .     S
C1059  C1080   1.465   .     S
C1060  C1084   1.433   .     S
C1061  C1083   1.466   .     S
C1062  C1066   1.454   .     S
C1063  C1078   1.473   .     S
C1064  C1077   1.388   .     A
C1064  H1094   1.084   .     S
H1065  C1077   1.084   .     S
C1066  C1077   1.396   .     A
C1066  C1076   1.394   .     A
C1067  C1078   1.402   .     A
C1067  C1068   1.384   .     A
C1067  H1096   1.084   .     S
C1068  H1097   1.083   .     S
C1068  C484    1.388   1_556 S
C1069  H1079   1.076   .     S
C1070  C1071   1.428   .     A
C1070  C484    1.418   1_556 S
C1070  C487    1.425   1_556 S
C1071  C1078   1.422   .     A
C1071  C1075   1.425   .     A
C1072  C1076   1.414   .     A
C1073  C1074   1.391   .     A
C1073  C487    1.421   1_556 S
C1073  C479    1.401   1_556 S
C1074  C1075   1.392   .     A
C1074  H1093   1.086   .     S
C1075  C1098   1.513   .     S
C1076  H1095   1.077   .     S
C1080  C1146   1.343   .     S
C1080  C1167   1.517   .     S
H1082  C1146   1.086   .     S
C1083  C694    1.361   1_565 S
C1083  C695    1.522   1_565 S
C1085  H1087   1.111   .     S
C1085  H1088   1.111   .     S
H1086  C695    1.109   1_565 S
C1089  H1092   1.110   .     S
C1089  H1091   1.111   .     S
C1089  C694    1.515   1_565 S
C1089  H700    1.112   1_565 S
C1098  H1101   1.109   .     S
C1098  H1100   1.108   .     S
C1098  H1099   1.111   .     S
C1102  H1103   1.109   .     S
C1102  H1104   1.111   .     S
C1102  H1105   1.111   .     S
Zn1106 O1110   1.969   .     S
Zn1106 O1118   1.918   .     S
Zn1106 O1112   1.921   .     S
Zn1106 O1119   1.939   .     S
Zn1107 O1121   1.927   .     S
Zn1107 O1115   1.925   .     S
Zn1107 O1110   1.937   .     S
Zn1107 O1113   1.955   .     S
Zn1108 O1114   1.945   .     S
Zn1108 O1117   1.925   .     S
Zn1108 O1122   1.938   .     S
Zn1108 O1110   1.936   .     S
Zn1109 O1120   1.946   .     S
Zn1109 O1116   1.936   .     S
Zn1109 O1111   1.929   .     S
Zn1109 O1110   1.934   .     S
O1111  C1123   1.269   .     A
O1112  C1124   1.287   .     A
O1113  C1125   1.271   .     A
O1114  C1126   1.275   .     A
O1115  C1127   1.269   .     A
O1116  C1128   1.285   .     A
O1117  C1127   1.280   .     A
O1118  C1128   1.290   .     A
O1119  C1125   1.272   .     A
O1120  C1126   1.267   .     A
O1121  C1123   1.268   .     A
O1122  C1124   1.284   .     A
C1123  C1146   1.439   .     S
C1124  C1145   1.465   .     S
C1125  C1149   1.433   .     S
C1126  C1148   1.466   .     S
C1127  C1131   1.454   .     S
C1128  C1143   1.473   .     S
C1129  C1142   1.388   .     A
C1129  H1159   1.084   .     S
H1130  C1142   1.084   .     S
C1131  C1142   1.396   .     A
C1131  C1141   1.394   .     A
C1132  C1143   1.402   .     A
C1132  C1133   1.384   .     A
C1132  H1161   1.084   .     S
C1133  H1162   1.083   .     S
C1133  C549    1.388   1_556 S
C1134  H1144   1.076   .     S
C1135  C1136   1.428   .     A
C1135  C549    1.418   1_556 S
C1135  C552    1.425   1_556 S
C1136  C1143   1.422   .     A
C1136  C1140   1.425   .     A
C1137  C1141   1.414   .     A
C1138  C1139   1.391   .     A
C1138  C552    1.421   1_556 S
C1138  C544    1.401   1_556 S
C1139  C1140   1.392   .     A
C1139  H1158   1.086   .     S
C1140  C1163   1.513   .     S
C1141  H1160   1.077   .     S
C1145  C1016   1.343   1_655 S
C1145  C1037   1.517   1_655 S
H1147  C1016   1.086   1_655 S
C1148  C759    1.361   1_565 S
C1148  C760    1.522   1_565 S
C1150  H1152   1.111   .     S
C1150  H1153   1.111   .     S
H1151  C760    1.109   1_565 S
C1154  H1157   1.110   .     S
C1154  H1156   1.111   .     S
C1154  C759    1.515   1_565 S
C1154  H765    1.112   1_565 S
C1163  H1166   1.109   .     S
C1163  H1165   1.108   .     S
C1163  H1164   1.111   .     S
C1167  H1168   1.109   .     S
C1167  H1169   1.111   .     S
C1167  H1170   1.111   .     S
