data_str_m1_o1_o17_pcu_sym.165
_audit_creation_date              2020-01-03
_audit_creation_method            'Materials Studio'
_symmetry_space_group_name_H-M    'P1'
_symmetry_Int_Tables_number       1
_symmetry_cell_setting            triclinic
loop_
_symmetry_equiv_pos_as_xyz
  x,y,z
_cell_length_a                    36.6493
_cell_length_b                    36.6497
_cell_length_c                    34.4833
_cell_angle_alpha                 90.0006
_cell_angle_beta                  89.9994
_cell_angle_gamma                 90.0539
loop_
_atom_site_label
_atom_site_type_symbol
_atom_site_fract_x
_atom_site_fract_y
_atom_site_fract_z
_atom_site_U_iso_or_equiv
_atom_site_adp_type
_atom_site_occupancy
C1     C     0.02547   0.27099   0.41798   0.00000  Uiso   1.00
C2     C     0.47318   0.23064   0.58171   0.00000  Uiso   1.00
C3     C     0.23229   0.47250   0.41833   0.00000  Uiso   1.00
C4     C     0.27149   0.02560   0.58203   0.00000  Uiso   1.00
C5     C     0.47459   0.22884   0.41797   0.00000  Uiso   1.00
C6     C     0.02690   0.26917   0.58171   0.00000  Uiso   1.00
C7     C     0.27121   0.02594   0.41815   0.00000  Uiso   1.00
C8     C     0.23097   0.47341   0.58173   0.00000  Uiso   1.00
C9     C     0.27693   0.01912   0.91829   0.00000  Uiso   1.00
C10    C     0.22459   0.47883   0.08203   0.00000  Uiso   1.00
C11    C     0.48099   0.22340   0.91827   0.00000  Uiso   1.00
C12    C     0.02120   0.27595   0.08185   0.00000  Uiso   1.00
C13    C     0.22319   0.48063   0.91829   0.00000  Uiso   1.00
C14    C     0.27551   0.02092   0.08201   0.00000  Uiso   1.00
C15    C     0.02149   0.27561   0.91797   0.00000  Uiso   1.00
C16    C     0.48231   0.22249   0.08167   0.00000  Uiso   1.00
C17    C     0.00001   0.24995   0.39809   0.00000  Uiso   1.00
C18    C     0.00002   0.24994   0.60170   0.00000  Uiso   1.00
C19    C     0.25101   0.49967   0.39828   0.00000  Uiso   1.00
C20    C     0.25061   0.49986   0.60181   0.00000  Uiso   1.00
C21    C     0.25002   0.49993   0.89831   0.00000  Uiso   1.00
C22    C     0.25001   0.49993   0.10191   0.00000  Uiso   1.00
C23    C     0.00062   0.24986   0.89820   0.00000  Uiso   1.00
C24    C     0.00101   0.24967   0.10172   0.00000  Uiso   1.00
C25    C     0.44661   0.20900   0.47943   0.00000  Uiso   1.00
C26    C     0.05274   0.29174   0.52019   0.00000  Uiso   1.00
C27    C     0.29388   0.05180   0.47971   0.00000  Uiso   1.00
C28    C     0.21548   0.44258   0.52048   0.00000  Uiso   1.00
C29    C     0.05363   0.29058   0.47942   0.00000  Uiso   1.00
C30    C     0.44754   0.20781   0.52020   0.00000  Uiso   1.00
C31    C     0.21596   0.44226   0.47968   0.00000  Uiso   1.00
C32    C     0.29228   0.05298   0.52049   0.00000  Uiso   1.00
C33    C     0.19754   0.45780   0.97980   0.00000  Uiso   1.00
C34    C     0.30378   0.04036   0.02059   0.00000  Uiso   1.00
C35    C     0.04227   0.30299   0.97951   0.00000  Uiso   1.00
C36    C     0.46600   0.19224   0.02032   0.00000  Uiso   1.00
C37    C     0.30290   0.04153   0.97982   0.00000  Uiso   1.00
C38    C     0.19661   0.45899   0.02057   0.00000  Uiso   1.00
C39    C     0.46553   0.19255   0.97951   0.00000  Uiso   1.00
C40    C     0.04387   0.30182   0.02029   0.00000  Uiso   1.00
C41    C     0.25004   0.49998   0.35590   0.00000  Uiso   1.00
C42    C     0.25000   0.49999   0.64414   0.00000  Uiso   1.00
C43    C    -0.00000   0.24999   0.35582   0.00000  Uiso   1.00
C44    C     0.00000   0.24999   0.64410   0.00000  Uiso   1.00
C45    C     0.00000   0.24999   0.85586   0.00000  Uiso   1.00
C46    C     0.00004   0.24998   0.14411   0.00000  Uiso   1.00
C47    C     0.25000   0.49999   0.85590   0.00000  Uiso   1.00
C48    C     0.25000   0.49999   0.14418   0.00000  Uiso   1.00
C49    C     0.17994   0.07006   0.25000   0.00000  Uiso   1.00
C50    C     0.32006   0.42994   0.75000   0.00000  Uiso   1.00
C51    C     0.42994   0.17994   0.25000   0.00000  Uiso   1.00
C52    C     0.07006   0.32005   0.75000   0.00000  Uiso   1.00
C53    C     0.32006   0.42994   0.25000   0.00000  Uiso   1.00
C54    C     0.17994   0.07006   0.75000   0.00000  Uiso   1.00
C55    C     0.07006   0.32006   0.25000   0.00000  Uiso   1.00
C56    C     0.42994   0.17994   0.75000   0.00000  Uiso   1.00
C57    C     0.17994   0.42994   0.75000   0.00000  Uiso   1.00
C58    C     0.32006   0.07006   0.25000   0.00000  Uiso   1.00
C59    C     0.42994   0.32006   0.75000   0.00000  Uiso   1.00
C60    C     0.07006   0.17994   0.25000   0.00000  Uiso   1.00
C61    C     0.32006   0.07005   0.75000   0.00000  Uiso   1.00
C62    C     0.17994   0.42994   0.25000   0.00000  Uiso   1.00
C63    C     0.07006   0.17994   0.75000   0.00000  Uiso   1.00
C64    C     0.42994   0.32006   0.25000   0.00000  Uiso   1.00
C65    C     0.12243   0.40431   0.22419   0.00000  Uiso   1.00
C66    C     0.37759   0.09567   0.77578   0.00000  Uiso   1.00
C67    C     0.09515   0.12188   0.22497   0.00000  Uiso   1.00
C68    C     0.40486   0.37813   0.77502   0.00000  Uiso   1.00
C69    C     0.37757   0.09568   0.22420   0.00000  Uiso   1.00
C70    C     0.12242   0.40433   0.77579   0.00000  Uiso   1.00
C71    C     0.40486   0.37813   0.22498   0.00000  Uiso   1.00
C72    C     0.09514   0.12188   0.77503   0.00000  Uiso   1.00
C73    C     0.12188   0.09515   0.77503   0.00000  Uiso   1.00
C74    C     0.37813   0.40486   0.22498   0.00000  Uiso   1.00
C75    C     0.09567   0.37758   0.77579   0.00000  Uiso   1.00
C76    C     0.40432   0.12243   0.22420   0.00000  Uiso   1.00
C77    C     0.37813   0.40486   0.77502   0.00000  Uiso   1.00
C78    C     0.12188   0.09515   0.22497   0.00000  Uiso   1.00
C79    C     0.40433   0.12241   0.77578   0.00000  Uiso   1.00
C80    C     0.09569   0.37757   0.22419   0.00000  Uiso   1.00
C81    C     0.37242   0.15433   0.72421   0.00000  Uiso   1.00
C82    C     0.12757   0.34568   0.27580   0.00000  Uiso   1.00
C83    C     0.34515   0.37188   0.72497   0.00000  Uiso   1.00
C84    C     0.15486   0.12813   0.27502   0.00000  Uiso   1.00
C85    C     0.12759   0.34567   0.72422   0.00000  Uiso   1.00
C86    C     0.37243   0.15431   0.27581   0.00000  Uiso   1.00
C87    C     0.15486   0.12813   0.72498   0.00000  Uiso   1.00
C88    C     0.34515   0.37188   0.27503   0.00000  Uiso   1.00
C89    C     0.37188   0.34515   0.27503   0.00000  Uiso   1.00
C90    C     0.12813   0.15486   0.72498   0.00000  Uiso   1.00
C91    C     0.34569   0.12757   0.27581   0.00000  Uiso   1.00
C92    C     0.15433   0.37241   0.72422   0.00000  Uiso   1.00
C93    C     0.12813   0.15486   0.27502   0.00000  Uiso   1.00
C94    C     0.37188   0.34515   0.72497   0.00000  Uiso   1.00
C95    C     0.15432   0.37243   0.27580   0.00000  Uiso   1.00
C96    C     0.34567   0.12758   0.72421   0.00000  Uiso   1.00
C97    C     0.47328   0.22931   0.45881   0.00000  Uiso   1.00
C98    C     0.02665   0.27068   0.54086   0.00000  Uiso   1.00
C99    C     0.27327   0.02538   0.45901   0.00000  Uiso   1.00
C100   C     0.23296   0.47121   0.54102   0.00000  Uiso   1.00
C101   C     0.02687   0.27039   0.45881   0.00000  Uiso   1.00
C102   C     0.47353   0.22900   0.54087   0.00000  Uiso   1.00
C103   C     0.23379   0.47066   0.45909   0.00000  Uiso   1.00
C104   C     0.27212   0.02619   0.54112   0.00000  Uiso   1.00
C105   C     0.22354   0.47897   0.95913   0.00000  Uiso   1.00
C106   C     0.27695   0.02027   0.04119   0.00000  Uiso   1.00
C107   C     0.02212   0.27619   0.95888   0.00000  Uiso   1.00
C108   C     0.48381   0.22065   0.04091   0.00000  Uiso   1.00
C109   C     0.27673   0.02057   0.95914   0.00000  Uiso   1.00
C110   C     0.22329   0.47928   0.04119   0.00000  Uiso   1.00
C111   C     0.48299   0.22120   0.95898   0.00000  Uiso   1.00
C112   C     0.02326   0.27539   0.04099   0.00000  Uiso   1.00
C113   C     0.09813   0.34812   0.25000   0.00000  Uiso   1.00
C114   C     0.40188   0.15187   0.75000   0.00000  Uiso   1.00
C115   C     0.15187   0.09813   0.25000   0.00000  Uiso   1.00
C116   C     0.34813   0.40187   0.75000   0.00000  Uiso   1.00
C117   C     0.40188   0.15187   0.25000   0.00000  Uiso   1.00
C118   C     0.09813   0.34812   0.75000   0.00000  Uiso   1.00
C119   C     0.34813   0.40187   0.25000   0.00000  Uiso   1.00
C120   C     0.15187   0.09813   0.75000   0.00000  Uiso   1.00
C121   C     0.09813   0.15187   0.75000   0.00000  Uiso   1.00
C122   C     0.40187   0.34813   0.25000   0.00000  Uiso   1.00
C123   C     0.15188   0.40187   0.75000   0.00000  Uiso   1.00
C124   C     0.34813   0.09812   0.25000   0.00000  Uiso   1.00
C125   C     0.40187   0.34813   0.75000   0.00000  Uiso   1.00
C126   C     0.09813   0.15187   0.25000   0.00000  Uiso   1.00
C127   C     0.34813   0.09812   0.75000   0.00000  Uiso   1.00
C128   C     0.15188   0.40187   0.25000   0.00000  Uiso   1.00
C129   C     0.00008   0.24984   0.47937   0.00000  Uiso   1.00
C130   C     0.00009   0.24984   0.52032   0.00000  Uiso   1.00
C131   C     0.25341   0.49812   0.47959   0.00000  Uiso   1.00
C132   C     0.25292   0.49846   0.52053   0.00000  Uiso   1.00
C133   C     0.25014   0.49976   0.97968   0.00000  Uiso   1.00
C134   C     0.25013   0.49976   0.02063   0.00000  Uiso   1.00
C135   C     0.00294   0.24845   0.97947   0.00000  Uiso   1.00
C136   C     0.00342   0.24812   0.02041   0.00000  Uiso   1.00
H137   H     0.12004   0.42681   0.20399   0.00000  Uiso   1.00
H138   H     0.37999   0.07316   0.79597   0.00000  Uiso   1.00
H139   H     0.07221   0.11903   0.20540   0.00000  Uiso   1.00
H140   H     0.42780   0.38098   0.79460   0.00000  Uiso   1.00
H141   H     0.37997   0.07318   0.20399   0.00000  Uiso   1.00
H142   H     0.12001   0.42684   0.79598   0.00000  Uiso   1.00
H143   H     0.42780   0.38098   0.20540   0.00000  Uiso   1.00
H144   H     0.07220   0.11902   0.79460   0.00000  Uiso   1.00
H145   H     0.11902   0.07221   0.79460   0.00000  Uiso   1.00
H146   H     0.38098   0.42780   0.20540   0.00000  Uiso   1.00
H147   H     0.07316   0.37998   0.79598   0.00000  Uiso   1.00
H148   H     0.42682   0.12003   0.20399   0.00000  Uiso   1.00
H149   H     0.38098   0.42780   0.79460   0.00000  Uiso   1.00
H150   H     0.11902   0.07221   0.20540   0.00000  Uiso   1.00
H151   H     0.42684   0.12001   0.79597   0.00000  Uiso   1.00
H152   H     0.07319   0.37996   0.20399   0.00000  Uiso   1.00
H153   H     0.37001   0.17684   0.70403   0.00000  Uiso   1.00
H154   H     0.12997   0.32318   0.29601   0.00000  Uiso   1.00
H155   H     0.32220   0.36902   0.70540   0.00000  Uiso   1.00
H156   H     0.17780   0.13098   0.29460   0.00000  Uiso   1.00
H157   H     0.12999   0.32316   0.70403   0.00000  Uiso   1.00
H158   H     0.37004   0.17681   0.29602   0.00000  Uiso   1.00
H159   H     0.17780   0.13098   0.70540   0.00000  Uiso   1.00
H160   H     0.32221   0.36903   0.29461   0.00000  Uiso   1.00
H161   H     0.36902   0.32221   0.29461   0.00000  Uiso   1.00
H162   H     0.13098   0.17780   0.70540   0.00000  Uiso   1.00
H163   H     0.32319   0.12996   0.29601   0.00000  Uiso   1.00
H164   H     0.17684   0.37001   0.70403   0.00000  Uiso   1.00
H165   H     0.13098   0.17780   0.29460   0.00000  Uiso   1.00
H166   H     0.36902   0.32220   0.70540   0.00000  Uiso   1.00
H167   H     0.17682   0.37003   0.29601   0.00000  Uiso   1.00
H168   H     0.32316   0.12999   0.70402   0.00000  Uiso   1.00
O169   O     0.25000  -0.00000   0.25000   0.00000  Uiso   1.00
O170   O     0.25000  -0.00000   0.75000   0.00000  Uiso   1.00
O171   O     0.00000   0.25000   0.25000   0.00000  Uiso   1.00
O172   O    -0.00000   0.25000   0.75000   0.00000  Uiso   1.00
O173   O     0.25000   0.46963   0.33755   0.00000  Uiso   1.00
O174   O     0.25000   0.03036   0.66245   0.00000  Uiso   1.00
O175   O     0.03036   0.25000   0.33755   0.00000  Uiso   1.00
O176   O     0.46963   0.25000   0.66245   0.00000  Uiso   1.00
O177   O     0.25000   0.03036   0.33755   0.00000  Uiso   1.00
O178   O     0.25000   0.46963   0.66245   0.00000  Uiso   1.00
O179   O     0.46963   0.25000   0.33755   0.00000  Uiso   1.00
O180   O     0.03036   0.25000   0.66245   0.00000  Uiso   1.00
O181   O     0.00000   0.21963   0.83755   0.00000  Uiso   1.00
O182   O    -0.00000   0.28036   0.16245   0.00000  Uiso   1.00
O183   O     0.28036  -0.00000   0.83755   0.00000  Uiso   1.00
O184   O     0.21963  -0.00000   0.16245   0.00000  Uiso   1.00
O185   O    -0.00000   0.28036   0.83755   0.00000  Uiso   1.00
O186   O     0.00000   0.21963   0.16245   0.00000  Uiso   1.00
O187   O     0.21963  -0.00000   0.83755   0.00000  Uiso   1.00
O188   O     0.28036  -0.00000   0.16245   0.00000  Uiso   1.00
O189   O     0.20724   0.07307   0.27302   0.00000  Uiso   1.00
O190   O     0.29275   0.42692   0.72698   0.00000  Uiso   1.00
O191   O     0.42692   0.20724   0.27302   0.00000  Uiso   1.00
O192   O     0.07307   0.29275   0.72698   0.00000  Uiso   1.00
O193   O     0.29275   0.42692   0.27302   0.00000  Uiso   1.00
O194   O     0.20724   0.07307   0.72698   0.00000  Uiso   1.00
O195   O     0.07307   0.29275   0.27302   0.00000  Uiso   1.00
O196   O     0.42692   0.20724   0.72698   0.00000  Uiso   1.00
O197   O     0.20724   0.42692   0.72698   0.00000  Uiso   1.00
O198   O     0.29275   0.07307   0.27302   0.00000  Uiso   1.00
O199   O     0.42692   0.29275   0.72698   0.00000  Uiso   1.00
O200   O     0.07307   0.20724   0.27302   0.00000  Uiso   1.00
O201   O     0.29275   0.07307   0.72698   0.00000  Uiso   1.00
O202   O     0.20724   0.42692   0.27302   0.00000  Uiso   1.00
O203   O     0.07307   0.20724   0.72698   0.00000  Uiso   1.00
O204   O     0.42692   0.29275   0.27302   0.00000  Uiso   1.00
O205   O     0.45724   0.32307   0.77302   0.00000  Uiso   1.00
O206   O     0.04275   0.17692   0.22698   0.00000  Uiso   1.00
O207   O     0.17692   0.45724   0.77302   0.00000  Uiso   1.00
O208   O     0.32307   0.04275   0.22698   0.00000  Uiso   1.00
O209   O     0.04275   0.17692   0.77302   0.00000  Uiso   1.00
O210   O     0.45724   0.32307   0.22698   0.00000  Uiso   1.00
O211   O     0.32307   0.04275   0.77302   0.00000  Uiso   1.00
O212   O     0.17692   0.45724   0.22698   0.00000  Uiso   1.00
O213   O     0.45724   0.17692   0.22698   0.00000  Uiso   1.00
O214   O     0.04275   0.32307   0.77302   0.00000  Uiso   1.00
O215   O     0.17692   0.04275   0.22698   0.00000  Uiso   1.00
O216   O     0.32307   0.45724   0.77302   0.00000  Uiso   1.00
O217   O     0.04275   0.32307   0.22698   0.00000  Uiso   1.00
O218   O     0.45724   0.17692   0.77302   0.00000  Uiso   1.00
O219   O     0.32307   0.45724   0.22698   0.00000  Uiso   1.00
O220   O     0.17692   0.04275   0.77302   0.00000  Uiso   1.00
Zn221  Zn    0.20659  -0.00000   0.21735   0.00000  Uiso   1.00
Zn222  Zn    0.29340  -0.00000   0.78265   0.00000  Uiso   1.00
Zn223  Zn    0.00000   0.20659   0.21735   0.00000  Uiso   1.00
Zn224  Zn    0.00000   0.29340   0.78265   0.00000  Uiso   1.00
Zn225  Zn    0.29340  -0.00000   0.21735   0.00000  Uiso   1.00
Zn226  Zn    0.20659  -0.00000   0.78265   0.00000  Uiso   1.00
Zn227  Zn    0.00000   0.29340   0.21735   0.00000  Uiso   1.00
Zn228  Zn    0.00000   0.20659   0.78265   0.00000  Uiso   1.00
Zn229  Zn    0.45659   0.25000   0.71735   0.00000  Uiso   1.00
Zn230  Zn    0.04340   0.25000   0.28265   0.00000  Uiso   1.00
Zn231  Zn    0.25000   0.45659   0.71735   0.00000  Uiso   1.00
Zn232  Zn    0.25000   0.04340   0.28265   0.00000  Uiso   1.00
Zn233  Zn    0.04340   0.25000   0.71735   0.00000  Uiso   1.00
Zn234  Zn    0.45659   0.25000   0.28265   0.00000  Uiso   1.00
Zn235  Zn    0.25000   0.04340   0.71735   0.00000  Uiso   1.00
Zn236  Zn    0.25000   0.45659   0.28265   0.00000  Uiso   1.00
C237   C     0.41684   0.18926   0.45894   0.00000  Uiso   1.00
O238   O     0.41555   0.15592   0.45990   0.00000  Uiso   1.00
O239   O     0.39015   0.20905   0.43906   0.00000  Uiso   1.00
H240   H     0.37127   0.19269   0.42640   0.00000  Uiso   1.00
C241   C     0.07937   0.31570   0.54044   0.00000  Uiso   1.00
O242   O     0.06875   0.34321   0.55702   0.00000  Uiso   1.00
O243   O     0.11652   0.30716   0.53956   0.00000  Uiso   1.00
H244   H     0.13196   0.32573   0.55393   0.00000  Uiso   1.00
C245   C     0.31775   0.07851   0.45945   0.00000  Uiso   1.00
O246   O     0.34504   0.06791   0.44243   0.00000  Uiso   1.00
O247   O     0.30942   0.11570   0.46080   0.00000  Uiso   1.00
H248   H     0.32795   0.13117   0.44640   0.00000  Uiso   1.00
C249   C     0.19915   0.41100   0.54124   0.00000  Uiso   1.00
O250   O     0.16612   0.40631   0.54080   0.00000  Uiso   1.00
O251   O     0.22177   0.38691   0.56144   0.00000  Uiso   1.00
H252   H     0.20758   0.36657   0.57451   0.00000  Uiso   1.00
C253   C     0.08349   0.31018   0.45892   0.00000  Uiso   1.00
O254   O     0.08499   0.34350   0.45997   0.00000  Uiso   1.00
O255   O     0.10998   0.29027   0.43886   0.00000  Uiso   1.00
H256   H     0.12894   0.30654   0.42620   0.00000  Uiso   1.00
C257   C     0.42110   0.18364   0.54047   0.00000  Uiso   1.00
O258   O     0.43198   0.15635   0.55726   0.00000  Uiso   1.00
O259   O     0.38385   0.19172   0.53935   0.00000  Uiso   1.00
H260   H     0.36858   0.17301   0.55372   0.00000  Uiso   1.00
C261   C     0.20021   0.41028   0.45908   0.00000  Uiso   1.00
O262   O     0.16721   0.40531   0.45902   0.00000  Uiso   1.00
O263   O     0.22335   0.38614   0.43960   0.00000  Uiso   1.00
H264   H     0.20954   0.36554   0.42657   0.00000  Uiso   1.00
C265   C     0.31153   0.08308   0.54092   0.00000  Uiso   1.00
O266   O     0.34488   0.08426   0.54094   0.00000  Uiso   1.00
O267   O     0.29129   0.11023   0.55954   0.00000  Uiso   1.00
H268   H     0.30736   0.12933   0.57226   0.00000  Uiso   1.00
C269   C     0.17109   0.43365   0.95953   0.00000  Uiso   1.00
O270   O     0.18195   0.40636   0.94271   0.00000  Uiso   1.00
O271   O     0.13384   0.44172   0.96067   0.00000  Uiso   1.00
H272   H     0.11856   0.42303   0.94630   0.00000  Uiso   1.00
C273   C     0.33375   0.05979   0.04109   0.00000  Uiso   1.00
O274   O     0.33551   0.09310   0.03993   0.00000  Uiso   1.00
O275   O     0.36006   0.03975   0.06125   0.00000  Uiso   1.00
H276   H     0.37912   0.05591   0.07388   0.00000  Uiso   1.00
C277   C     0.06151   0.33310   0.95908   0.00000  Uiso   1.00
O278   O     0.09486   0.33428   0.95906   0.00000  Uiso   1.00
O279   O     0.04127   0.36025   0.94047   0.00000  Uiso   1.00
H280   H     0.05733   0.37935   0.92775   0.00000  Uiso   1.00
C281   C     0.45024   0.16027   0.04092   0.00000  Uiso   1.00
O282   O     0.41723   0.15536   0.04106   0.00000  Uiso   1.00
O283   O     0.47337   0.13608   0.06031   0.00000  Uiso   1.00
H284   H     0.45955   0.11548   0.07336   0.00000  Uiso   1.00
C285   C     0.32966   0.06533   0.95957   0.00000  Uiso   1.00
O286   O     0.31923   0.09301   0.94318   0.00000  Uiso   1.00
O287   O     0.36674   0.05644   0.96025   0.00000  Uiso   1.00
H288   H     0.38229   0.07494   0.94591   0.00000  Uiso   1.00
C289   C     0.16682   0.43928   0.04105   0.00000  Uiso   1.00
O290   O     0.16552   0.40594   0.04011   0.00000  Uiso   1.00
O291   O     0.14013   0.45909   0.06092   0.00000  Uiso   1.00
H292   H     0.12124   0.44274   0.07357   0.00000  Uiso   1.00
C293   C     0.44926   0.16094   0.95875   0.00000  Uiso   1.00
O294   O     0.41625   0.15613   0.95928   0.00000  Uiso   1.00
O295   O     0.47192   0.13694   0.93846   0.00000  Uiso   1.00
H296   H     0.45777   0.11658   0.92540   0.00000  Uiso   1.00
C297   C     0.06773   0.32854   0.04055   0.00000  Uiso   1.00
O298   O     0.09501   0.31795   0.05757   0.00000  Uiso   1.00
O299   O     0.05938   0.36573   0.03920   0.00000  Uiso   1.00
H300   H     0.07789   0.38120   0.05360   0.00000  Uiso   1.00
F301   F     0.04747   0.29323   0.39678   0.00000  Uiso   1.00
F302   F     0.44701   0.21345   0.60285   0.00000  Uiso   1.00
F303   F     0.21077   0.44947   0.39750   0.00000  Uiso   1.00
F304   F     0.29231   0.04878   0.60344   0.00000  Uiso   1.00
F305   F     0.45253   0.20668   0.39673   0.00000  Uiso   1.00
F306   F     0.05299   0.28647   0.60286   0.00000  Uiso   1.00
F307   F     0.28815   0.05220   0.39694   0.00000  Uiso   1.00
F308   F     0.20878   0.45098   0.60252   0.00000  Uiso   1.00
F309   F     0.30298   0.03647   0.89713   0.00000  Uiso   1.00
F310   F     0.20249   0.45672   0.10327   0.00000  Uiso   1.00
F311   F     0.45879   0.20098   0.89749   0.00000  Uiso   1.00
F312   F     0.03813   0.30223   0.10306   0.00000  Uiso   1.00
F313   F     0.19699   0.46348   0.89715   0.00000  Uiso   1.00
F314   F     0.29751   0.04318   0.10321   0.00000  Uiso   1.00
F315   F     0.04229   0.29879   0.89656   0.00000  Uiso   1.00
F316   F     0.46081   0.19943   0.10250   0.00000  Uiso   1.00
C317   C     0.52547   0.27099   0.41798   0.00000  Uiso   1.00
C318   C     0.97318   0.23064   0.58171   0.00000  Uiso   1.00
C319   C     0.73229   0.47250   0.41833   0.00000  Uiso   1.00
C320   C     0.77149   0.02560   0.58203   0.00000  Uiso   1.00
C321   C     0.97459   0.22884   0.41797   0.00000  Uiso   1.00
C322   C     0.52690   0.26917   0.58171   0.00000  Uiso   1.00
C323   C     0.77121   0.02594   0.41815   0.00000  Uiso   1.00
C324   C     0.73097   0.47341   0.58173   0.00000  Uiso   1.00
C325   C     0.77693   0.01912   0.91829   0.00000  Uiso   1.00
C326   C     0.72459   0.47883   0.08203   0.00000  Uiso   1.00
C327   C     0.98099   0.22340   0.91827   0.00000  Uiso   1.00
C328   C     0.52120   0.27595   0.08185   0.00000  Uiso   1.00
C329   C     0.72319   0.48063   0.91829   0.00000  Uiso   1.00
C330   C     0.77551   0.02092   0.08201   0.00000  Uiso   1.00
C331   C     0.52149   0.27561   0.91797   0.00000  Uiso   1.00
C332   C     0.98231   0.22249   0.08167   0.00000  Uiso   1.00
C333   C     0.50001   0.24995   0.39809   0.00000  Uiso   1.00
C334   C     0.50002   0.24994   0.60170   0.00000  Uiso   1.00
C335   C     0.75101   0.49967   0.39828   0.00000  Uiso   1.00
C336   C     0.75061   0.49986   0.60181   0.00000  Uiso   1.00
C337   C     0.75002   0.49993   0.89831   0.00000  Uiso   1.00
C338   C     0.75001   0.49993   0.10191   0.00000  Uiso   1.00
C339   C     0.50062   0.24986   0.89820   0.00000  Uiso   1.00
C340   C     0.50101   0.24967   0.10172   0.00000  Uiso   1.00
C341   C     0.94661   0.20900   0.47943   0.00000  Uiso   1.00
C342   C     0.55274   0.29174   0.52019   0.00000  Uiso   1.00
C343   C     0.79388   0.05180   0.47971   0.00000  Uiso   1.00
C344   C     0.71548   0.44258   0.52048   0.00000  Uiso   1.00
C345   C     0.55363   0.29058   0.47942   0.00000  Uiso   1.00
C346   C     0.94754   0.20781   0.52020   0.00000  Uiso   1.00
C347   C     0.71596   0.44226   0.47968   0.00000  Uiso   1.00
C348   C     0.79228   0.05298   0.52049   0.00000  Uiso   1.00
C349   C     0.69754   0.45780   0.97980   0.00000  Uiso   1.00
C350   C     0.80378   0.04036   0.02059   0.00000  Uiso   1.00
C351   C     0.54227   0.30299   0.97951   0.00000  Uiso   1.00
C352   C     0.96600   0.19224   0.02032   0.00000  Uiso   1.00
C353   C     0.80290   0.04153   0.97982   0.00000  Uiso   1.00
C354   C     0.69661   0.45899   0.02057   0.00000  Uiso   1.00
C355   C     0.96553   0.19255   0.97951   0.00000  Uiso   1.00
C356   C     0.54387   0.30182   0.02029   0.00000  Uiso   1.00
C357   C     0.75004   0.49998   0.35590   0.00000  Uiso   1.00
C358   C     0.75000   0.49999   0.64414   0.00000  Uiso   1.00
C359   C     0.50000   0.24999   0.35582   0.00000  Uiso   1.00
C360   C     0.50000   0.24999   0.64410   0.00000  Uiso   1.00
C361   C     0.50000   0.24999   0.85586   0.00000  Uiso   1.00
C362   C     0.50004   0.24998   0.14411   0.00000  Uiso   1.00
C363   C     0.75000   0.49999   0.85590   0.00000  Uiso   1.00
C364   C     0.75000   0.49999   0.14418   0.00000  Uiso   1.00
C365   C     0.67994   0.07006   0.25000   0.00000  Uiso   1.00
C366   C     0.82006   0.42994   0.75000   0.00000  Uiso   1.00
C367   C     0.92994   0.17994   0.25000   0.00000  Uiso   1.00
C368   C     0.57006   0.32005   0.75000   0.00000  Uiso   1.00
C369   C     0.82006   0.42994   0.25000   0.00000  Uiso   1.00
C370   C     0.67994   0.07006   0.75000   0.00000  Uiso   1.00
C371   C     0.57006   0.32006   0.25000   0.00000  Uiso   1.00
C372   C     0.92994   0.17994   0.75000   0.00000  Uiso   1.00
C373   C     0.67994   0.42994   0.75000   0.00000  Uiso   1.00
C374   C     0.82006   0.07006   0.25000   0.00000  Uiso   1.00
C375   C     0.92994   0.32006   0.75000   0.00000  Uiso   1.00
C376   C     0.57006   0.17994   0.25000   0.00000  Uiso   1.00
C377   C     0.82006   0.07005   0.75000   0.00000  Uiso   1.00
C378   C     0.67994   0.42994   0.25000   0.00000  Uiso   1.00
C379   C     0.57006   0.17994   0.75000   0.00000  Uiso   1.00
C380   C     0.92994   0.32006   0.25000   0.00000  Uiso   1.00
C381   C     0.62243   0.40431   0.22419   0.00000  Uiso   1.00
C382   C     0.87759   0.09567   0.77578   0.00000  Uiso   1.00
C383   C     0.59515   0.12188   0.22497   0.00000  Uiso   1.00
C384   C     0.90486   0.37813   0.77502   0.00000  Uiso   1.00
C385   C     0.87757   0.09568   0.22420   0.00000  Uiso   1.00
C386   C     0.62242   0.40433   0.77579   0.00000  Uiso   1.00
C387   C     0.90486   0.37813   0.22498   0.00000  Uiso   1.00
C388   C     0.59514   0.12188   0.77503   0.00000  Uiso   1.00
C389   C     0.62188   0.09515   0.77503   0.00000  Uiso   1.00
C390   C     0.87813   0.40486   0.22498   0.00000  Uiso   1.00
C391   C     0.59567   0.37758   0.77579   0.00000  Uiso   1.00
C392   C     0.90432   0.12243   0.22420   0.00000  Uiso   1.00
C393   C     0.87813   0.40486   0.77502   0.00000  Uiso   1.00
C394   C     0.62188   0.09515   0.22497   0.00000  Uiso   1.00
C395   C     0.90433   0.12241   0.77578   0.00000  Uiso   1.00
C396   C     0.59569   0.37757   0.22419   0.00000  Uiso   1.00
C397   C     0.87242   0.15433   0.72421   0.00000  Uiso   1.00
C398   C     0.62757   0.34568   0.27580   0.00000  Uiso   1.00
C399   C     0.84515   0.37188   0.72497   0.00000  Uiso   1.00
C400   C     0.65486   0.12813   0.27502   0.00000  Uiso   1.00
C401   C     0.62759   0.34567   0.72422   0.00000  Uiso   1.00
C402   C     0.87243   0.15431   0.27581   0.00000  Uiso   1.00
C403   C     0.65486   0.12813   0.72498   0.00000  Uiso   1.00
C404   C     0.84515   0.37188   0.27503   0.00000  Uiso   1.00
C405   C     0.87188   0.34515   0.27503   0.00000  Uiso   1.00
C406   C     0.62813   0.15486   0.72498   0.00000  Uiso   1.00
C407   C     0.84569   0.12757   0.27581   0.00000  Uiso   1.00
C408   C     0.65433   0.37241   0.72422   0.00000  Uiso   1.00
C409   C     0.62813   0.15486   0.27502   0.00000  Uiso   1.00
C410   C     0.87188   0.34515   0.72497   0.00000  Uiso   1.00
C411   C     0.65432   0.37243   0.27580   0.00000  Uiso   1.00
C412   C     0.84567   0.12758   0.72421   0.00000  Uiso   1.00
C413   C     0.97328   0.22931   0.45881   0.00000  Uiso   1.00
C414   C     0.52665   0.27068   0.54086   0.00000  Uiso   1.00
C415   C     0.77327   0.02538   0.45901   0.00000  Uiso   1.00
C416   C     0.73296   0.47121   0.54102   0.00000  Uiso   1.00
C417   C     0.52687   0.27039   0.45881   0.00000  Uiso   1.00
C418   C     0.97353   0.22900   0.54087   0.00000  Uiso   1.00
C419   C     0.73379   0.47066   0.45909   0.00000  Uiso   1.00
C420   C     0.77212   0.02619   0.54112   0.00000  Uiso   1.00
C421   C     0.72354   0.47897   0.95913   0.00000  Uiso   1.00
C422   C     0.77695   0.02027   0.04119   0.00000  Uiso   1.00
C423   C     0.52212   0.27619   0.95888   0.00000  Uiso   1.00
C424   C     0.98381   0.22065   0.04091   0.00000  Uiso   1.00
C425   C     0.77673   0.02057   0.95914   0.00000  Uiso   1.00
C426   C     0.72329   0.47928   0.04119   0.00000  Uiso   1.00
C427   C     0.98299   0.22120   0.95898   0.00000  Uiso   1.00
C428   C     0.52326   0.27539   0.04099   0.00000  Uiso   1.00
C429   C     0.59813   0.34812   0.25000   0.00000  Uiso   1.00
C430   C     0.90188   0.15187   0.75000   0.00000  Uiso   1.00
C431   C     0.65187   0.09813   0.25000   0.00000  Uiso   1.00
C432   C     0.84813   0.40187   0.75000   0.00000  Uiso   1.00
C433   C     0.90188   0.15187   0.25000   0.00000  Uiso   1.00
C434   C     0.59813   0.34812   0.75000   0.00000  Uiso   1.00
C435   C     0.84813   0.40187   0.25000   0.00000  Uiso   1.00
C436   C     0.65187   0.09813   0.75000   0.00000  Uiso   1.00
C437   C     0.59813   0.15187   0.75000   0.00000  Uiso   1.00
C438   C     0.90187   0.34813   0.25000   0.00000  Uiso   1.00
C439   C     0.65188   0.40187   0.75000   0.00000  Uiso   1.00
C440   C     0.84813   0.09812   0.25000   0.00000  Uiso   1.00
C441   C     0.90187   0.34813   0.75000   0.00000  Uiso   1.00
C442   C     0.59813   0.15187   0.25000   0.00000  Uiso   1.00
C443   C     0.84813   0.09812   0.75000   0.00000  Uiso   1.00
C444   C     0.65188   0.40187   0.25000   0.00000  Uiso   1.00
C445   C     0.50008   0.24984   0.47937   0.00000  Uiso   1.00
C446   C     0.50009   0.24984   0.52032   0.00000  Uiso   1.00
C447   C     0.75341   0.49812   0.47959   0.00000  Uiso   1.00
C448   C     0.75292   0.49846   0.52053   0.00000  Uiso   1.00
C449   C     0.75014   0.49976   0.97968   0.00000  Uiso   1.00
C450   C     0.75013   0.49976   0.02063   0.00000  Uiso   1.00
C451   C     0.50294   0.24845   0.97947   0.00000  Uiso   1.00
C452   C     0.50342   0.24812   0.02041   0.00000  Uiso   1.00
H453   H     0.62004   0.42681   0.20399   0.00000  Uiso   1.00
H454   H     0.87999   0.07316   0.79597   0.00000  Uiso   1.00
H455   H     0.57221   0.11903   0.20540   0.00000  Uiso   1.00
H456   H     0.92780   0.38098   0.79460   0.00000  Uiso   1.00
H457   H     0.87997   0.07318   0.20399   0.00000  Uiso   1.00
H458   H     0.62001   0.42684   0.79598   0.00000  Uiso   1.00
H459   H     0.92780   0.38098   0.20540   0.00000  Uiso   1.00
H460   H     0.57220   0.11902   0.79460   0.00000  Uiso   1.00
H461   H     0.61902   0.07221   0.79460   0.00000  Uiso   1.00
H462   H     0.88098   0.42780   0.20540   0.00000  Uiso   1.00
H463   H     0.57316   0.37998   0.79598   0.00000  Uiso   1.00
H464   H     0.92682   0.12003   0.20399   0.00000  Uiso   1.00
H465   H     0.88098   0.42780   0.79460   0.00000  Uiso   1.00
H466   H     0.61902   0.07221   0.20540   0.00000  Uiso   1.00
H467   H     0.92684   0.12001   0.79597   0.00000  Uiso   1.00
H468   H     0.57319   0.37996   0.20399   0.00000  Uiso   1.00
H469   H     0.87001   0.17684   0.70403   0.00000  Uiso   1.00
H470   H     0.62997   0.32318   0.29601   0.00000  Uiso   1.00
H471   H     0.82220   0.36902   0.70540   0.00000  Uiso   1.00
H472   H     0.67780   0.13098   0.29460   0.00000  Uiso   1.00
H473   H     0.62999   0.32316   0.70403   0.00000  Uiso   1.00
H474   H     0.87004   0.17681   0.29602   0.00000  Uiso   1.00
H475   H     0.67780   0.13098   0.70540   0.00000  Uiso   1.00
H476   H     0.82221   0.36903   0.29461   0.00000  Uiso   1.00
H477   H     0.86902   0.32221   0.29461   0.00000  Uiso   1.00
H478   H     0.63098   0.17780   0.70540   0.00000  Uiso   1.00
H479   H     0.82319   0.12996   0.29601   0.00000  Uiso   1.00
H480   H     0.67684   0.37001   0.70403   0.00000  Uiso   1.00
H481   H     0.63098   0.17780   0.29460   0.00000  Uiso   1.00
H482   H     0.86902   0.32220   0.70540   0.00000  Uiso   1.00
H483   H     0.67682   0.37003   0.29601   0.00000  Uiso   1.00
H484   H     0.82316   0.12999   0.70402   0.00000  Uiso   1.00
O485   O     0.75000  -0.00000   0.25000   0.00000  Uiso   1.00
O486   O     0.75000  -0.00000   0.75000   0.00000  Uiso   1.00
O487   O     0.50000   0.25000   0.25000   0.00000  Uiso   1.00
O488   O     0.50000   0.25000   0.75000   0.00000  Uiso   1.00
O489   O     0.75000   0.46963   0.33755   0.00000  Uiso   1.00
O490   O     0.75000   0.03036   0.66245   0.00000  Uiso   1.00
O491   O     0.53036   0.25000   0.33755   0.00000  Uiso   1.00
O492   O     0.96963   0.25000   0.66245   0.00000  Uiso   1.00
O493   O     0.75000   0.03036   0.33755   0.00000  Uiso   1.00
O494   O     0.75000   0.46963   0.66245   0.00000  Uiso   1.00
O495   O     0.96963   0.25000   0.33755   0.00000  Uiso   1.00
O496   O     0.53036   0.25000   0.66245   0.00000  Uiso   1.00
O497   O     0.50000   0.21963   0.83755   0.00000  Uiso   1.00
O498   O     0.50000   0.28036   0.16245   0.00000  Uiso   1.00
O499   O     0.78036  -0.00000   0.83755   0.00000  Uiso   1.00
O500   O     0.71963  -0.00000   0.16245   0.00000  Uiso   1.00
O501   O     0.50000   0.28036   0.83755   0.00000  Uiso   1.00
O502   O     0.50000   0.21963   0.16245   0.00000  Uiso   1.00
O503   O     0.71963  -0.00000   0.83755   0.00000  Uiso   1.00
O504   O     0.78036  -0.00000   0.16245   0.00000  Uiso   1.00
O505   O     0.70724   0.07307   0.27302   0.00000  Uiso   1.00
O506   O     0.79275   0.42692   0.72698   0.00000  Uiso   1.00
O507   O     0.92692   0.20724   0.27302   0.00000  Uiso   1.00
O508   O     0.57307   0.29275   0.72698   0.00000  Uiso   1.00
O509   O     0.79275   0.42692   0.27302   0.00000  Uiso   1.00
O510   O     0.70724   0.07307   0.72698   0.00000  Uiso   1.00
O511   O     0.57307   0.29275   0.27302   0.00000  Uiso   1.00
O512   O     0.92692   0.20724   0.72698   0.00000  Uiso   1.00
O513   O     0.70724   0.42692   0.72698   0.00000  Uiso   1.00
O514   O     0.79275   0.07307   0.27302   0.00000  Uiso   1.00
O515   O     0.92692   0.29275   0.72698   0.00000  Uiso   1.00
O516   O     0.57307   0.20724   0.27302   0.00000  Uiso   1.00
O517   O     0.79275   0.07307   0.72698   0.00000  Uiso   1.00
O518   O     0.70724   0.42692   0.27302   0.00000  Uiso   1.00
O519   O     0.57307   0.20724   0.72698   0.00000  Uiso   1.00
O520   O     0.92692   0.29275   0.27302   0.00000  Uiso   1.00
O521   O     0.95724   0.32307   0.77302   0.00000  Uiso   1.00
O522   O     0.54275   0.17692   0.22698   0.00000  Uiso   1.00
O523   O     0.67692   0.45724   0.77302   0.00000  Uiso   1.00
O524   O     0.82307   0.04275   0.22698   0.00000  Uiso   1.00
O525   O     0.54275   0.17692   0.77302   0.00000  Uiso   1.00
O526   O     0.95724   0.32307   0.22698   0.00000  Uiso   1.00
O527   O     0.82307   0.04275   0.77302   0.00000  Uiso   1.00
O528   O     0.67692   0.45724   0.22698   0.00000  Uiso   1.00
O529   O     0.95724   0.17692   0.22698   0.00000  Uiso   1.00
O530   O     0.54275   0.32307   0.77302   0.00000  Uiso   1.00
O531   O     0.67692   0.04275   0.22698   0.00000  Uiso   1.00
O532   O     0.82307   0.45724   0.77302   0.00000  Uiso   1.00
O533   O     0.54275   0.32307   0.22698   0.00000  Uiso   1.00
O534   O     0.95724   0.17692   0.77302   0.00000  Uiso   1.00
O535   O     0.82307   0.45724   0.22698   0.00000  Uiso   1.00
O536   O     0.67692   0.04275   0.77302   0.00000  Uiso   1.00
Zn537  Zn    0.70659  -0.00000   0.21735   0.00000  Uiso   1.00
Zn538  Zn    0.79340  -0.00000   0.78265   0.00000  Uiso   1.00
Zn539  Zn    0.50000   0.20659   0.21735   0.00000  Uiso   1.00
Zn540  Zn    0.50000   0.29340   0.78265   0.00000  Uiso   1.00
Zn541  Zn    0.79340  -0.00000   0.21735   0.00000  Uiso   1.00
Zn542  Zn    0.70659  -0.00000   0.78265   0.00000  Uiso   1.00
Zn543  Zn    0.50000   0.29340   0.21735   0.00000  Uiso   1.00
Zn544  Zn    0.50000   0.20659   0.78265   0.00000  Uiso   1.00
Zn545  Zn    0.95659   0.25000   0.71735   0.00000  Uiso   1.00
Zn546  Zn    0.54340   0.25000   0.28265   0.00000  Uiso   1.00
Zn547  Zn    0.75000   0.45659   0.71735   0.00000  Uiso   1.00
Zn548  Zn    0.75000   0.04340   0.28265   0.00000  Uiso   1.00
Zn549  Zn    0.54340   0.25000   0.71735   0.00000  Uiso   1.00
Zn550  Zn    0.95659   0.25000   0.28265   0.00000  Uiso   1.00
Zn551  Zn    0.75000   0.04340   0.71735   0.00000  Uiso   1.00
Zn552  Zn    0.75000   0.45659   0.28265   0.00000  Uiso   1.00
C553   C     0.91684   0.18926   0.45894   0.00000  Uiso   1.00
O554   O     0.91555   0.15592   0.45990   0.00000  Uiso   1.00
O555   O     0.89015   0.20905   0.43906   0.00000  Uiso   1.00
H556   H     0.87127   0.19269   0.42640   0.00000  Uiso   1.00
C557   C     0.57937   0.31570   0.54044   0.00000  Uiso   1.00
O558   O     0.56875   0.34321   0.55702   0.00000  Uiso   1.00
O559   O     0.61652   0.30716   0.53956   0.00000  Uiso   1.00
H560   H     0.63196   0.32573   0.55393   0.00000  Uiso   1.00
C561   C     0.81775   0.07851   0.45945   0.00000  Uiso   1.00
O562   O     0.84504   0.06791   0.44243   0.00000  Uiso   1.00
O563   O     0.80942   0.11570   0.46080   0.00000  Uiso   1.00
H564   H     0.82795   0.13117   0.44640   0.00000  Uiso   1.00
C565   C     0.69915   0.41100   0.54124   0.00000  Uiso   1.00
O566   O     0.66612   0.40631   0.54080   0.00000  Uiso   1.00
O567   O     0.72177   0.38691   0.56144   0.00000  Uiso   1.00
H568   H     0.70758   0.36657   0.57451   0.00000  Uiso   1.00
C569   C     0.58349   0.31018   0.45892   0.00000  Uiso   1.00
O570   O     0.58499   0.34350   0.45997   0.00000  Uiso   1.00
O571   O     0.60998   0.29027   0.43886   0.00000  Uiso   1.00
H572   H     0.62894   0.30654   0.42620   0.00000  Uiso   1.00
C573   C     0.92110   0.18364   0.54047   0.00000  Uiso   1.00
O574   O     0.93198   0.15635   0.55726   0.00000  Uiso   1.00
O575   O     0.88385   0.19172   0.53935   0.00000  Uiso   1.00
H576   H     0.86858   0.17301   0.55372   0.00000  Uiso   1.00
C577   C     0.70021   0.41028   0.45908   0.00000  Uiso   1.00
O578   O     0.66721   0.40531   0.45902   0.00000  Uiso   1.00
O579   O     0.72335   0.38614   0.43960   0.00000  Uiso   1.00
H580   H     0.70954   0.36554   0.42657   0.00000  Uiso   1.00
C581   C     0.81153   0.08308   0.54092   0.00000  Uiso   1.00
O582   O     0.84488   0.08426   0.54094   0.00000  Uiso   1.00
O583   O     0.79129   0.11023   0.55954   0.00000  Uiso   1.00
H584   H     0.80736   0.12933   0.57226   0.00000  Uiso   1.00
C585   C     0.67109   0.43365   0.95953   0.00000  Uiso   1.00
O586   O     0.68195   0.40636   0.94271   0.00000  Uiso   1.00
O587   O     0.63384   0.44172   0.96067   0.00000  Uiso   1.00
H588   H     0.61856   0.42303   0.94630   0.00000  Uiso   1.00
C589   C     0.83375   0.05979   0.04109   0.00000  Uiso   1.00
O590   O     0.83551   0.09310   0.03993   0.00000  Uiso   1.00
O591   O     0.86006   0.03975   0.06125   0.00000  Uiso   1.00
H592   H     0.87912   0.05591   0.07388   0.00000  Uiso   1.00
C593   C     0.56151   0.33310   0.95908   0.00000  Uiso   1.00
O594   O     0.59486   0.33428   0.95906   0.00000  Uiso   1.00
O595   O     0.54127   0.36025   0.94047   0.00000  Uiso   1.00
H596   H     0.55733   0.37935   0.92775   0.00000  Uiso   1.00
C597   C     0.95024   0.16027   0.04092   0.00000  Uiso   1.00
O598   O     0.91723   0.15536   0.04106   0.00000  Uiso   1.00
O599   O     0.97337   0.13608   0.06031   0.00000  Uiso   1.00
H600   H     0.95955   0.11548   0.07336   0.00000  Uiso   1.00
C601   C     0.82966   0.06533   0.95957   0.00000  Uiso   1.00
O602   O     0.81923   0.09301   0.94318   0.00000  Uiso   1.00
O603   O     0.86674   0.05644   0.96025   0.00000  Uiso   1.00
H604   H     0.88229   0.07494   0.94591   0.00000  Uiso   1.00
C605   C     0.66682   0.43928   0.04105   0.00000  Uiso   1.00
O606   O     0.66552   0.40594   0.04011   0.00000  Uiso   1.00
O607   O     0.64013   0.45909   0.06092   0.00000  Uiso   1.00
H608   H     0.62124   0.44274   0.07357   0.00000  Uiso   1.00
C609   C     0.94926   0.16094   0.95875   0.00000  Uiso   1.00
O610   O     0.91625   0.15613   0.95928   0.00000  Uiso   1.00
O611   O     0.97192   0.13694   0.93846   0.00000  Uiso   1.00
H612   H     0.95777   0.11658   0.92540   0.00000  Uiso   1.00
C613   C     0.56773   0.32854   0.04055   0.00000  Uiso   1.00
O614   O     0.59501   0.31795   0.05757   0.00000  Uiso   1.00
O615   O     0.55938   0.36573   0.03920   0.00000  Uiso   1.00
H616   H     0.57789   0.38120   0.05360   0.00000  Uiso   1.00
F617   F     0.54747   0.29323   0.39678   0.00000  Uiso   1.00
F618   F     0.94701   0.21345   0.60285   0.00000  Uiso   1.00
F619   F     0.71077   0.44947   0.39750   0.00000  Uiso   1.00
F620   F     0.79231   0.04878   0.60344   0.00000  Uiso   1.00
F621   F     0.95253   0.20668   0.39673   0.00000  Uiso   1.00
F622   F     0.55299   0.28647   0.60286   0.00000  Uiso   1.00
F623   F     0.78815   0.05220   0.39694   0.00000  Uiso   1.00
F624   F     0.70878   0.45098   0.60252   0.00000  Uiso   1.00
F625   F     0.80298   0.03647   0.89713   0.00000  Uiso   1.00
F626   F     0.70249   0.45672   0.10327   0.00000  Uiso   1.00
F627   F     0.95879   0.20098   0.89749   0.00000  Uiso   1.00
F628   F     0.53813   0.30223   0.10306   0.00000  Uiso   1.00
F629   F     0.69699   0.46348   0.89715   0.00000  Uiso   1.00
F630   F     0.79751   0.04318   0.10321   0.00000  Uiso   1.00
F631   F     0.54229   0.29879   0.89656   0.00000  Uiso   1.00
F632   F     0.96081   0.19943   0.10250   0.00000  Uiso   1.00
C633   C     0.02547   0.77099   0.41798   0.00000  Uiso   1.00
C634   C     0.47318   0.73064   0.58171   0.00000  Uiso   1.00
C635   C     0.23229   0.97250   0.41833   0.00000  Uiso   1.00
C636   C     0.27149   0.52560   0.58203   0.00000  Uiso   1.00
C637   C     0.47459   0.72884   0.41797   0.00000  Uiso   1.00
C638   C     0.02690   0.76917   0.58171   0.00000  Uiso   1.00
C639   C     0.27121   0.52594   0.41815   0.00000  Uiso   1.00
C640   C     0.23097   0.97341   0.58173   0.00000  Uiso   1.00
C641   C     0.27693   0.51912   0.91829   0.00000  Uiso   1.00
C642   C     0.22459   0.97883   0.08203   0.00000  Uiso   1.00
C643   C     0.48099   0.72340   0.91827   0.00000  Uiso   1.00
C644   C     0.02120   0.77595   0.08185   0.00000  Uiso   1.00
C645   C     0.22319   0.98063   0.91829   0.00000  Uiso   1.00
C646   C     0.27551   0.52092   0.08201   0.00000  Uiso   1.00
C647   C     0.02149   0.77561   0.91797   0.00000  Uiso   1.00
C648   C     0.48231   0.72249   0.08167   0.00000  Uiso   1.00
C649   C     0.00001   0.74995   0.39809   0.00000  Uiso   1.00
C650   C     0.00002   0.74994   0.60170   0.00000  Uiso   1.00
C651   C     0.25101   0.99967   0.39828   0.00000  Uiso   1.00
C652   C     0.25061   0.99986   0.60181   0.00000  Uiso   1.00
C653   C     0.25002   0.99993   0.89831   0.00000  Uiso   1.00
C654   C     0.25001   0.99993   0.10191   0.00000  Uiso   1.00
C655   C     0.00062   0.74986   0.89820   0.00000  Uiso   1.00
C656   C     0.00101   0.74967   0.10172   0.00000  Uiso   1.00
C657   C     0.44661   0.70900   0.47943   0.00000  Uiso   1.00
C658   C     0.05274   0.79174   0.52019   0.00000  Uiso   1.00
C659   C     0.29388   0.55180   0.47971   0.00000  Uiso   1.00
C660   C     0.21548   0.94258   0.52048   0.00000  Uiso   1.00
C661   C     0.05363   0.79058   0.47942   0.00000  Uiso   1.00
C662   C     0.44754   0.70781   0.52020   0.00000  Uiso   1.00
C663   C     0.21596   0.94226   0.47968   0.00000  Uiso   1.00
C664   C     0.29228   0.55298   0.52049   0.00000  Uiso   1.00
C665   C     0.19754   0.95780   0.97980   0.00000  Uiso   1.00
C666   C     0.30378   0.54036   0.02059   0.00000  Uiso   1.00
C667   C     0.04227   0.80299   0.97951   0.00000  Uiso   1.00
C668   C     0.46600   0.69224   0.02032   0.00000  Uiso   1.00
C669   C     0.30290   0.54153   0.97982   0.00000  Uiso   1.00
C670   C     0.19661   0.95899   0.02057   0.00000  Uiso   1.00
C671   C     0.46553   0.69255   0.97951   0.00000  Uiso   1.00
C672   C     0.04387   0.80182   0.02029   0.00000  Uiso   1.00
C673   C     0.25004   0.99998   0.35590   0.00000  Uiso   1.00
C674   C     0.25000   0.99999   0.64414   0.00000  Uiso   1.00
C675   C    -0.00000   0.74999   0.35582   0.00000  Uiso   1.00
C676   C     0.00000   0.74999   0.64410   0.00000  Uiso   1.00
C677   C     0.00000   0.74999   0.85586   0.00000  Uiso   1.00
C678   C     0.00004   0.74998   0.14411   0.00000  Uiso   1.00
C679   C     0.25000   0.99999   0.85590   0.00000  Uiso   1.00
C680   C     0.25000   0.99999   0.14418   0.00000  Uiso   1.00
C681   C     0.17994   0.57006   0.25000   0.00000  Uiso   1.00
C682   C     0.32006   0.92994   0.75000   0.00000  Uiso   1.00
C683   C     0.42994   0.67994   0.25000   0.00000  Uiso   1.00
C684   C     0.07006   0.82005   0.75000   0.00000  Uiso   1.00
C685   C     0.32006   0.92994   0.25000   0.00000  Uiso   1.00
C686   C     0.17994   0.57006   0.75000   0.00000  Uiso   1.00
C687   C     0.07006   0.82006   0.25000   0.00000  Uiso   1.00
C688   C     0.42994   0.67994   0.75000   0.00000  Uiso   1.00
C689   C     0.17994   0.92994   0.75000   0.00000  Uiso   1.00
C690   C     0.32006   0.57006   0.25000   0.00000  Uiso   1.00
C691   C     0.42994   0.82006   0.75000   0.00000  Uiso   1.00
C692   C     0.07006   0.67994   0.25000   0.00000  Uiso   1.00
C693   C     0.32006   0.57005   0.75000   0.00000  Uiso   1.00
C694   C     0.17994   0.92994   0.25000   0.00000  Uiso   1.00
C695   C     0.07006   0.67994   0.75000   0.00000  Uiso   1.00
C696   C     0.42994   0.82006   0.25000   0.00000  Uiso   1.00
C697   C     0.12243   0.90431   0.22419   0.00000  Uiso   1.00
C698   C     0.37759   0.59567   0.77578   0.00000  Uiso   1.00
C699   C     0.09515   0.62188   0.22497   0.00000  Uiso   1.00
C700   C     0.40486   0.87813   0.77502   0.00000  Uiso   1.00
C701   C     0.37757   0.59568   0.22420   0.00000  Uiso   1.00
C702   C     0.12242   0.90433   0.77579   0.00000  Uiso   1.00
C703   C     0.40486   0.87813   0.22498   0.00000  Uiso   1.00
C704   C     0.09514   0.62188   0.77503   0.00000  Uiso   1.00
C705   C     0.12188   0.59515   0.77503   0.00000  Uiso   1.00
C706   C     0.37813   0.90486   0.22498   0.00000  Uiso   1.00
C707   C     0.09567   0.87758   0.77579   0.00000  Uiso   1.00
C708   C     0.40432   0.62243   0.22420   0.00000  Uiso   1.00
C709   C     0.37813   0.90486   0.77502   0.00000  Uiso   1.00
C710   C     0.12188   0.59515   0.22497   0.00000  Uiso   1.00
C711   C     0.40433   0.62241   0.77578   0.00000  Uiso   1.00
C712   C     0.09569   0.87757   0.22419   0.00000  Uiso   1.00
C713   C     0.37242   0.65433   0.72421   0.00000  Uiso   1.00
C714   C     0.12757   0.84568   0.27580   0.00000  Uiso   1.00
C715   C     0.34515   0.87188   0.72497   0.00000  Uiso   1.00
C716   C     0.15486   0.62813   0.27502   0.00000  Uiso   1.00
C717   C     0.12759   0.84567   0.72422   0.00000  Uiso   1.00
C718   C     0.37243   0.65431   0.27581   0.00000  Uiso   1.00
C719   C     0.15486   0.62813   0.72498   0.00000  Uiso   1.00
C720   C     0.34515   0.87188   0.27503   0.00000  Uiso   1.00
C721   C     0.37188   0.84515   0.27503   0.00000  Uiso   1.00
C722   C     0.12813   0.65486   0.72498   0.00000  Uiso   1.00
C723   C     0.34569   0.62757   0.27581   0.00000  Uiso   1.00
C724   C     0.15433   0.87241   0.72422   0.00000  Uiso   1.00
C725   C     0.12813   0.65486   0.27502   0.00000  Uiso   1.00
C726   C     0.37188   0.84515   0.72497   0.00000  Uiso   1.00
C727   C     0.15432   0.87243   0.27580   0.00000  Uiso   1.00
C728   C     0.34567   0.62758   0.72421   0.00000  Uiso   1.00
C729   C     0.47328   0.72931   0.45881   0.00000  Uiso   1.00
C730   C     0.02665   0.77068   0.54086   0.00000  Uiso   1.00
C731   C     0.27327   0.52538   0.45901   0.00000  Uiso   1.00
C732   C     0.23296   0.97121   0.54102   0.00000  Uiso   1.00
C733   C     0.02687   0.77039   0.45881   0.00000  Uiso   1.00
C734   C     0.47353   0.72900   0.54087   0.00000  Uiso   1.00
C735   C     0.23379   0.97066   0.45909   0.00000  Uiso   1.00
C736   C     0.27212   0.52619   0.54112   0.00000  Uiso   1.00
C737   C     0.22354   0.97897   0.95913   0.00000  Uiso   1.00
C738   C     0.27695   0.52027   0.04119   0.00000  Uiso   1.00
C739   C     0.02212   0.77619   0.95888   0.00000  Uiso   1.00
C740   C     0.48381   0.72065   0.04091   0.00000  Uiso   1.00
C741   C     0.27673   0.52057   0.95914   0.00000  Uiso   1.00
C742   C     0.22329   0.97928   0.04119   0.00000  Uiso   1.00
C743   C     0.48299   0.72120   0.95898   0.00000  Uiso   1.00
C744   C     0.02326   0.77539   0.04099   0.00000  Uiso   1.00
C745   C     0.09813   0.84812   0.25000   0.00000  Uiso   1.00
C746   C     0.40188   0.65187   0.75000   0.00000  Uiso   1.00
C747   C     0.15187   0.59813   0.25000   0.00000  Uiso   1.00
C748   C     0.34813   0.90187   0.75000   0.00000  Uiso   1.00
C749   C     0.40188   0.65187   0.25000   0.00000  Uiso   1.00
C750   C     0.09813   0.84812   0.75000   0.00000  Uiso   1.00
C751   C     0.34813   0.90187   0.25000   0.00000  Uiso   1.00
C752   C     0.15187   0.59813   0.75000   0.00000  Uiso   1.00
C753   C     0.09813   0.65187   0.75000   0.00000  Uiso   1.00
C754   C     0.40187   0.84813   0.25000   0.00000  Uiso   1.00
C755   C     0.15188   0.90187   0.75000   0.00000  Uiso   1.00
C756   C     0.34813   0.59812   0.25000   0.00000  Uiso   1.00
C757   C     0.40187   0.84813   0.75000   0.00000  Uiso   1.00
C758   C     0.09813   0.65187   0.25000   0.00000  Uiso   1.00
C759   C     0.34813   0.59812   0.75000   0.00000  Uiso   1.00
C760   C     0.15188   0.90187   0.25000   0.00000  Uiso   1.00
C761   C     0.00008   0.74984   0.47937   0.00000  Uiso   1.00
C762   C     0.00009   0.74984   0.52032   0.00000  Uiso   1.00
C763   C     0.25341   0.99812   0.47959   0.00000  Uiso   1.00
C764   C     0.25292   0.99846   0.52053   0.00000  Uiso   1.00
C765   C     0.25014   0.99976   0.97968   0.00000  Uiso   1.00
C766   C     0.25013   0.99976   0.02063   0.00000  Uiso   1.00
C767   C     0.00294   0.74845   0.97947   0.00000  Uiso   1.00
C768   C     0.00342   0.74812   0.02041   0.00000  Uiso   1.00
H769   H     0.12004   0.92681   0.20399   0.00000  Uiso   1.00
H770   H     0.37999   0.57316   0.79597   0.00000  Uiso   1.00
H771   H     0.07221   0.61903   0.20540   0.00000  Uiso   1.00
H772   H     0.42780   0.88098   0.79460   0.00000  Uiso   1.00
H773   H     0.37997   0.57318   0.20399   0.00000  Uiso   1.00
H774   H     0.12001   0.92684   0.79598   0.00000  Uiso   1.00
H775   H     0.42780   0.88098   0.20540   0.00000  Uiso   1.00
H776   H     0.07220   0.61902   0.79460   0.00000  Uiso   1.00
H777   H     0.11902   0.57221   0.79460   0.00000  Uiso   1.00
H778   H     0.38098   0.92780   0.20540   0.00000  Uiso   1.00
H779   H     0.07316   0.87998   0.79598   0.00000  Uiso   1.00
H780   H     0.42682   0.62003   0.20399   0.00000  Uiso   1.00
H781   H     0.38098   0.92780   0.79460   0.00000  Uiso   1.00
H782   H     0.11902   0.57221   0.20540   0.00000  Uiso   1.00
H783   H     0.42684   0.62001   0.79597   0.00000  Uiso   1.00
H784   H     0.07319   0.87996   0.20399   0.00000  Uiso   1.00
H785   H     0.37001   0.67684   0.70403   0.00000  Uiso   1.00
H786   H     0.12997   0.82318   0.29601   0.00000  Uiso   1.00
H787   H     0.32220   0.86902   0.70540   0.00000  Uiso   1.00
H788   H     0.17780   0.63098   0.29460   0.00000  Uiso   1.00
H789   H     0.12999   0.82316   0.70403   0.00000  Uiso   1.00
H790   H     0.37004   0.67681   0.29602   0.00000  Uiso   1.00
H791   H     0.17780   0.63098   0.70540   0.00000  Uiso   1.00
H792   H     0.32221   0.86903   0.29461   0.00000  Uiso   1.00
H793   H     0.36902   0.82221   0.29461   0.00000  Uiso   1.00
H794   H     0.13098   0.67780   0.70540   0.00000  Uiso   1.00
H795   H     0.32319   0.62996   0.29601   0.00000  Uiso   1.00
H796   H     0.17684   0.87001   0.70403   0.00000  Uiso   1.00
H797   H     0.13098   0.67780   0.29460   0.00000  Uiso   1.00
H798   H     0.36902   0.82220   0.70540   0.00000  Uiso   1.00
H799   H     0.17682   0.87003   0.29601   0.00000  Uiso   1.00
H800   H     0.32316   0.62999   0.70402   0.00000  Uiso   1.00
O801   O     0.25000   0.50000   0.25000   0.00000  Uiso   1.00
O802   O     0.25000   0.50000   0.75000   0.00000  Uiso   1.00
O803   O     0.00000   0.75000   0.25000   0.00000  Uiso   1.00
O804   O    -0.00000   0.75000   0.75000   0.00000  Uiso   1.00
O805   O     0.25000   0.96963   0.33755   0.00000  Uiso   1.00
O806   O     0.25000   0.53036   0.66245   0.00000  Uiso   1.00
O807   O     0.03036   0.75000   0.33755   0.00000  Uiso   1.00
O808   O     0.46963   0.75000   0.66245   0.00000  Uiso   1.00
O809   O     0.25000   0.53036   0.33755   0.00000  Uiso   1.00
O810   O     0.25000   0.96963   0.66245   0.00000  Uiso   1.00
O811   O     0.46963   0.75000   0.33755   0.00000  Uiso   1.00
O812   O     0.03036   0.75000   0.66245   0.00000  Uiso   1.00
O813   O     0.00000   0.71963   0.83755   0.00000  Uiso   1.00
O814   O    -0.00000   0.78036   0.16245   0.00000  Uiso   1.00
O815   O     0.28036   0.50000   0.83755   0.00000  Uiso   1.00
O816   O     0.21963   0.50000   0.16245   0.00000  Uiso   1.00
O817   O    -0.00000   0.78036   0.83755   0.00000  Uiso   1.00
O818   O     0.00000   0.71963   0.16245   0.00000  Uiso   1.00
O819   O     0.21963   0.50000   0.83755   0.00000  Uiso   1.00
O820   O     0.28036   0.50000   0.16245   0.00000  Uiso   1.00
O821   O     0.20724   0.57307   0.27302   0.00000  Uiso   1.00
O822   O     0.29275   0.92692   0.72698   0.00000  Uiso   1.00
O823   O     0.42692   0.70724   0.27302   0.00000  Uiso   1.00
O824   O     0.07307   0.79275   0.72698   0.00000  Uiso   1.00
O825   O     0.29275   0.92692   0.27302   0.00000  Uiso   1.00
O826   O     0.20724   0.57307   0.72698   0.00000  Uiso   1.00
O827   O     0.07307   0.79275   0.27302   0.00000  Uiso   1.00
O828   O     0.42692   0.70724   0.72698   0.00000  Uiso   1.00
O829   O     0.20724   0.92692   0.72698   0.00000  Uiso   1.00
O830   O     0.29275   0.57307   0.27302   0.00000  Uiso   1.00
O831   O     0.42692   0.79275   0.72698   0.00000  Uiso   1.00
O832   O     0.07307   0.70724   0.27302   0.00000  Uiso   1.00
O833   O     0.29275   0.57307   0.72698   0.00000  Uiso   1.00
O834   O     0.20724   0.92692   0.27302   0.00000  Uiso   1.00
O835   O     0.07307   0.70724   0.72698   0.00000  Uiso   1.00
O836   O     0.42692   0.79275   0.27302   0.00000  Uiso   1.00
O837   O     0.45724   0.82307   0.77302   0.00000  Uiso   1.00
O838   O     0.04275   0.67692   0.22698   0.00000  Uiso   1.00
O839   O     0.17692   0.95724   0.77302   0.00000  Uiso   1.00
O840   O     0.32307   0.54275   0.22698   0.00000  Uiso   1.00
O841   O     0.04275   0.67692   0.77302   0.00000  Uiso   1.00
O842   O     0.45724   0.82307   0.22698   0.00000  Uiso   1.00
O843   O     0.32307   0.54275   0.77302   0.00000  Uiso   1.00
O844   O     0.17692   0.95724   0.22698   0.00000  Uiso   1.00
O845   O     0.45724   0.67692   0.22698   0.00000  Uiso   1.00
O846   O     0.04275   0.82307   0.77302   0.00000  Uiso   1.00
O847   O     0.17692   0.54275   0.22698   0.00000  Uiso   1.00
O848   O     0.32307   0.95724   0.77302   0.00000  Uiso   1.00
O849   O     0.04275   0.82307   0.22698   0.00000  Uiso   1.00
O850   O     0.45724   0.67692   0.77302   0.00000  Uiso   1.00
O851   O     0.32307   0.95724   0.22698   0.00000  Uiso   1.00
O852   O     0.17692   0.54275   0.77302   0.00000  Uiso   1.00
Zn853  Zn    0.20659   0.50000   0.21735   0.00000  Uiso   1.00
Zn854  Zn    0.29340   0.50000   0.78265   0.00000  Uiso   1.00
Zn855  Zn    0.00000   0.70659   0.21735   0.00000  Uiso   1.00
Zn856  Zn    0.00000   0.79340   0.78265   0.00000  Uiso   1.00
Zn857  Zn    0.29340   0.50000   0.21735   0.00000  Uiso   1.00
Zn858  Zn    0.20659   0.50000   0.78265   0.00000  Uiso   1.00
Zn859  Zn    0.00000   0.79340   0.21735   0.00000  Uiso   1.00
Zn860  Zn    0.00000   0.70659   0.78265   0.00000  Uiso   1.00
Zn861  Zn    0.45659   0.75000   0.71735   0.00000  Uiso   1.00
Zn862  Zn    0.04340   0.75000   0.28265   0.00000  Uiso   1.00
Zn863  Zn    0.25000   0.95659   0.71735   0.00000  Uiso   1.00
Zn864  Zn    0.25000   0.54340   0.28265   0.00000  Uiso   1.00
Zn865  Zn    0.04340   0.75000   0.71735   0.00000  Uiso   1.00
Zn866  Zn    0.45659   0.75000   0.28265   0.00000  Uiso   1.00
Zn867  Zn    0.25000   0.54340   0.71735   0.00000  Uiso   1.00
Zn868  Zn    0.25000   0.95659   0.28265   0.00000  Uiso   1.00
C869   C     0.41684   0.68926   0.45894   0.00000  Uiso   1.00
O870   O     0.41555   0.65592   0.45990   0.00000  Uiso   1.00
O871   O     0.39015   0.70905   0.43906   0.00000  Uiso   1.00
H872   H     0.37127   0.69269   0.42640   0.00000  Uiso   1.00
C873   C     0.07937   0.81570   0.54044   0.00000  Uiso   1.00
O874   O     0.06875   0.84321   0.55702   0.00000  Uiso   1.00
O875   O     0.11652   0.80716   0.53956   0.00000  Uiso   1.00
H876   H     0.13196   0.82573   0.55393   0.00000  Uiso   1.00
C877   C     0.31775   0.57851   0.45945   0.00000  Uiso   1.00
O878   O     0.34504   0.56791   0.44243   0.00000  Uiso   1.00
O879   O     0.30942   0.61570   0.46080   0.00000  Uiso   1.00
H880   H     0.32795   0.63117   0.44640   0.00000  Uiso   1.00
C881   C     0.19915   0.91100   0.54124   0.00000  Uiso   1.00
O882   O     0.16612   0.90631   0.54080   0.00000  Uiso   1.00
O883   O     0.22177   0.88691   0.56144   0.00000  Uiso   1.00
H884   H     0.20758   0.86657   0.57451   0.00000  Uiso   1.00
C885   C     0.08349   0.81018   0.45892   0.00000  Uiso   1.00
O886   O     0.08499   0.84350   0.45997   0.00000  Uiso   1.00
O887   O     0.10998   0.79027   0.43886   0.00000  Uiso   1.00
H888   H     0.12894   0.80654   0.42620   0.00000  Uiso   1.00
C889   C     0.42110   0.68364   0.54047   0.00000  Uiso   1.00
O890   O     0.43198   0.65635   0.55726   0.00000  Uiso   1.00
O891   O     0.38385   0.69172   0.53935   0.00000  Uiso   1.00
H892   H     0.36858   0.67301   0.55372   0.00000  Uiso   1.00
C893   C     0.20021   0.91028   0.45908   0.00000  Uiso   1.00
O894   O     0.16721   0.90531   0.45902   0.00000  Uiso   1.00
O895   O     0.22335   0.88614   0.43960   0.00000  Uiso   1.00
H896   H     0.20954   0.86554   0.42657   0.00000  Uiso   1.00
C897   C     0.31153   0.58308   0.54092   0.00000  Uiso   1.00
O898   O     0.34488   0.58426   0.54094   0.00000  Uiso   1.00
O899   O     0.29129   0.61023   0.55954   0.00000  Uiso   1.00
H900   H     0.30736   0.62933   0.57226   0.00000  Uiso   1.00
C901   C     0.17109   0.93365   0.95953   0.00000  Uiso   1.00
O902   O     0.18195   0.90636   0.94271   0.00000  Uiso   1.00
O903   O     0.13384   0.94172   0.96067   0.00000  Uiso   1.00
H904   H     0.11856   0.92303   0.94630   0.00000  Uiso   1.00
C905   C     0.33375   0.55979   0.04109   0.00000  Uiso   1.00
O906   O     0.33551   0.59310   0.03993   0.00000  Uiso   1.00
O907   O     0.36006   0.53975   0.06125   0.00000  Uiso   1.00
H908   H     0.37912   0.55591   0.07388   0.00000  Uiso   1.00
C909   C     0.06151   0.83310   0.95908   0.00000  Uiso   1.00
O910   O     0.09486   0.83428   0.95906   0.00000  Uiso   1.00
O911   O     0.04127   0.86025   0.94047   0.00000  Uiso   1.00
H912   H     0.05733   0.87935   0.92775   0.00000  Uiso   1.00
C913   C     0.45024   0.66027   0.04092   0.00000  Uiso   1.00
O914   O     0.41723   0.65536   0.04106   0.00000  Uiso   1.00
O915   O     0.47337   0.63608   0.06031   0.00000  Uiso   1.00
H916   H     0.45955   0.61548   0.07336   0.00000  Uiso   1.00
C917   C     0.32966   0.56533   0.95957   0.00000  Uiso   1.00
O918   O     0.31923   0.59301   0.94318   0.00000  Uiso   1.00
O919   O     0.36674   0.55644   0.96025   0.00000  Uiso   1.00
H920   H     0.38229   0.57494   0.94591   0.00000  Uiso   1.00
C921   C     0.16682   0.93928   0.04105   0.00000  Uiso   1.00
O922   O     0.16552   0.90594   0.04011   0.00000  Uiso   1.00
O923   O     0.14013   0.95909   0.06092   0.00000  Uiso   1.00
H924   H     0.12124   0.94274   0.07357   0.00000  Uiso   1.00
C925   C     0.44926   0.66094   0.95875   0.00000  Uiso   1.00
O926   O     0.41625   0.65613   0.95928   0.00000  Uiso   1.00
O927   O     0.47192   0.63694   0.93846   0.00000  Uiso   1.00
H928   H     0.45777   0.61658   0.92540   0.00000  Uiso   1.00
C929   C     0.06773   0.82854   0.04055   0.00000  Uiso   1.00
O930   O     0.09501   0.81795   0.05757   0.00000  Uiso   1.00
O931   O     0.05938   0.86573   0.03920   0.00000  Uiso   1.00
H932   H     0.07789   0.88120   0.05360   0.00000  Uiso   1.00
F933   F     0.04747   0.79323   0.39678   0.00000  Uiso   1.00
F934   F     0.44701   0.71345   0.60285   0.00000  Uiso   1.00
F935   F     0.21077   0.94947   0.39750   0.00000  Uiso   1.00
F936   F     0.29231   0.54878   0.60344   0.00000  Uiso   1.00
F937   F     0.45253   0.70668   0.39673   0.00000  Uiso   1.00
F938   F     0.05299   0.78647   0.60286   0.00000  Uiso   1.00
F939   F     0.28815   0.55220   0.39694   0.00000  Uiso   1.00
F940   F     0.20878   0.95098   0.60252   0.00000  Uiso   1.00
F941   F     0.30298   0.53647   0.89713   0.00000  Uiso   1.00
F942   F     0.20249   0.95672   0.10327   0.00000  Uiso   1.00
F943   F     0.45879   0.70098   0.89749   0.00000  Uiso   1.00
F944   F     0.03813   0.80223   0.10306   0.00000  Uiso   1.00
F945   F     0.19699   0.96348   0.89715   0.00000  Uiso   1.00
F946   F     0.29751   0.54318   0.10321   0.00000  Uiso   1.00
F947   F     0.04229   0.79879   0.89656   0.00000  Uiso   1.00
F948   F     0.46081   0.69943   0.10250   0.00000  Uiso   1.00
C949   C     0.52547   0.77099   0.41798   0.00000  Uiso   1.00
C950   C     0.97318   0.73064   0.58171   0.00000  Uiso   1.00
C951   C     0.73229   0.97250   0.41833   0.00000  Uiso   1.00
C952   C     0.77149   0.52560   0.58203   0.00000  Uiso   1.00
C953   C     0.97459   0.72884   0.41797   0.00000  Uiso   1.00
C954   C     0.52690   0.76917   0.58171   0.00000  Uiso   1.00
C955   C     0.77121   0.52594   0.41815   0.00000  Uiso   1.00
C956   C     0.73097   0.97341   0.58173   0.00000  Uiso   1.00
C957   C     0.77693   0.51912   0.91829   0.00000  Uiso   1.00
C958   C     0.72459   0.97883   0.08203   0.00000  Uiso   1.00
C959   C     0.98099   0.72340   0.91827   0.00000  Uiso   1.00
C960   C     0.52120   0.77595   0.08185   0.00000  Uiso   1.00
C961   C     0.72319   0.98063   0.91829   0.00000  Uiso   1.00
C962   C     0.77551   0.52092   0.08201   0.00000  Uiso   1.00
C963   C     0.52149   0.77561   0.91797   0.00000  Uiso   1.00
C964   C     0.98231   0.72249   0.08167   0.00000  Uiso   1.00
C965   C     0.50001   0.74995   0.39809   0.00000  Uiso   1.00
C966   C     0.50002   0.74994   0.60170   0.00000  Uiso   1.00
C967   C     0.75101   0.99967   0.39828   0.00000  Uiso   1.00
C968   C     0.75061   0.99986   0.60181   0.00000  Uiso   1.00
C969   C     0.75002   0.99993   0.89831   0.00000  Uiso   1.00
C970   C     0.75001   0.99993   0.10191   0.00000  Uiso   1.00
C971   C     0.50062   0.74986   0.89820   0.00000  Uiso   1.00
C972   C     0.50101   0.74967   0.10172   0.00000  Uiso   1.00
C973   C     0.94661   0.70900   0.47943   0.00000  Uiso   1.00
C974   C     0.55274   0.79174   0.52019   0.00000  Uiso   1.00
C975   C     0.79388   0.55180   0.47971   0.00000  Uiso   1.00
C976   C     0.71548   0.94258   0.52048   0.00000  Uiso   1.00
C977   C     0.55363   0.79058   0.47942   0.00000  Uiso   1.00
C978   C     0.94754   0.70781   0.52020   0.00000  Uiso   1.00
C979   C     0.71596   0.94226   0.47968   0.00000  Uiso   1.00
C980   C     0.79228   0.55298   0.52049   0.00000  Uiso   1.00
C981   C     0.69754   0.95780   0.97980   0.00000  Uiso   1.00
C982   C     0.80378   0.54036   0.02059   0.00000  Uiso   1.00
C983   C     0.54227   0.80299   0.97951   0.00000  Uiso   1.00
C984   C     0.96600   0.69224   0.02032   0.00000  Uiso   1.00
C985   C     0.80290   0.54153   0.97982   0.00000  Uiso   1.00
C986   C     0.69661   0.95899   0.02057   0.00000  Uiso   1.00
C987   C     0.96553   0.69255   0.97951   0.00000  Uiso   1.00
C988   C     0.54387   0.80182   0.02029   0.00000  Uiso   1.00
C989   C     0.75004   0.99998   0.35590   0.00000  Uiso   1.00
C990   C     0.75000   0.99999   0.64414   0.00000  Uiso   1.00
C991   C     0.50000   0.74999   0.35582   0.00000  Uiso   1.00
C992   C     0.50000   0.74999   0.64410   0.00000  Uiso   1.00
C993   C     0.50000   0.74999   0.85586   0.00000  Uiso   1.00
C994   C     0.50004   0.74998   0.14411   0.00000  Uiso   1.00
C995   C     0.75000   0.99999   0.85590   0.00000  Uiso   1.00
C996   C     0.75000   0.99999   0.14418   0.00000  Uiso   1.00
C997   C     0.67994   0.57006   0.25000   0.00000  Uiso   1.00
C998   C     0.82006   0.92994   0.75000   0.00000  Uiso   1.00
C999   C     0.92994   0.67994   0.25000   0.00000  Uiso   1.00
C1000  C     0.57006   0.82005   0.75000   0.00000  Uiso   1.00
C1001  C     0.82006   0.92994   0.25000   0.00000  Uiso   1.00
C1002  C     0.67994   0.57006   0.75000   0.00000  Uiso   1.00
C1003  C     0.57006   0.82006   0.25000   0.00000  Uiso   1.00
C1004  C     0.92994   0.67994   0.75000   0.00000  Uiso   1.00
C1005  C     0.67994   0.92994   0.75000   0.00000  Uiso   1.00
C1006  C     0.82006   0.57006   0.25000   0.00000  Uiso   1.00
C1007  C     0.92994   0.82006   0.75000   0.00000  Uiso   1.00
C1008  C     0.57006   0.67994   0.25000   0.00000  Uiso   1.00
C1009  C     0.82006   0.57005   0.75000   0.00000  Uiso   1.00
C1010  C     0.67994   0.92994   0.25000   0.00000  Uiso   1.00
C1011  C     0.57006   0.67994   0.75000   0.00000  Uiso   1.00
C1012  C     0.92994   0.82006   0.25000   0.00000  Uiso   1.00
C1013  C     0.62243   0.90431   0.22419   0.00000  Uiso   1.00
C1014  C     0.87759   0.59567   0.77578   0.00000  Uiso   1.00
C1015  C     0.59515   0.62188   0.22497   0.00000  Uiso   1.00
C1016  C     0.90486   0.87813   0.77502   0.00000  Uiso   1.00
C1017  C     0.87757   0.59568   0.22420   0.00000  Uiso   1.00
C1018  C     0.62242   0.90433   0.77579   0.00000  Uiso   1.00
C1019  C     0.90486   0.87813   0.22498   0.00000  Uiso   1.00
C1020  C     0.59514   0.62188   0.77503   0.00000  Uiso   1.00
C1021  C     0.62188   0.59515   0.77503   0.00000  Uiso   1.00
C1022  C     0.87813   0.90486   0.22498   0.00000  Uiso   1.00
C1023  C     0.59567   0.87758   0.77579   0.00000  Uiso   1.00
C1024  C     0.90432   0.62243   0.22420   0.00000  Uiso   1.00
C1025  C     0.87813   0.90486   0.77502   0.00000  Uiso   1.00
C1026  C     0.62188   0.59515   0.22497   0.00000  Uiso   1.00
C1027  C     0.90433   0.62241   0.77578   0.00000  Uiso   1.00
C1028  C     0.59569   0.87757   0.22419   0.00000  Uiso   1.00
C1029  C     0.87242   0.65433   0.72421   0.00000  Uiso   1.00
C1030  C     0.62757   0.84568   0.27580   0.00000  Uiso   1.00
C1031  C     0.84515   0.87188   0.72497   0.00000  Uiso   1.00
C1032  C     0.65486   0.62813   0.27502   0.00000  Uiso   1.00
C1033  C     0.62759   0.84567   0.72422   0.00000  Uiso   1.00
C1034  C     0.87243   0.65431   0.27581   0.00000  Uiso   1.00
C1035  C     0.65486   0.62813   0.72498   0.00000  Uiso   1.00
C1036  C     0.84515   0.87188   0.27503   0.00000  Uiso   1.00
C1037  C     0.87188   0.84515   0.27503   0.00000  Uiso   1.00
C1038  C     0.62813   0.65486   0.72498   0.00000  Uiso   1.00
C1039  C     0.84569   0.62757   0.27581   0.00000  Uiso   1.00
C1040  C     0.65433   0.87241   0.72422   0.00000  Uiso   1.00
C1041  C     0.62813   0.65486   0.27502   0.00000  Uiso   1.00
C1042  C     0.87188   0.84515   0.72497   0.00000  Uiso   1.00
C1043  C     0.65432   0.87243   0.27580   0.00000  Uiso   1.00
C1044  C     0.84567   0.62758   0.72421   0.00000  Uiso   1.00
C1045  C     0.97328   0.72931   0.45881   0.00000  Uiso   1.00
C1046  C     0.52665   0.77068   0.54086   0.00000  Uiso   1.00
C1047  C     0.77327   0.52538   0.45901   0.00000  Uiso   1.00
C1048  C     0.73296   0.97121   0.54102   0.00000  Uiso   1.00
C1049  C     0.52687   0.77039   0.45881   0.00000  Uiso   1.00
C1050  C     0.97353   0.72900   0.54087   0.00000  Uiso   1.00
C1051  C     0.73379   0.97066   0.45909   0.00000  Uiso   1.00
C1052  C     0.77212   0.52619   0.54112   0.00000  Uiso   1.00
C1053  C     0.72354   0.97897   0.95913   0.00000  Uiso   1.00
C1054  C     0.77695   0.52027   0.04119   0.00000  Uiso   1.00
C1055  C     0.52212   0.77619   0.95888   0.00000  Uiso   1.00
C1056  C     0.98381   0.72065   0.04091   0.00000  Uiso   1.00
C1057  C     0.77673   0.52057   0.95914   0.00000  Uiso   1.00
C1058  C     0.72329   0.97928   0.04119   0.00000  Uiso   1.00
C1059  C     0.98299   0.72120   0.95898   0.00000  Uiso   1.00
C1060  C     0.52326   0.77539   0.04099   0.00000  Uiso   1.00
C1061  C     0.59813   0.84812   0.25000   0.00000  Uiso   1.00
C1062  C     0.90188   0.65187   0.75000   0.00000  Uiso   1.00
C1063  C     0.65187   0.59813   0.25000   0.00000  Uiso   1.00
C1064  C     0.84813   0.90187   0.75000   0.00000  Uiso   1.00
C1065  C     0.90188   0.65187   0.25000   0.00000  Uiso   1.00
C1066  C     0.59813   0.84812   0.75000   0.00000  Uiso   1.00
C1067  C     0.84813   0.90187   0.25000   0.00000  Uiso   1.00
C1068  C     0.65187   0.59813   0.75000   0.00000  Uiso   1.00
C1069  C     0.59813   0.65187   0.75000   0.00000  Uiso   1.00
C1070  C     0.90187   0.84813   0.25000   0.00000  Uiso   1.00
C1071  C     0.65188   0.90187   0.75000   0.00000  Uiso   1.00
C1072  C     0.84813   0.59812   0.25000   0.00000  Uiso   1.00
C1073  C     0.90187   0.84813   0.75000   0.00000  Uiso   1.00
C1074  C     0.59813   0.65187   0.25000   0.00000  Uiso   1.00
C1075  C     0.84813   0.59812   0.75000   0.00000  Uiso   1.00
C1076  C     0.65188   0.90187   0.25000   0.00000  Uiso   1.00
C1077  C     0.50008   0.74984   0.47937   0.00000  Uiso   1.00
C1078  C     0.50009   0.74984   0.52032   0.00000  Uiso   1.00
C1079  C     0.75341   0.99812   0.47959   0.00000  Uiso   1.00
C1080  C     0.75292   0.99846   0.52053   0.00000  Uiso   1.00
C1081  C     0.75014   0.99976   0.97968   0.00000  Uiso   1.00
C1082  C     0.75013   0.99976   0.02063   0.00000  Uiso   1.00
C1083  C     0.50294   0.74845   0.97947   0.00000  Uiso   1.00
C1084  C     0.50342   0.74812   0.02041   0.00000  Uiso   1.00
H1085  H     0.62004   0.92681   0.20399   0.00000  Uiso   1.00
H1086  H     0.87999   0.57316   0.79597   0.00000  Uiso   1.00
H1087  H     0.57221   0.61903   0.20540   0.00000  Uiso   1.00
H1088  H     0.92780   0.88098   0.79460   0.00000  Uiso   1.00
H1089  H     0.87997   0.57318   0.20399   0.00000  Uiso   1.00
H1090  H     0.62001   0.92684   0.79598   0.00000  Uiso   1.00
H1091  H     0.92780   0.88098   0.20540   0.00000  Uiso   1.00
H1092  H     0.57220   0.61902   0.79460   0.00000  Uiso   1.00
H1093  H     0.61902   0.57221   0.79460   0.00000  Uiso   1.00
H1094  H     0.88098   0.92780   0.20540   0.00000  Uiso   1.00
H1095  H     0.57316   0.87998   0.79598   0.00000  Uiso   1.00
H1096  H     0.92682   0.62003   0.20399   0.00000  Uiso   1.00
H1097  H     0.88098   0.92780   0.79460   0.00000  Uiso   1.00
H1098  H     0.61902   0.57221   0.20540   0.00000  Uiso   1.00
H1099  H     0.92684   0.62001   0.79597   0.00000  Uiso   1.00
H1100  H     0.57319   0.87996   0.20399   0.00000  Uiso   1.00
H1101  H     0.87001   0.67684   0.70403   0.00000  Uiso   1.00
H1102  H     0.62997   0.82318   0.29601   0.00000  Uiso   1.00
H1103  H     0.82220   0.86902   0.70540   0.00000  Uiso   1.00
H1104  H     0.67780   0.63098   0.29460   0.00000  Uiso   1.00
H1105  H     0.62999   0.82316   0.70403   0.00000  Uiso   1.00
H1106  H     0.87004   0.67681   0.29602   0.00000  Uiso   1.00
H1107  H     0.67780   0.63098   0.70540   0.00000  Uiso   1.00
H1108  H     0.82221   0.86903   0.29461   0.00000  Uiso   1.00
H1109  H     0.86902   0.82221   0.29461   0.00000  Uiso   1.00
H1110  H     0.63098   0.67780   0.70540   0.00000  Uiso   1.00
H1111  H     0.82319   0.62996   0.29601   0.00000  Uiso   1.00
H1112  H     0.67684   0.87001   0.70403   0.00000  Uiso   1.00
H1113  H     0.63098   0.67780   0.29460   0.00000  Uiso   1.00
H1114  H     0.86902   0.82220   0.70540   0.00000  Uiso   1.00
H1115  H     0.67682   0.87003   0.29601   0.00000  Uiso   1.00
H1116  H     0.82316   0.62999   0.70402   0.00000  Uiso   1.00
O1117  O     0.75000   0.50000   0.25000   0.00000  Uiso   1.00
O1118  O     0.75000   0.50000   0.75000   0.00000  Uiso   1.00
O1119  O     0.50000   0.75000   0.25000   0.00000  Uiso   1.00
O1120  O     0.50000   0.75000   0.75000   0.00000  Uiso   1.00
O1121  O     0.75000   0.96963   0.33755   0.00000  Uiso   1.00
O1122  O     0.75000   0.53036   0.66245   0.00000  Uiso   1.00
O1123  O     0.53036   0.75000   0.33755   0.00000  Uiso   1.00
O1124  O     0.96963   0.75000   0.66245   0.00000  Uiso   1.00
O1125  O     0.75000   0.53036   0.33755   0.00000  Uiso   1.00
O1126  O     0.75000   0.96963   0.66245   0.00000  Uiso   1.00
O1127  O     0.96963   0.75000   0.33755   0.00000  Uiso   1.00
O1128  O     0.53036   0.75000   0.66245   0.00000  Uiso   1.00
O1129  O     0.50000   0.71963   0.83755   0.00000  Uiso   1.00
O1130  O     0.50000   0.78036   0.16245   0.00000  Uiso   1.00
O1131  O     0.78036   0.50000   0.83755   0.00000  Uiso   1.00
O1132  O     0.71963   0.50000   0.16245   0.00000  Uiso   1.00
O1133  O     0.50000   0.78036   0.83755   0.00000  Uiso   1.00
O1134  O     0.50000   0.71963   0.16245   0.00000  Uiso   1.00
O1135  O     0.71963   0.50000   0.83755   0.00000  Uiso   1.00
O1136  O     0.78036   0.50000   0.16245   0.00000  Uiso   1.00
O1137  O     0.70724   0.57307   0.27302   0.00000  Uiso   1.00
O1138  O     0.79275   0.92692   0.72698   0.00000  Uiso   1.00
O1139  O     0.92692   0.70724   0.27302   0.00000  Uiso   1.00
O1140  O     0.57307   0.79275   0.72698   0.00000  Uiso   1.00
O1141  O     0.79275   0.92692   0.27302   0.00000  Uiso   1.00
O1142  O     0.70724   0.57307   0.72698   0.00000  Uiso   1.00
O1143  O     0.57307   0.79275   0.27302   0.00000  Uiso   1.00
O1144  O     0.92692   0.70724   0.72698   0.00000  Uiso   1.00
O1145  O     0.70724   0.92692   0.72698   0.00000  Uiso   1.00
O1146  O     0.79275   0.57307   0.27302   0.00000  Uiso   1.00
O1147  O     0.92692   0.79275   0.72698   0.00000  Uiso   1.00
O1148  O     0.57307   0.70724   0.27302   0.00000  Uiso   1.00
O1149  O     0.79275   0.57307   0.72698   0.00000  Uiso   1.00
O1150  O     0.70724   0.92692   0.27302   0.00000  Uiso   1.00
O1151  O     0.57307   0.70724   0.72698   0.00000  Uiso   1.00
O1152  O     0.92692   0.79275   0.27302   0.00000  Uiso   1.00
O1153  O     0.95724   0.82307   0.77302   0.00000  Uiso   1.00
O1154  O     0.54275   0.67692   0.22698   0.00000  Uiso   1.00
O1155  O     0.67692   0.95724   0.77302   0.00000  Uiso   1.00
O1156  O     0.82307   0.54275   0.22698   0.00000  Uiso   1.00
O1157  O     0.54275   0.67692   0.77302   0.00000  Uiso   1.00
O1158  O     0.95724   0.82307   0.22698   0.00000  Uiso   1.00
O1159  O     0.82307   0.54275   0.77302   0.00000  Uiso   1.00
O1160  O     0.67692   0.95724   0.22698   0.00000  Uiso   1.00
O1161  O     0.95724   0.67692   0.22698   0.00000  Uiso   1.00
O1162  O     0.54275   0.82307   0.77302   0.00000  Uiso   1.00
O1163  O     0.67692   0.54275   0.22698   0.00000  Uiso   1.00
O1164  O     0.82307   0.95724   0.77302   0.00000  Uiso   1.00
O1165  O     0.54275   0.82307   0.22698   0.00000  Uiso   1.00
O1166  O     0.95724   0.67692   0.77302   0.00000  Uiso   1.00
O1167  O     0.82307   0.95724   0.22698   0.00000  Uiso   1.00
O1168  O     0.67692   0.54275   0.77302   0.00000  Uiso   1.00
Zn1169 Zn    0.70659   0.50000   0.21735   0.00000  Uiso   1.00
Zn1170 Zn    0.79340   0.50000   0.78265   0.00000  Uiso   1.00
Zn1171 Zn    0.50000   0.70659   0.21735   0.00000  Uiso   1.00
Zn1172 Zn    0.50000   0.79340   0.78265   0.00000  Uiso   1.00
Zn1173 Zn    0.79340   0.50000   0.21735   0.00000  Uiso   1.00
Zn1174 Zn    0.70659   0.50000   0.78265   0.00000  Uiso   1.00
Zn1175 Zn    0.50000   0.79340   0.21735   0.00000  Uiso   1.00
Zn1176 Zn    0.50000   0.70659   0.78265   0.00000  Uiso   1.00
Zn1177 Zn    0.95659   0.75000   0.71735   0.00000  Uiso   1.00
Zn1178 Zn    0.54340   0.75000   0.28265   0.00000  Uiso   1.00
Zn1179 Zn    0.75000   0.95659   0.71735   0.00000  Uiso   1.00
Zn1180 Zn    0.75000   0.54340   0.28265   0.00000  Uiso   1.00
Zn1181 Zn    0.54340   0.75000   0.71735   0.00000  Uiso   1.00
Zn1182 Zn    0.95659   0.75000   0.28265   0.00000  Uiso   1.00
Zn1183 Zn    0.75000   0.54340   0.71735   0.00000  Uiso   1.00
Zn1184 Zn    0.75000   0.95659   0.28265   0.00000  Uiso   1.00
C1185  C     0.91684   0.68926   0.45894   0.00000  Uiso   1.00
O1186  O     0.91555   0.65592   0.45990   0.00000  Uiso   1.00
O1187  O     0.89015   0.70905   0.43906   0.00000  Uiso   1.00
H1188  H     0.87127   0.69269   0.42640   0.00000  Uiso   1.00
C1189  C     0.57937   0.81570   0.54044   0.00000  Uiso   1.00
O1190  O     0.56875   0.84321   0.55702   0.00000  Uiso   1.00
O1191  O     0.61652   0.80716   0.53956   0.00000  Uiso   1.00
H1192  H     0.63196   0.82573   0.55393   0.00000  Uiso   1.00
C1193  C     0.81775   0.57851   0.45945   0.00000  Uiso   1.00
O1194  O     0.84504   0.56791   0.44243   0.00000  Uiso   1.00
O1195  O     0.80942   0.61570   0.46080   0.00000  Uiso   1.00
H1196  H     0.82795   0.63117   0.44640   0.00000  Uiso   1.00
C1197  C     0.69915   0.91100   0.54124   0.00000  Uiso   1.00
O1198  O     0.66612   0.90631   0.54080   0.00000  Uiso   1.00
O1199  O     0.72177   0.88691   0.56144   0.00000  Uiso   1.00
H1200  H     0.70758   0.86657   0.57451   0.00000  Uiso   1.00
C1201  C     0.58349   0.81018   0.45892   0.00000  Uiso   1.00
O1202  O     0.58499   0.84350   0.45997   0.00000  Uiso   1.00
O1203  O     0.60998   0.79027   0.43886   0.00000  Uiso   1.00
H1204  H     0.62894   0.80654   0.42620   0.00000  Uiso   1.00
C1205  C     0.92110   0.68364   0.54047   0.00000  Uiso   1.00
O1206  O     0.93198   0.65635   0.55726   0.00000  Uiso   1.00
O1207  O     0.88385   0.69172   0.53935   0.00000  Uiso   1.00
H1208  H     0.86858   0.67301   0.55372   0.00000  Uiso   1.00
C1209  C     0.70021   0.91028   0.45908   0.00000  Uiso   1.00
O1210  O     0.66721   0.90531   0.45902   0.00000  Uiso   1.00
O1211  O     0.72335   0.88614   0.43960   0.00000  Uiso   1.00
H1212  H     0.70954   0.86554   0.42657   0.00000  Uiso   1.00
C1213  C     0.81153   0.58308   0.54092   0.00000  Uiso   1.00
O1214  O     0.84488   0.58426   0.54094   0.00000  Uiso   1.00
O1215  O     0.79129   0.61023   0.55954   0.00000  Uiso   1.00
H1216  H     0.80736   0.62933   0.57226   0.00000  Uiso   1.00
C1217  C     0.67109   0.93365   0.95953   0.00000  Uiso   1.00
O1218  O     0.68195   0.90636   0.94271   0.00000  Uiso   1.00
O1219  O     0.63384   0.94172   0.96067   0.00000  Uiso   1.00
H1220  H     0.61856   0.92303   0.94630   0.00000  Uiso   1.00
C1221  C     0.83375   0.55979   0.04109   0.00000  Uiso   1.00
O1222  O     0.83551   0.59310   0.03993   0.00000  Uiso   1.00
O1223  O     0.86006   0.53975   0.06125   0.00000  Uiso   1.00
H1224  H     0.87912   0.55591   0.07388   0.00000  Uiso   1.00
C1225  C     0.56151   0.83310   0.95908   0.00000  Uiso   1.00
O1226  O     0.59486   0.83428   0.95906   0.00000  Uiso   1.00
O1227  O     0.54127   0.86025   0.94047   0.00000  Uiso   1.00
H1228  H     0.55733   0.87935   0.92775   0.00000  Uiso   1.00
C1229  C     0.95024   0.66027   0.04092   0.00000  Uiso   1.00
O1230  O     0.91723   0.65536   0.04106   0.00000  Uiso   1.00
O1231  O     0.97337   0.63608   0.06031   0.00000  Uiso   1.00
H1232  H     0.95955   0.61548   0.07336   0.00000  Uiso   1.00
C1233  C     0.82966   0.56533   0.95957   0.00000  Uiso   1.00
O1234  O     0.81923   0.59301   0.94318   0.00000  Uiso   1.00
O1235  O     0.86674   0.55644   0.96025   0.00000  Uiso   1.00
H1236  H     0.88229   0.57494   0.94591   0.00000  Uiso   1.00
C1237  C     0.66682   0.93928   0.04105   0.00000  Uiso   1.00
O1238  O     0.66552   0.90594   0.04011   0.00000  Uiso   1.00
O1239  O     0.64013   0.95909   0.06092   0.00000  Uiso   1.00
H1240  H     0.62124   0.94274   0.07357   0.00000  Uiso   1.00
C1241  C     0.94926   0.66094   0.95875   0.00000  Uiso   1.00
O1242  O     0.91625   0.65613   0.95928   0.00000  Uiso   1.00
O1243  O     0.97192   0.63694   0.93846   0.00000  Uiso   1.00
H1244  H     0.95777   0.61658   0.92540   0.00000  Uiso   1.00
C1245  C     0.56773   0.82854   0.04055   0.00000  Uiso   1.00
O1246  O     0.59501   0.81795   0.05757   0.00000  Uiso   1.00
O1247  O     0.55938   0.86573   0.03920   0.00000  Uiso   1.00
H1248  H     0.57789   0.88120   0.05360   0.00000  Uiso   1.00
F1249  F     0.54747   0.79323   0.39678   0.00000  Uiso   1.00
F1250  F     0.94701   0.71345   0.60285   0.00000  Uiso   1.00
F1251  F     0.71077   0.94947   0.39750   0.00000  Uiso   1.00
F1252  F     0.79231   0.54878   0.60344   0.00000  Uiso   1.00
F1253  F     0.95253   0.70668   0.39673   0.00000  Uiso   1.00
F1254  F     0.55299   0.78647   0.60286   0.00000  Uiso   1.00
F1255  F     0.78815   0.55220   0.39694   0.00000  Uiso   1.00
F1256  F     0.70878   0.95098   0.60252   0.00000  Uiso   1.00
F1257  F     0.80298   0.53647   0.89713   0.00000  Uiso   1.00
F1258  F     0.70249   0.95672   0.10327   0.00000  Uiso   1.00
F1259  F     0.95879   0.70098   0.89749   0.00000  Uiso   1.00
F1260  F     0.53813   0.80223   0.10306   0.00000  Uiso   1.00
F1261  F     0.69699   0.96348   0.89715   0.00000  Uiso   1.00
F1262  F     0.79751   0.54318   0.10321   0.00000  Uiso   1.00
F1263  F     0.54229   0.79879   0.89656   0.00000  Uiso   1.00
F1264  F     0.96081   0.69943   0.10250   0.00000  Uiso   1.00
loop_
_geom_bond_atom_site_label_1
_geom_bond_atom_site_label_2
_geom_bond_distance
_geom_bond_site_symmetry_2
_ccdc_geom_bond_type
C1     C101    1.409   .     A
C1     C17     1.391   .     A
C1     F301    1.359   .     S
C2     F302    1.359   .     S
C2     C102    1.410   .     A
C2     C334    1.393   .     S
C3     C19     1.393   .     A
C3     C103    1.408   .     A
C3     F303    1.360   .     S
C4     C104    1.411   .     A
C4     F304    1.359   .     S
C4     C652    1.393   1_545 S
C5     F305    1.359   .     S
C5     C97     1.409   .     A
C5     C333    1.391   .     S
C6     F306    1.359   .     S
C6     C98     1.410   .     A
C6     C18     1.393   .     A
C7     C99     1.411   .     A
C7     F307    1.359   .     S
C7     C651    1.394   1_545 S
C8     C100    1.408   .     A
C8     F308    1.360   .     S
C8     C20     1.391   .     A
C9     F309    1.359   .     S
C9     C109    1.410   .     A
C9     C653    1.393   1_545 S
C10    F310    1.359   .     S
C10    C22     1.391   .     A
C10    C110    1.409   .     A
C11    F311    1.360   .     S
C11    C111    1.408   .     A
C11    C339    1.391   .     S
C12    C112    1.411   .     A
C12    C24     1.394   .     A
C12    F312    1.359   .     S
C13    C21     1.393   .     A
C13    C105    1.410   .     A
C13    F313    1.359   .     S
C14    F314    1.360   .     S
C14    C106    1.409   .     A
C14    C654    1.391   1_545 S
C15    F315    1.359   .     S
C15    C107    1.411   .     A
C15    C23     1.393   .     A
C16    F316    1.360   .     S
C16    C108    1.408   .     A
C16    C340    1.393   .     S
C17    C321    1.391   1_455 S
C17    C43     1.458   .     S
C18    C44     1.462   .     S
C18    C318    1.393   1_455 S
C19    C41     1.462   .     S
C19    C639    1.394   .     S
C20    C42     1.460   .     S
C20    C636    1.393   .     S
C21    C47     1.462   .     S
C21    C641    1.393   .     S
C22    C48     1.458   .     S
C22    C646    1.391   .     S
C23    C45     1.460   .     S
C23    C327    1.391   1_455 S
C24    C46     1.462   .     S
C24    C332    1.393   1_455 S
C25    C237    1.487   .     S
C25    C97     1.419   .     A
C25    C30     1.407   .     A
C26    C241    1.486   .     S
C26    C98     1.420   .     A
C26    C29     1.407   .     A
C27    C99     1.420   .     A
C27    C245    1.487   .     S
C27    C32     1.408   .     A
C28    C100    1.418   .     A
C28    C249    1.486   .     S
C28    C31     1.407   .     A
C29    C253    1.487   .     S
C29    C101    1.419   .     A
C30    C257    1.487   .     S
C30    C102    1.420   .     A
C31    C261    1.486   .     S
C31    C103    1.419   .     A
C32    C104    1.420   .     A
C32    C265    1.486   .     S
C33    C105    1.420   .     A
C33    C269    1.487   .     S
C33    C38     1.407   1_556 S
C34    C106    1.419   .     A
C34    C273    1.487   .     S
C34    C37     1.407   1_554 S
C35    C107    1.420   .     A
C35    C277    1.486   .     S
C35    C40     1.408   1_556 S
C36    C108    1.419   .     A
C36    C281    1.486   .     S
C36    C39     1.407   1_554 S
C37    C109    1.420   .     A
C37    C285    1.486   .     S
C37    C34     1.407   1_556 S
C38    C289    1.487   .     S
C38    C110    1.419   .     A
C38    C33     1.407   1_554 S
C39    C111    1.418   .     A
C39    C293    1.486   .     S
C39    C36     1.407   1_556 S
C40    C112    1.420   .     A
C40    C297    1.487   .     S
C40    C35     1.408   1_554 S
C41    O173    1.280   .     A
C41    O809    1.281   .     S
C42    O178    1.279   .     A
C42    O806    1.280   .     S
C43    O495    1.279   1_455 A
C43    O175    1.279   .     S
C44    O180    1.280   .     A
C44    O492    1.280   1_455 S
C45    O181    1.279   .     A
C45    O185    1.280   .     S
C46    O186    1.280   .     A
C46    O182    1.281   .     S
C47    O815    1.280   .     S
C47    O819    1.280   .     S
C48    O816    1.279   .     S
C48    O820    1.279   .     S
C49    C115    1.456   .     S
C49    O215    1.282   .     A
C49    O189    1.282   .     A
C50    O216    1.282   .     A
C50    O190    1.282   .     A
C50    C116    1.456   .     S
C51    O191    1.282   .     A
C51    C117    1.454   .     S
C51    O213    1.282   .     A
C52    O214    1.282   .     A
C52    C118    1.454   .     S
C52    O192    1.282   .     A
C53    O219    1.282   .     A
C53    O193    1.282   .     A
C53    C119    1.456   .     S
C54    O194    1.282   .     A
C54    C120    1.456   .     S
C54    O220    1.282   .     A
C55    O217    1.282   .     A
C55    O195    1.282   .     A
C55    C113    1.454   .     S
C56    O218    1.282   .     A
C56    O196    1.282   .     A
C56    C114    1.454   .     S
C57    C123    1.454   .     S
C57    O197    1.282   .     A
C57    O207    1.282   .     A
C58    O208    1.282   .     A
C58    O198    1.282   .     A
C58    C124    1.454   .     S
C59    C125    1.456   .     S
C59    O205    1.282   .     A
C59    O199    1.282   .     A
C60    O200    1.282   .     A
C60    O206    1.282   .     A
C60    C126    1.456   .     S
C61    C127    1.454   .     S
C61    O211    1.282   .     A
C61    O201    1.282   .     A
C62    O212    1.282   .     A
C62    O202    1.282   .     A
C62    C128    1.454   .     S
C63    O203    1.282   .     A
C63    O209    1.282   .     A
C63    C121    1.456   .     S
C64    O204    1.282   .     A
C64    O210    1.282   .     A
C64    C122    1.456   .     S
C65    H137    1.083   .     S
C65    C128    1.402   .     A
C65    C80     1.386   .     A
C66    C79     1.385   .     A
C66    H138    1.083   .     S
C66    C127    1.402   .     A
C67    H139    1.083   .     S
C67    C126    1.402   .     A
C67    C78     1.386   .     A
C68    H140    1.083   .     S
C68    C77     1.386   .     A
C68    C125    1.402   .     A
C69    C76     1.385   .     A
C69    H141    1.083   .     S
C69    C124    1.402   .     A
C70    C123    1.402   .     A
C70    H142    1.083   .     S
C70    C75     1.385   .     A
C71    C122    1.402   .     A
C71    H143    1.083   .     S
C71    C74     1.386   .     A
C72    H144    1.083   .     S
C72    C73     1.386   .     A
C72    C121    1.402   .     A
C73    H145    1.083   .     S
C73    C120    1.402   .     A
C74    H146    1.083   .     S
C74    C119    1.402   .     A
C75    C118    1.402   .     A
C75    H147    1.083   .     S
C76    H148    1.083   .     S
C76    C117    1.402   .     A
C77    H149    1.083   .     S
C77    C116    1.402   .     A
C78    C115    1.402   .     A
C78    H150    1.083   .     S
C79    H151    1.083   .     S
C79    C114    1.402   .     A
C80    C113    1.402   .     A
C80    H152    1.083   .     S
C81    H153    1.083   .     S
C81    C114    1.402   .     A
C81    C96     1.385   .     A
C82    C95     1.385   .     A
C82    C113    1.402   .     A
C82    H154    1.083   .     S
C83    H155    1.083   .     S
C83    C94     1.386   .     A
C83    C116    1.402   .     A
C84    H156    1.083   .     S
C84    C93     1.386   .     A
C84    C115    1.402   .     A
C85    C92     1.385   .     A
C85    H157    1.083   .     S
C85    C118    1.402   .     A
C86    C117    1.402   .     A
C86    C91     1.385   .     A
C86    H158    1.083   .     S
C87    H159    1.083   .     S
C87    C90     1.386   .     A
C87    C120    1.402   .     A
C88    C119    1.402   .     A
C88    H160    1.083   .     S
C88    C89     1.386   .     A
C89    C122    1.402   .     A
C89    H161    1.083   .     S
C90    H162    1.083   .     S
C90    C121    1.402   .     A
C91    H163    1.083   .     S
C91    C124    1.402   .     A
C92    C123    1.402   .     A
C92    H164    1.083   .     S
C93    C126    1.402   .     A
C93    H165    1.083   .     S
C94    C125    1.402   .     A
C94    H166    1.083   .     S
C95    C128    1.402   .     A
C95    H167    1.083   .     S
C96    H168    1.083   .     S
C96    C127    1.402   .     A
C97    C445    1.426   .     S
C98    C130    1.425   .     A
C99    C763    1.425   1_545 S
C100   C132    1.425   .     A
C101   C129    1.425   .     A
C102   C446    1.425   .     S
C103   C131    1.424   .     A
C104   C764    1.425   1_545 S
C105   C133    1.425   .     A
C106   C766    1.425   1_545 S
C107   C135    1.425   .     A
C108   C452    1.424   .     S
C109   C765    1.425   1_545 S
C110   C134    1.426   .     A
C111   C451    1.425   .     S
C112   C136    1.425   .     A
C129   C130    1.412   .     A
C129   C413    1.426   1_455 S
C130   C418    1.425   1_455 S
C131   C132    1.412   .     A
C131   C731    1.425   .     S
C132   C736    1.425   .     S
C133   C741    1.425   .     S
C133   C134    1.412   1_556 S
C134   C738    1.425   .     S
C134   C133    1.412   1_554 S
C135   C427    1.425   1_455 S
C135   C136    1.412   1_556 S
C136   C424    1.424   1_455 S
C136   C135    1.412   1_554 S
O169   Zn232   1.949   .     S
O169   Zn221   1.949   .     S
O169   Zn225   1.949   .     S
O169   Zn868   1.949   1_545 S
O170   Zn235   1.949   .     S
O170   Zn222   1.949   .     S
O170   Zn226   1.949   .     S
O170   Zn863   1.949   1_545 S
O171   Zn230   1.949   .     S
O171   Zn223   1.949   .     S
O171   Zn227   1.949   .     S
O171   Zn550   1.949   1_455 S
O172   Zn545   1.949   1_455 S
O172   Zn224   1.949   .     S
O172   Zn228   1.949   .     S
O172   Zn233   1.949   .     S
O173   Zn236   1.953   .     S
O174   Zn235   1.953   .     S
O174   C674    1.280   1_545 S
O175   Zn230   1.953   .     S
O176   Zn229   1.953   .     S
O176   C360    1.280   .     S
O177   Zn232   1.953   .     S
O177   C673    1.281   1_545 S
O178   Zn231   1.953   .     S
O179   C359    1.279   .     A
O179   Zn234   1.953   .     S
O180   Zn233   1.953   .     S
O181   Zn228   1.953   .     S
O182   Zn227   1.953   .     S
O183   C679    1.280   1_545 S
O183   Zn222   1.953   .     S
O184   C680    1.279   1_545 S
O184   Zn221   1.953   .     S
O185   Zn224   1.953   .     S
O186   Zn223   1.953   .     S
O187   C679    1.280   1_545 S
O187   Zn226   1.953   .     S
O188   C680    1.279   1_545 S
O188   Zn225   1.953   .     S
O189   Zn232   1.937   .     S
O190   Zn231   1.937   .     S
O191   Zn234   1.935   .     S
O192   Zn233   1.935   .     S
O193   Zn236   1.937   .     S
O194   Zn235   1.937   .     S
O195   Zn230   1.935   .     S
O196   Zn229   1.935   .     S
O197   Zn231   1.935   .     S
O198   Zn232   1.935   .     S
O199   Zn229   1.937   .     S
O200   Zn230   1.937   .     S
O201   Zn235   1.935   .     S
O202   Zn236   1.935   .     S
O203   Zn233   1.937   .     S
O204   Zn234   1.937   .     S
O205   Zn540   1.937   .     S
O206   Zn223   1.937   .     S
O207   Zn858   1.935   .     S
O208   Zn225   1.935   .     S
O209   Zn228   1.937   .     S
O210   Zn543   1.937   .     S
O211   Zn222   1.935   .     S
O212   Zn853   1.935   .     S
O213   Zn539   1.935   .     S
O214   Zn224   1.935   .     S
O215   Zn221   1.937   .     S
O216   Zn854   1.937   .     S
O217   Zn227   1.935   .     S
O218   Zn544   1.935   .     S
O219   Zn857   1.937   .     S
O220   Zn226   1.937   .     S
Zn221  O844    1.935   1_545 S
Zn222  O848    1.937   1_545 S
Zn223  O529    1.935   1_455 S
Zn224  O521    1.937   1_455 S
Zn225  O851    1.937   1_545 S
Zn226  O839    1.935   1_545 S
Zn227  O526    1.937   1_455 S
Zn228  O534    1.935   1_455 S
Zn229  O488    1.949   .     S
Zn231  O802    1.949   .     S
Zn234  O487    1.949   .     S
Zn236  O801    1.949   .     S
C237   O238    1.223   .     D
C237   O239    1.398   .     S
O239   H240    1.014   .     S
C241   O242    1.223   .     D
C241   O243    1.398   .     S
O243   H244    1.014   .     S
C245   O246    1.223   .     D
C245   O247    1.398   .     S
O247   H248    1.014   .     S
C249   O251    1.398   .     S
C249   O250    1.223   .     D
O251   H252    1.014   .     S
C253   O254    1.223   .     D
C253   O255    1.398   .     S
O255   H256    1.014   .     S
C257   O259    1.398   .     S
C257   O258    1.223   .     D
O259   H260    1.014   .     S
C261   O262    1.223   .     D
C261   O263    1.398   .     S
O263   H264    1.014   .     S
C265   O267    1.398   .     S
C265   O266    1.223   .     D
O267   H268    1.014   .     S
C269   O270    1.223   .     D
C269   O271    1.398   .     S
O271   H272    1.014   .     S
C273   O275    1.398   .     S
C273   O274    1.223   .     D
O275   H276    1.014   .     S
C277   O279    1.398   .     S
C277   O278    1.223   .     D
O279   H280    1.014   .     S
C281   O283    1.398   .     S
C281   O282    1.223   .     D
O283   H284    1.014   .     S
C285   O287    1.398   .     S
C285   O286    1.223   .     D
O287   H288    1.014   .     S
C289   O290    1.223   .     D
C289   O291    1.398   .     S
O291   H292    1.014   .     S
C293   O294    1.223   .     D
C293   O295    1.398   .     S
O295   H296    1.014   .     S
C297   O299    1.398   .     S
C297   O298    1.223   .     D
O299   H300    1.014   .     S
C317   C417    1.409   .     A
C317   C333    1.391   .     A
C317   F617    1.359   .     S
C318   F618    1.359   .     S
C318   C418    1.410   .     A
C318   C18     1.393   1_655 S
C319   C335    1.393   .     A
C319   C419    1.408   .     A
C319   F619    1.360   .     S
C320   C420    1.411   .     A
C320   F620    1.359   .     S
C320   C968    1.393   1_545 S
C321   F621    1.359   .     S
C321   C413    1.409   .     A
C321   C17     1.391   1_655 S
C322   F622    1.359   .     S
C322   C414    1.410   .     A
C322   C334    1.393   .     A
C323   C415    1.411   .     A
C323   F623    1.359   .     S
C323   C967    1.394   1_545 S
C324   C416    1.408   .     A
C324   F624    1.360   .     S
C324   C336    1.391   .     A
C325   F625    1.359   .     S
C325   C425    1.410   .     A
C325   C969    1.393   1_545 S
C326   F626    1.359   .     S
C326   C338    1.391   .     A
C326   C426    1.409   .     A
C327   F627    1.360   .     S
C327   C427    1.408   .     A
C327   C23     1.391   1_655 S
C328   C428    1.411   .     A
C328   C340    1.394   .     A
C328   F628    1.359   .     S
C329   C337    1.393   .     A
C329   C421    1.410   .     A
C329   F629    1.359   .     S
C330   F630    1.360   .     S
C330   C422    1.409   .     A
C330   C970    1.391   1_545 S
C331   F631    1.359   .     S
C331   C423    1.411   .     A
C331   C339    1.393   .     A
C332   F632    1.360   .     S
C332   C424    1.408   .     A
C332   C24     1.393   1_655 S
C333   C359    1.458   .     S
C334   C360    1.462   .     S
C335   C357    1.462   .     S
C335   C955    1.394   .     S
C336   C358    1.460   .     S
C336   C952    1.393   .     S
C337   C363    1.462   .     S
C337   C957    1.393   .     S
C338   C364    1.458   .     S
C338   C962    1.391   .     S
C339   C361    1.460   .     S
C340   C362    1.462   .     S
C341   C553    1.487   .     S
C341   C413    1.419   .     A
C341   C346    1.407   .     A
C342   C557    1.486   .     S
C342   C414    1.420   .     A
C342   C345    1.407   .     A
C343   C415    1.420   .     A
C343   C561    1.487   .     S
C343   C348    1.408   .     A
C344   C416    1.418   .     A
C344   C565    1.486   .     S
C344   C347    1.407   .     A
C345   C569    1.487   .     S
C345   C417    1.419   .     A
C346   C573    1.487   .     S
C346   C418    1.420   .     A
C347   C577    1.486   .     S
C347   C419    1.419   .     A
C348   C420    1.420   .     A
C348   C581    1.486   .     S
C349   C421    1.420   .     A
C349   C585    1.487   .     S
C349   C354    1.407   1_556 S
C350   C422    1.419   .     A
C350   C589    1.487   .     S
C350   C353    1.407   1_554 S
C351   C423    1.420   .     A
C351   C593    1.486   .     S
C351   C356    1.408   1_556 S
C352   C424    1.419   .     A
C352   C597    1.486   .     S
C352   C355    1.407   1_554 S
C353   C425    1.420   .     A
C353   C601    1.486   .     S
C353   C350    1.407   1_556 S
C354   C605    1.487   .     S
C354   C426    1.419   .     A
C354   C349    1.407   1_554 S
C355   C427    1.418   .     A
C355   C609    1.486   .     S
C355   C352    1.407   1_556 S
C356   C428    1.420   .     A
C356   C613    1.487   .     S
C356   C351    1.408   1_554 S
C357   O489    1.280   .     A
C357   O1125   1.281   .     S
C358   O494    1.279   .     A
C358   O1122   1.280   .     S
C359   O491    1.279   .     S
C360   O496    1.280   .     A
C361   O497    1.279   .     A
C361   O501    1.280   .     S
C362   O502    1.280   .     A
C362   O498    1.281   .     S
C363   O1131   1.280   .     S
C363   O1135   1.280   .     S
C364   O1132   1.279   .     S
C364   O1136   1.279   .     S
C365   C431    1.456   .     S
C365   O531    1.282   .     A
C365   O505    1.282   .     A
C366   O532    1.282   .     A
C366   O506    1.282   .     A
C366   C432    1.456   .     S
C367   O507    1.282   .     A
C367   C433    1.454   .     S
C367   O529    1.282   .     A
C368   O530    1.282   .     A
C368   C434    1.454   .     S
C368   O508    1.282   .     A
C369   O535    1.282   .     A
C369   O509    1.282   .     A
C369   C435    1.456   .     S
C370   O510    1.282   .     A
C370   C436    1.456   .     S
C370   O536    1.282   .     A
C371   O533    1.282   .     A
C371   O511    1.282   .     A
C371   C429    1.454   .     S
C372   O534    1.282   .     A
C372   O512    1.282   .     A
C372   C430    1.454   .     S
C373   C439    1.454   .     S
C373   O513    1.282   .     A
C373   O523    1.282   .     A
C374   O524    1.282   .     A
C374   O514    1.282   .     A
C374   C440    1.454   .     S
C375   C441    1.456   .     S
C375   O521    1.282   .     A
C375   O515    1.282   .     A
C376   O516    1.282   .     A
C376   O522    1.282   .     A
C376   C442    1.456   .     S
C377   C443    1.454   .     S
C377   O527    1.282   .     A
C377   O517    1.282   .     A
C378   O528    1.282   .     A
C378   O518    1.282   .     A
C378   C444    1.454   .     S
C379   O519    1.282   .     A
C379   O525    1.282   .     A
C379   C437    1.456   .     S
C380   O520    1.282   .     A
C380   O526    1.282   .     A
C380   C438    1.456   .     S
C381   H453    1.083   .     S
C381   C444    1.402   .     A
C381   C396    1.386   .     A
C382   C395    1.385   .     A
C382   H454    1.083   .     S
C382   C443    1.402   .     A
C383   H455    1.083   .     S
C383   C442    1.402   .     A
C383   C394    1.386   .     A
C384   H456    1.083   .     S
C384   C393    1.386   .     A
C384   C441    1.402   .     A
C385   C392    1.385   .     A
C385   H457    1.083   .     S
C385   C440    1.402   .     A
C386   C439    1.402   .     A
C386   H458    1.083   .     S
C386   C391    1.385   .     A
C387   C438    1.402   .     A
C387   H459    1.083   .     S
C387   C390    1.386   .     A
C388   H460    1.083   .     S
C388   C389    1.386   .     A
C388   C437    1.402   .     A
C389   H461    1.083   .     S
C389   C436    1.402   .     A
C390   H462    1.083   .     S
C390   C435    1.402   .     A
C391   C434    1.402   .     A
C391   H463    1.083   .     S
C392   H464    1.083   .     S
C392   C433    1.402   .     A
C393   H465    1.083   .     S
C393   C432    1.402   .     A
C394   C431    1.402   .     A
C394   H466    1.083   .     S
C395   H467    1.083   .     S
C395   C430    1.402   .     A
C396   C429    1.402   .     A
C396   H468    1.083   .     S
C397   H469    1.083   .     S
C397   C430    1.402   .     A
C397   C412    1.385   .     A
C398   C411    1.385   .     A
C398   C429    1.402   .     A
C398   H470    1.083   .     S
C399   H471    1.083   .     S
C399   C410    1.386   .     A
C399   C432    1.402   .     A
C400   H472    1.083   .     S
C400   C409    1.386   .     A
C400   C431    1.402   .     A
C401   C408    1.385   .     A
C401   H473    1.083   .     S
C401   C434    1.402   .     A
C402   C433    1.402   .     A
C402   C407    1.385   .     A
C402   H474    1.083   .     S
C403   H475    1.083   .     S
C403   C406    1.386   .     A
C403   C436    1.402   .     A
C404   C435    1.402   .     A
C404   H476    1.083   .     S
C404   C405    1.386   .     A
C405   C438    1.402   .     A
C405   H477    1.083   .     S
C406   H478    1.083   .     S
C406   C437    1.402   .     A
C407   H479    1.083   .     S
C407   C440    1.402   .     A
C408   C439    1.402   .     A
C408   H480    1.083   .     S
C409   C442    1.402   .     A
C409   H481    1.083   .     S
C410   C441    1.402   .     A
C410   H482    1.083   .     S
C411   C444    1.402   .     A
C411   H483    1.083   .     S
C412   H484    1.083   .     S
C412   C443    1.402   .     A
C413   C129    1.426   1_655 S
C414   C446    1.425   .     A
C415   C1079   1.425   1_545 S
C416   C448    1.425   .     A
C417   C445    1.425   .     A
C418   C130    1.425   1_655 S
C419   C447    1.424   .     A
C420   C1080   1.425   1_545 S
C421   C449    1.425   .     A
C422   C1082   1.425   1_545 S
C423   C451    1.425   .     A
C424   C136    1.424   1_655 S
C425   C1081   1.425   1_545 S
C426   C450    1.426   .     A
C427   C135    1.425   1_655 S
C428   C452    1.425   .     A
C445   C446    1.412   .     A
C447   C448    1.412   .     A
C447   C1047   1.425   .     S
C448   C1052   1.425   .     S
C449   C1057   1.425   .     S
C449   C450    1.412   1_556 S
C450   C1054   1.425   .     S
C450   C449    1.412   1_554 S
C451   C452    1.412   1_556 S
C452   C451    1.412   1_554 S
O485   Zn548   1.949   .     S
O485   Zn537   1.949   .     S
O485   Zn541   1.949   .     S
O485   Zn1184  1.949   1_545 S
O486   Zn551   1.949   .     S
O486   Zn538   1.949   .     S
O486   Zn542   1.949   .     S
O486   Zn1179  1.949   1_545 S
O487   Zn546   1.949   .     S
O487   Zn539   1.949   .     S
O487   Zn543   1.949   .     S
O488   Zn540   1.949   .     S
O488   Zn544   1.949   .     S
O488   Zn549   1.949   .     S
O489   Zn552   1.953   .     S
O490   Zn551   1.953   .     S
O490   C990    1.280   1_545 S
O491   Zn546   1.953   .     S
O492   Zn545   1.953   .     S
O492   C44     1.280   1_655 S
O493   Zn548   1.953   .     S
O493   C989    1.281   1_545 S
O494   Zn547   1.953   .     S
O495   C43     1.279   1_655 A
O495   Zn550   1.953   .     S
O496   Zn549   1.953   .     S
O497   Zn544   1.953   .     S
O498   Zn543   1.953   .     S
O499   C995    1.280   1_545 S
O499   Zn538   1.953   .     S
O500   C996    1.279   1_545 S
O500   Zn537   1.953   .     S
O501   Zn540   1.953   .     S
O502   Zn539   1.953   .     S
O503   C995    1.280   1_545 S
O503   Zn542   1.953   .     S
O504   C996    1.279   1_545 S
O504   Zn541   1.953   .     S
O505   Zn548   1.937   .     S
O506   Zn547   1.937   .     S
O507   Zn550   1.935   .     S
O508   Zn549   1.935   .     S
O509   Zn552   1.937   .     S
O510   Zn551   1.937   .     S
O511   Zn546   1.935   .     S
O512   Zn545   1.935   .     S
O513   Zn547   1.935   .     S
O514   Zn548   1.935   .     S
O515   Zn545   1.937   .     S
O516   Zn546   1.937   .     S
O517   Zn551   1.935   .     S
O518   Zn552   1.935   .     S
O519   Zn549   1.937   .     S
O520   Zn550   1.937   .     S
O521   Zn224   1.937   1_655 S
O522   Zn539   1.937   .     S
O523   Zn1174  1.935   .     S
O524   Zn541   1.935   .     S
O525   Zn544   1.937   .     S
O526   Zn227   1.937   1_655 S
O527   Zn538   1.935   .     S
O528   Zn1169  1.935   .     S
O529   Zn223   1.935   1_655 S
O530   Zn540   1.935   .     S
O531   Zn537   1.937   .     S
O532   Zn1170  1.937   .     S
O533   Zn543   1.935   .     S
O534   Zn228   1.935   1_655 S
O535   Zn1173  1.937   .     S
O536   Zn542   1.937   .     S
Zn537  O1160   1.935   1_545 S
Zn538  O1164   1.937   1_545 S
Zn541  O1167   1.937   1_545 S
Zn542  O1155   1.935   1_545 S
Zn545  O172    1.949   1_655 S
Zn547  O1118   1.949   .     S
Zn550  O171    1.949   1_655 S
Zn552  O1117   1.949   .     S
C553   O554    1.223   .     D
C553   O555    1.398   .     S
O555   H556    1.014   .     S
C557   O558    1.223   .     D
C557   O559    1.398   .     S
O559   H560    1.014   .     S
C561   O562    1.223   .     D
C561   O563    1.398   .     S
O563   H564    1.014   .     S
C565   O567    1.398   .     S
C565   O566    1.223   .     D
O567   H568    1.014   .     S
C569   O570    1.223   .     D
C569   O571    1.398   .     S
O571   H572    1.014   .     S
C573   O575    1.398   .     S
C573   O574    1.223   .     D
O575   H576    1.014   .     S
C577   O578    1.223   .     D
C577   O579    1.398   .     S
O579   H580    1.014   .     S
C581   O583    1.398   .     S
C581   O582    1.223   .     D
O583   H584    1.014   .     S
C585   O586    1.223   .     D
C585   O587    1.398   .     S
O587   H588    1.014   .     S
C589   O591    1.398   .     S
C589   O590    1.223   .     D
O591   H592    1.014   .     S
C593   O595    1.398   .     S
C593   O594    1.223   .     D
O595   H596    1.014   .     S
C597   O599    1.398   .     S
C597   O598    1.223   .     D
O599   H600    1.014   .     S
C601   O603    1.398   .     S
C601   O602    1.223   .     D
O603   H604    1.014   .     S
C605   O606    1.223   .     D
C605   O607    1.398   .     S
O607   H608    1.014   .     S
C609   O610    1.223   .     D
C609   O611    1.398   .     S
O611   H612    1.014   .     S
C613   O615    1.398   .     S
C613   O614    1.223   .     D
O615   H616    1.014   .     S
C633   C733    1.409   .     A
C633   C649    1.391   .     A
C633   F933    1.359   .     S
C634   F934    1.359   .     S
C634   C734    1.410   .     A
C634   C966    1.393   .     S
C635   C651    1.393   .     A
C635   C735    1.408   .     A
C635   F935    1.360   .     S
C636   C736    1.411   .     A
C636   F936    1.359   .     S
C637   F937    1.359   .     S
C637   C729    1.409   .     A
C637   C965    1.391   .     S
C638   F938    1.359   .     S
C638   C730    1.410   .     A
C638   C650    1.393   .     A
C639   C731    1.411   .     A
C639   F939    1.359   .     S
C640   C732    1.408   .     A
C640   F940    1.360   .     S
C640   C652    1.391   .     A
C641   F941    1.359   .     S
C641   C741    1.410   .     A
C642   F942    1.359   .     S
C642   C654    1.391   .     A
C642   C742    1.409   .     A
C643   F943    1.360   .     S
C643   C743    1.408   .     A
C643   C971    1.391   .     S
C644   C744    1.411   .     A
C644   C656    1.394   .     A
C644   F944    1.359   .     S
C645   C653    1.393   .     A
C645   C737    1.410   .     A
C645   F945    1.359   .     S
C646   F946    1.360   .     S
C646   C738    1.409   .     A
C647   F947    1.359   .     S
C647   C739    1.411   .     A
C647   C655    1.393   .     A
C648   F948    1.360   .     S
C648   C740    1.408   .     A
C648   C972    1.393   .     S
C649   C953    1.391   1_455 S
C649   C675    1.458   .     S
C650   C676    1.462   .     S
C650   C950    1.393   1_455 S
C651   C673    1.462   .     S
C651   C7      1.394   1_565 S
C652   C674    1.460   .     S
C652   C4      1.393   1_565 S
C653   C679    1.462   .     S
C653   C9      1.393   1_565 S
C654   C680    1.458   .     S
C654   C14     1.391   1_565 S
C655   C677    1.460   .     S
C655   C959    1.391   1_455 S
C656   C678    1.462   .     S
C656   C964    1.393   1_455 S
C657   C869    1.487   .     S
C657   C729    1.419   .     A
C657   C662    1.407   .     A
C658   C873    1.486   .     S
C658   C730    1.420   .     A
C658   C661    1.407   .     A
C659   C731    1.420   .     A
C659   C877    1.487   .     S
C659   C664    1.408   .     A
C660   C732    1.418   .     A
C660   C881    1.486   .     S
C660   C663    1.407   .     A
C661   C885    1.487   .     S
C661   C733    1.419   .     A
C662   C889    1.487   .     S
C662   C734    1.420   .     A
C663   C893    1.486   .     S
C663   C735    1.419   .     A
C664   C736    1.420   .     A
C664   C897    1.486   .     S
C665   C737    1.420   .     A
C665   C901    1.487   .     S
C665   C670    1.407   1_556 S
C666   C738    1.419   .     A
C666   C905    1.487   .     S
C666   C669    1.407   1_554 S
C667   C739    1.420   .     A
C667   C909    1.486   .     S
C667   C672    1.408   1_556 S
C668   C740    1.419   .     A
C668   C913    1.486   .     S
C668   C671    1.407   1_554 S
C669   C741    1.420   .     A
C669   C917    1.486   .     S
C669   C666    1.407   1_556 S
C670   C921    1.487   .     S
C670   C742    1.419   .     A
C670   C665    1.407   1_554 S
C671   C743    1.418   .     A
C671   C925    1.486   .     S
C671   C668    1.407   1_556 S
C672   C744    1.420   .     A
C672   C929    1.487   .     S
C672   C667    1.408   1_554 S
C673   O805    1.280   .     A
C673   O177    1.281   1_565 S
C674   O810    1.279   .     A
C674   O174    1.280   1_565 S
C675   O1127   1.279   1_455 A
C675   O807    1.279   .     S
C676   O812    1.280   .     A
C676   O1124   1.280   1_455 S
C677   O813    1.279   .     A
C677   O817    1.280   .     S
C678   O818    1.280   .     A
C678   O814    1.281   .     S
C679   O183    1.280   1_565 S
C679   O187    1.280   1_565 S
C680   O184    1.279   1_565 S
C680   O188    1.279   1_565 S
C681   C747    1.456   .     S
C681   O847    1.282   .     A
C681   O821    1.282   .     A
C682   O848    1.282   .     A
C682   O822    1.282   .     A
C682   C748    1.456   .     S
C683   O823    1.282   .     A
C683   C749    1.454   .     S
C683   O845    1.282   .     A
C684   O846    1.282   .     A
C684   C750    1.454   .     S
C684   O824    1.282   .     A
C685   O851    1.282   .     A
C685   O825    1.282   .     A
C685   C751    1.456   .     S
C686   O826    1.282   .     A
C686   C752    1.456   .     S
C686   O852    1.282   .     A
C687   O849    1.282   .     A
C687   O827    1.282   .     A
C687   C745    1.454   .     S
C688   O850    1.282   .     A
C688   O828    1.282   .     A
C688   C746    1.454   .     S
C689   C755    1.454   .     S
C689   O829    1.282   .     A
C689   O839    1.282   .     A
C690   O840    1.282   .     A
C690   O830    1.282   .     A
C690   C756    1.454   .     S
C691   C757    1.456   .     S
C691   O837    1.282   .     A
C691   O831    1.282   .     A
C692   O832    1.282   .     A
C692   O838    1.282   .     A
C692   C758    1.456   .     S
C693   C759    1.454   .     S
C693   O843    1.282   .     A
C693   O833    1.282   .     A
C694   O844    1.282   .     A
C694   O834    1.282   .     A
C694   C760    1.454   .     S
C695   O835    1.282   .     A
C695   O841    1.282   .     A
C695   C753    1.456   .     S
C696   O836    1.282   .     A
C696   O842    1.282   .     A
C696   C754    1.456   .     S
C697   H769    1.083   .     S
C697   C760    1.402   .     A
C697   C712    1.386   .     A
C698   C711    1.385   .     A
C698   H770    1.083   .     S
C698   C759    1.402   .     A
C699   H771    1.083   .     S
C699   C758    1.402   .     A
C699   C710    1.386   .     A
C700   H772    1.083   .     S
C700   C709    1.386   .     A
C700   C757    1.402   .     A
C701   C708    1.385   .     A
C701   H773    1.083   .     S
C701   C756    1.402   .     A
C702   C755    1.402   .     A
C702   H774    1.083   .     S
C702   C707    1.385   .     A
C703   C754    1.402   .     A
C703   H775    1.083   .     S
C703   C706    1.386   .     A
C704   H776    1.083   .     S
C704   C705    1.386   .     A
C704   C753    1.402   .     A
C705   H777    1.083   .     S
C705   C752    1.402   .     A
C706   H778    1.083   .     S
C706   C751    1.402   .     A
C707   C750    1.402   .     A
C707   H779    1.083   .     S
C708   H780    1.083   .     S
C708   C749    1.402   .     A
C709   H781    1.083   .     S
C709   C748    1.402   .     A
C710   C747    1.402   .     A
C710   H782    1.083   .     S
C711   H783    1.083   .     S
C711   C746    1.402   .     A
C712   C745    1.402   .     A
C712   H784    1.083   .     S
C713   H785    1.083   .     S
C713   C746    1.402   .     A
C713   C728    1.385   .     A
C714   C727    1.385   .     A
C714   C745    1.402   .     A
C714   H786    1.083   .     S
C715   H787    1.083   .     S
C715   C726    1.386   .     A
C715   C748    1.402   .     A
C716   H788    1.083   .     S
C716   C725    1.386   .     A
C716   C747    1.402   .     A
C717   C724    1.385   .     A
C717   H789    1.083   .     S
C717   C750    1.402   .     A
C718   C749    1.402   .     A
C718   C723    1.385   .     A
C718   H790    1.083   .     S
C719   H791    1.083   .     S
C719   C722    1.386   .     A
C719   C752    1.402   .     A
C720   C751    1.402   .     A
C720   H792    1.083   .     S
C720   C721    1.386   .     A
C721   C754    1.402   .     A
C721   H793    1.083   .     S
C722   H794    1.083   .     S
C722   C753    1.402   .     A
C723   H795    1.083   .     S
C723   C756    1.402   .     A
C724   C755    1.402   .     A
C724   H796    1.083   .     S
C725   C758    1.402   .     A
C725   H797    1.083   .     S
C726   C757    1.402   .     A
C726   H798    1.083   .     S
C727   C760    1.402   .     A
C727   H799    1.083   .     S
C728   H800    1.083   .     S
C728   C759    1.402   .     A
C729   C1077   1.426   .     S
C730   C762    1.425   .     A
C732   C764    1.425   .     A
C733   C761    1.425   .     A
C734   C1078   1.425   .     S
C735   C763    1.424   .     A
C737   C765    1.425   .     A
C739   C767    1.425   .     A
C740   C1084   1.424   .     S
C742   C766    1.426   .     A
C743   C1083   1.425   .     S
C744   C768    1.425   .     A
C761   C762    1.412   .     A
C761   C1045   1.426   1_455 S
C762   C1050   1.425   1_455 S
C763   C764    1.412   .     A
C763   C99     1.425   1_565 S
C764   C104    1.425   1_565 S
C765   C109    1.425   1_565 S
C765   C766    1.412   1_556 S
C766   C106    1.425   1_565 S
C766   C765    1.412   1_554 S
C767   C1059   1.425   1_455 S
C767   C768    1.412   1_556 S
C768   C1056   1.424   1_455 S
C768   C767    1.412   1_554 S
O801   Zn864   1.949   .     S
O801   Zn853   1.949   .     S
O801   Zn857   1.949   .     S
O802   Zn867   1.949   .     S
O802   Zn854   1.949   .     S
O802   Zn858   1.949   .     S
O803   Zn862   1.949   .     S
O803   Zn855   1.949   .     S
O803   Zn859   1.949   .     S
O803   Zn1182  1.949   1_455 S
O804   Zn1177  1.949   1_455 S
O804   Zn856   1.949   .     S
O804   Zn860   1.949   .     S
O804   Zn865   1.949   .     S
O805   Zn868   1.953   .     S
O806   Zn867   1.953   .     S
O807   Zn862   1.953   .     S
O808   Zn861   1.953   .     S
O808   C992    1.280   .     S
O809   Zn864   1.953   .     S
O810   Zn863   1.953   .     S
O811   C991    1.279   .     A
O811   Zn866   1.953   .     S
O812   Zn865   1.953   .     S
O813   Zn860   1.953   .     S
O814   Zn859   1.953   .     S
O815   Zn854   1.953   .     S
O816   Zn853   1.953   .     S
O817   Zn856   1.953   .     S
O818   Zn855   1.953   .     S
O819   Zn858   1.953   .     S
O820   Zn857   1.953   .     S
O821   Zn864   1.937   .     S
O822   Zn863   1.937   .     S
O823   Zn866   1.935   .     S
O824   Zn865   1.935   .     S
O825   Zn868   1.937   .     S
O826   Zn867   1.937   .     S
O827   Zn862   1.935   .     S
O828   Zn861   1.935   .     S
O829   Zn863   1.935   .     S
O830   Zn864   1.935   .     S
O831   Zn861   1.937   .     S
O832   Zn862   1.937   .     S
O833   Zn867   1.935   .     S
O834   Zn868   1.935   .     S
O835   Zn865   1.937   .     S
O836   Zn866   1.937   .     S
O837   Zn1172  1.937   .     S
O838   Zn855   1.937   .     S
O839   Zn226   1.935   1_565 S
O840   Zn857   1.935   .     S
O841   Zn860   1.937   .     S
O842   Zn1175  1.937   .     S
O843   Zn854   1.935   .     S
O844   Zn221   1.935   1_565 S
O845   Zn1171  1.935   .     S
O846   Zn856   1.935   .     S
O847   Zn853   1.937   .     S
O848   Zn222   1.937   1_565 S
O849   Zn859   1.935   .     S
O850   Zn1176  1.935   .     S
O851   Zn225   1.937   1_565 S
O852   Zn858   1.937   .     S
Zn855  O1161   1.935   1_455 S
Zn856  O1153   1.937   1_455 S
Zn859  O1158   1.937   1_455 S
Zn860  O1166   1.935   1_455 S
Zn861  O1120   1.949   .     S
Zn863  O170    1.949   1_565 S
Zn866  O1119   1.949   .     S
Zn868  O169    1.949   1_565 S
C869   O870    1.223   .     D
C869   O871    1.398   .     S
O871   H872    1.014   .     S
C873   O874    1.223   .     D
C873   O875    1.398   .     S
O875   H876    1.014   .     S
C877   O878    1.223   .     D
C877   O879    1.398   .     S
O879   H880    1.014   .     S
C881   O883    1.398   .     S
C881   O882    1.223   .     D
O883   H884    1.014   .     S
C885   O886    1.223   .     D
C885   O887    1.398   .     S
O887   H888    1.014   .     S
C889   O891    1.398   .     S
C889   O890    1.223   .     D
O891   H892    1.014   .     S
C893   O894    1.223   .     D
C893   O895    1.398   .     S
O895   H896    1.014   .     S
C897   O899    1.398   .     S
C897   O898    1.223   .     D
O899   H900    1.014   .     S
C901   O902    1.223   .     D
C901   O903    1.398   .     S
O903   H904    1.014   .     S
C905   O907    1.398   .     S
C905   O906    1.223   .     D
O907   H908    1.014   .     S
C909   O911    1.398   .     S
C909   O910    1.223   .     D
O911   H912    1.014   .     S
C913   O915    1.398   .     S
C913   O914    1.223   .     D
O915   H916    1.014   .     S
C917   O919    1.398   .     S
C917   O918    1.223   .     D
O919   H920    1.014   .     S
C921   O922    1.223   .     D
C921   O923    1.398   .     S
O923   H924    1.014   .     S
C925   O926    1.223   .     D
C925   O927    1.398   .     S
O927   H928    1.014   .     S
C929   O931    1.398   .     S
C929   O930    1.223   .     D
O931   H932    1.014   .     S
C949   C1049   1.409   .     A
C949   C965    1.391   .     A
C949   F1249   1.359   .     S
C950   F1250   1.359   .     S
C950   C1050   1.410   .     A
C950   C650    1.393   1_655 S
C951   C967    1.393   .     A
C951   C1051   1.408   .     A
C951   F1251   1.360   .     S
C952   C1052   1.411   .     A
C952   F1252   1.359   .     S
C953   F1253   1.359   .     S
C953   C1045   1.409   .     A
C953   C649    1.391   1_655 S
C954   F1254   1.359   .     S
C954   C1046   1.410   .     A
C954   C966    1.393   .     A
C955   C1047   1.411   .     A
C955   F1255   1.359   .     S
C956   C1048   1.408   .     A
C956   F1256   1.360   .     S
C956   C968    1.391   .     A
C957   F1257   1.359   .     S
C957   C1057   1.410   .     A
C958   F1258   1.359   .     S
C958   C970    1.391   .     A
C958   C1058   1.409   .     A
C959   F1259   1.360   .     S
C959   C1059   1.408   .     A
C959   C655    1.391   1_655 S
C960   C1060   1.411   .     A
C960   C972    1.394   .     A
C960   F1260   1.359   .     S
C961   C969    1.393   .     A
C961   C1053   1.410   .     A
C961   F1261   1.359   .     S
C962   F1262   1.360   .     S
C962   C1054   1.409   .     A
C963   F1263   1.359   .     S
C963   C1055   1.411   .     A
C963   C971    1.393   .     A
C964   F1264   1.360   .     S
C964   C1056   1.408   .     A
C964   C656    1.393   1_655 S
C965   C991    1.458   .     S
C966   C992    1.462   .     S
C967   C989    1.462   .     S
C967   C323    1.394   1_565 S
C968   C990    1.460   .     S
C968   C320    1.393   1_565 S
C969   C995    1.462   .     S
C969   C325    1.393   1_565 S
C970   C996    1.458   .     S
C970   C330    1.391   1_565 S
C971   C993    1.460   .     S
C972   C994    1.462   .     S
C973   C1185   1.487   .     S
C973   C1045   1.419   .     A
C973   C978    1.407   .     A
C974   C1189   1.486   .     S
C974   C1046   1.420   .     A
C974   C977    1.407   .     A
C975   C1047   1.420   .     A
C975   C1193   1.487   .     S
C975   C980    1.408   .     A
C976   C1048   1.418   .     A
C976   C1197   1.486   .     S
C976   C979    1.407   .     A
C977   C1201   1.487   .     S
C977   C1049   1.419   .     A
C978   C1205   1.487   .     S
C978   C1050   1.420   .     A
C979   C1209   1.486   .     S
C979   C1051   1.419   .     A
C980   C1052   1.420   .     A
C980   C1213   1.486   .     S
C981   C1053   1.420   .     A
C981   C1217   1.487   .     S
C981   C986    1.407   1_556 S
C982   C1054   1.419   .     A
C982   C1221   1.487   .     S
C982   C985    1.407   1_554 S
C983   C1055   1.420   .     A
C983   C1225   1.486   .     S
C983   C988    1.408   1_556 S
C984   C1056   1.419   .     A
C984   C1229   1.486   .     S
C984   C987    1.407   1_554 S
C985   C1057   1.420   .     A
C985   C1233   1.486   .     S
C985   C982    1.407   1_556 S
C986   C1237   1.487   .     S
C986   C1058   1.419   .     A
C986   C981    1.407   1_554 S
C987   C1059   1.418   .     A
C987   C1241   1.486   .     S
C987   C984    1.407   1_556 S
C988   C1060   1.420   .     A
C988   C1245   1.487   .     S
C988   C983    1.408   1_554 S
C989   O1121   1.280   .     A
C989   O493    1.281   1_565 S
C990   O1126   1.279   .     A
C990   O490    1.280   1_565 S
C991   O1123   1.279   .     S
C992   O1128   1.280   .     A
C993   O1129   1.279   .     A
C993   O1133   1.280   .     S
C994   O1134   1.280   .     A
C994   O1130   1.281   .     S
C995   O499    1.280   1_565 S
C995   O503    1.280   1_565 S
C996   O500    1.279   1_565 S
C996   O504    1.279   1_565 S
C997   C1063   1.456   .     S
C997   O1163   1.282   .     A
C997   O1137   1.282   .     A
C998   O1164   1.282   .     A
C998   O1138   1.282   .     A
C998   C1064   1.456   .     S
C999   O1139   1.282   .     A
C999   C1065   1.454   .     S
C999   O1161   1.282   .     A
C1000  O1162   1.282   .     A
C1000  C1066   1.454   .     S
C1000  O1140   1.282   .     A
C1001  O1167   1.282   .     A
C1001  O1141   1.282   .     A
C1001  C1067   1.456   .     S
C1002  O1142   1.282   .     A
C1002  C1068   1.456   .     S
C1002  O1168   1.282   .     A
C1003  O1165   1.282   .     A
C1003  O1143   1.282   .     A
C1003  C1061   1.454   .     S
C1004  O1166   1.282   .     A
C1004  O1144   1.282   .     A
C1004  C1062   1.454   .     S
C1005  C1071   1.454   .     S
C1005  O1145   1.282   .     A
C1005  O1155   1.282   .     A
C1006  O1156   1.282   .     A
C1006  O1146   1.282   .     A
C1006  C1072   1.454   .     S
C1007  C1073   1.456   .     S
C1007  O1153   1.282   .     A
C1007  O1147   1.282   .     A
C1008  O1148   1.282   .     A
C1008  O1154   1.282   .     A
C1008  C1074   1.456   .     S
C1009  C1075   1.454   .     S
C1009  O1159   1.282   .     A
C1009  O1149   1.282   .     A
C1010  O1160   1.282   .     A
C1010  O1150   1.282   .     A
C1010  C1076   1.454   .     S
C1011  O1151   1.282   .     A
C1011  O1157   1.282   .     A
C1011  C1069   1.456   .     S
C1012  O1152   1.282   .     A
C1012  O1158   1.282   .     A
C1012  C1070   1.456   .     S
C1013  H1085   1.083   .     S
C1013  C1076   1.402   .     A
C1013  C1028   1.386   .     A
C1014  C1027   1.385   .     A
C1014  H1086   1.083   .     S
C1014  C1075   1.402   .     A
C1015  H1087   1.083   .     S
C1015  C1074   1.402   .     A
C1015  C1026   1.386   .     A
C1016  H1088   1.083   .     S
C1016  C1025   1.386   .     A
C1016  C1073   1.402   .     A
C1017  C1024   1.385   .     A
C1017  H1089   1.083   .     S
C1017  C1072   1.402   .     A
C1018  C1071   1.402   .     A
C1018  H1090   1.083   .     S
C1018  C1023   1.385   .     A
C1019  C1070   1.402   .     A
C1019  H1091   1.083   .     S
C1019  C1022   1.386   .     A
C1020  H1092   1.083   .     S
C1020  C1021   1.386   .     A
C1020  C1069   1.402   .     A
C1021  H1093   1.083   .     S
C1021  C1068   1.402   .     A
C1022  H1094   1.083   .     S
C1022  C1067   1.402   .     A
C1023  C1066   1.402   .     A
C1023  H1095   1.083   .     S
C1024  H1096   1.083   .     S
C1024  C1065   1.402   .     A
C1025  H1097   1.083   .     S
C1025  C1064   1.402   .     A
C1026  C1063   1.402   .     A
C1026  H1098   1.083   .     S
C1027  H1099   1.083   .     S
C1027  C1062   1.402   .     A
C1028  C1061   1.402   .     A
C1028  H1100   1.083   .     S
C1029  H1101   1.083   .     S
C1029  C1062   1.402   .     A
C1029  C1044   1.385   .     A
C1030  C1043   1.385   .     A
C1030  C1061   1.402   .     A
C1030  H1102   1.083   .     S
C1031  H1103   1.083   .     S
C1031  C1042   1.386   .     A
C1031  C1064   1.402   .     A
C1032  H1104   1.083   .     S
C1032  C1041   1.386   .     A
C1032  C1063   1.402   .     A
C1033  C1040   1.385   .     A
C1033  H1105   1.083   .     S
C1033  C1066   1.402   .     A
C1034  C1065   1.402   .     A
C1034  C1039   1.385   .     A
C1034  H1106   1.083   .     S
C1035  H1107   1.083   .     S
C1035  C1038   1.386   .     A
C1035  C1068   1.402   .     A
C1036  C1067   1.402   .     A
C1036  H1108   1.083   .     S
C1036  C1037   1.386   .     A
C1037  C1070   1.402   .     A
C1037  H1109   1.083   .     S
C1038  H1110   1.083   .     S
C1038  C1069   1.402   .     A
C1039  H1111   1.083   .     S
C1039  C1072   1.402   .     A
C1040  C1071   1.402   .     A
C1040  H1112   1.083   .     S
C1041  C1074   1.402   .     A
C1041  H1113   1.083   .     S
C1042  C1073   1.402   .     A
C1042  H1114   1.083   .     S
C1043  C1076   1.402   .     A
C1043  H1115   1.083   .     S
C1044  H1116   1.083   .     S
C1044  C1075   1.402   .     A
C1045  C761    1.426   1_655 S
C1046  C1078   1.425   .     A
C1048  C1080   1.425   .     A
C1049  C1077   1.425   .     A
C1050  C762    1.425   1_655 S
C1051  C1079   1.424   .     A
C1053  C1081   1.425   .     A
C1055  C1083   1.425   .     A
C1056  C768    1.424   1_655 S
C1058  C1082   1.426   .     A
C1059  C767    1.425   1_655 S
C1060  C1084   1.425   .     A
C1077  C1078   1.412   .     A
C1079  C1080   1.412   .     A
C1079  C415    1.425   1_565 S
C1080  C420    1.425   1_565 S
C1081  C425    1.425   1_565 S
C1081  C1082   1.412   1_556 S
C1082  C422    1.425   1_565 S
C1082  C1081   1.412   1_554 S
C1083  C1084   1.412   1_556 S
C1084  C1083   1.412   1_554 S
O1117  Zn1180  1.949   .     S
O1117  Zn1169  1.949   .     S
O1117  Zn1173  1.949   .     S
O1118  Zn1183  1.949   .     S
O1118  Zn1170  1.949   .     S
O1118  Zn1174  1.949   .     S
O1119  Zn1178  1.949   .     S
O1119  Zn1171  1.949   .     S
O1119  Zn1175  1.949   .     S
O1120  Zn1172  1.949   .     S
O1120  Zn1176  1.949   .     S
O1120  Zn1181  1.949   .     S
O1121  Zn1184  1.953   .     S
O1122  Zn1183  1.953   .     S
O1123  Zn1178  1.953   .     S
O1124  Zn1177  1.953   .     S
O1124  C676    1.280   1_655 S
O1125  Zn1180  1.953   .     S
O1126  Zn1179  1.953   .     S
O1127  C675    1.279   1_655 A
O1127  Zn1182  1.953   .     S
O1128  Zn1181  1.953   .     S
O1129  Zn1176  1.953   .     S
O1130  Zn1175  1.953   .     S
O1131  Zn1170  1.953   .     S
O1132  Zn1169  1.953   .     S
O1133  Zn1172  1.953   .     S
O1134  Zn1171  1.953   .     S
O1135  Zn1174  1.953   .     S
O1136  Zn1173  1.953   .     S
O1137  Zn1180  1.937   .     S
O1138  Zn1179  1.937   .     S
O1139  Zn1182  1.935   .     S
O1140  Zn1181  1.935   .     S
O1141  Zn1184  1.937   .     S
O1142  Zn1183  1.937   .     S
O1143  Zn1178  1.935   .     S
O1144  Zn1177  1.935   .     S
O1145  Zn1179  1.935   .     S
O1146  Zn1180  1.935   .     S
O1147  Zn1177  1.937   .     S
O1148  Zn1178  1.937   .     S
O1149  Zn1183  1.935   .     S
O1150  Zn1184  1.935   .     S
O1151  Zn1181  1.937   .     S
O1152  Zn1182  1.937   .     S
O1153  Zn856   1.937   1_655 S
O1154  Zn1171  1.937   .     S
O1155  Zn542   1.935   1_565 S
O1156  Zn1173  1.935   .     S
O1157  Zn1176  1.937   .     S
O1158  Zn859   1.937   1_655 S
O1159  Zn1170  1.935   .     S
O1160  Zn537   1.935   1_565 S
O1161  Zn855   1.935   1_655 S
O1162  Zn1172  1.935   .     S
O1163  Zn1169  1.937   .     S
O1164  Zn538   1.937   1_565 S
O1165  Zn1175  1.935   .     S
O1166  Zn860   1.935   1_655 S
O1167  Zn541   1.937   1_565 S
O1168  Zn1174  1.937   .     S
Zn1177 O804    1.949   1_655 S
Zn1179 O486    1.949   1_565 S
Zn1182 O803    1.949   1_655 S
Zn1184 O485    1.949   1_565 S
C1185  O1186   1.223   .     D
C1185  O1187   1.398   .     S
O1187  H1188   1.014   .     S
C1189  O1190   1.223   .     D
C1189  O1191   1.398   .     S
O1191  H1192   1.014   .     S
C1193  O1194   1.223   .     D
C1193  O1195   1.398   .     S
O1195  H1196   1.014   .     S
C1197  O1199   1.398   .     S
C1197  O1198   1.223   .     D
O1199  H1200   1.014   .     S
C1201  O1202   1.223   .     D
C1201  O1203   1.398   .     S
O1203  H1204   1.014   .     S
C1205  O1207   1.398   .     S
C1205  O1206   1.223   .     D
O1207  H1208   1.014   .     S
C1209  O1210   1.223   .     D
C1209  O1211   1.398   .     S
O1211  H1212   1.014   .     S
C1213  O1215   1.398   .     S
C1213  O1214   1.223   .     D
O1215  H1216   1.014   .     S
C1217  O1218   1.223   .     D
C1217  O1219   1.398   .     S
O1219  H1220   1.014   .     S
C1221  O1223   1.398   .     S
C1221  O1222   1.223   .     D
O1223  H1224   1.014   .     S
C1225  O1227   1.398   .     S
C1225  O1226   1.223   .     D
O1227  H1228   1.014   .     S
C1229  O1231   1.398   .     S
C1229  O1230   1.223   .     D
O1231  H1232   1.014   .     S
C1233  O1235   1.398   .     S
C1233  O1234   1.223   .     D
O1235  H1236   1.014   .     S
C1237  O1238   1.223   .     D
C1237  O1239   1.398   .     S
O1239  H1240   1.014   .     S
C1241  O1242   1.223   .     D
C1241  O1243   1.398   .     S
O1243  H1244   1.014   .     S
C1245  O1247   1.398   .     S
C1245  O1246   1.223   .     D
O1247  H1248   1.014   .     S
