data_str_m1_o10_o16_pcu_sym.251
_audit_creation_date              2020-01-03
_audit_creation_method            'Materials Studio'
_symmetry_space_group_name_H-M    'P1'
_symmetry_Int_Tables_number       1
_symmetry_cell_setting            triclinic
loop_
_symmetry_equiv_pos_as_xyz
  x,y,z
_cell_length_a                    32.5635
_cell_length_b                    32.5225
_cell_length_c                    31.0481
_cell_angle_alpha                 96.0976
_cell_angle_beta                  74.3885
_cell_angle_gamma                 98.4440
loop_
_atom_site_label
_atom_site_type_symbol
_atom_site_fract_x
_atom_site_fract_y
_atom_site_fract_z
_atom_site_U_iso_or_equiv
_atom_site_adp_type
_atom_site_occupancy
C1     C     0.05278   0.15981   0.25997   0.00000  Uiso   1.00
C2     C     0.16621   0.15286   0.05907   0.00000  Uiso   1.00
C3     C     0.23739   0.13757   0.05667   0.00000  Uiso   1.00
C4     C     0.28086   0.17387   0.23993   0.00000  Uiso   1.00
C5     C     0.13884   0.19032   0.42010   0.00000  Uiso   1.00
C6     C     0.32679   0.17651   0.23562   0.00000  Uiso   1.00
C7     C     0.00745   0.15759   0.26410   0.00000  Uiso   1.00
C8     C     0.18063   0.32256   0.23623   0.00000  Uiso   1.00
C9     C     0.15220   0.01179   0.26400   0.00000  Uiso   1.00
C10    C     0.15632   0.05590   0.26014   0.00000  Uiso   1.00
C11    C     0.17667   0.27797   0.24009   0.00000  Uiso   1.00
C12    C     0.08174   0.19169   0.48858   0.00000  Uiso   1.00
C13    C     0.18569   0.14837   0.12930   0.00000  Uiso   1.00
C14    C     0.14911   0.18518   0.37081   0.00000  Uiso   1.00
C15    C     0.25097   0.14426   0.01137   0.00000  Uiso   1.00
C16    C     0.19538   0.14284   0.08072   0.00000  Uiso   1.00
C17    C     0.09650   0.19630   0.44296   0.00000  Uiso   1.00
C18    C     0.10838   0.17969   0.01193   0.00000  Uiso   1.00
C19    C     0.15178   0.17443   0.49047   0.00000  Uiso   1.00
C20    C     0.16802   0.18294   0.44440   0.00000  Uiso   1.00
C21    C     0.17954   0.16119   0.01329   0.00000  Uiso   1.00
C22    C     0.22295   0.15743   0.48991   0.00000  Uiso   1.00
C23    C     0.23912   0.16957   0.44632   0.00000  Uiso   1.00
C24    C     0.21279   0.18438   0.42413   0.00000  Uiso   1.00
H25    H     0.26033   0.13053   0.07361   0.00000  Uiso   1.00
H26    H     0.04872   0.19564   0.00565   0.00000  Uiso   1.00
H27    H     0.01597   0.19383   0.20916   0.00000  Uiso   1.00
H28    H     0.26222   0.20160   0.37499   0.00000  Uiso   1.00
H29    H     0.31890   0.14049   0.29108   0.00000  Uiso   1.00
H30    H     0.20688   0.00380   0.21061   0.00000  Uiso   1.00
H31    H     0.12567   0.33131   0.28981   0.00000  Uiso   1.00
H32    H     0.27302   0.16922   0.43006   0.00000  Uiso   1.00
H33    H     0.28413   0.14139   0.49371   0.00000  Uiso   1.00
H34    H     0.13457   0.15702   0.07978   0.00000  Uiso   1.00
H35    H     0.07396   0.20248   0.42507   0.00000  Uiso   1.00
H36    H     0.09382   0.17496   0.04678   0.00000  Uiso   1.00
O37    O     0.16667   0.16667   0.25000   0.00000  Uiso   1.00
O38    O     0.15451   0.12637   0.15459   0.00000  Uiso   1.00
O39    O     0.12940   0.20391   0.34968   0.00000  Uiso   1.00
O40    O     0.20824   0.17759   0.14606   0.00000  Uiso   1.00
O41    O     0.17451   0.15880   0.34968   0.00000  Uiso   1.00
O42    O     0.23082   0.20315   0.38425   0.00000  Uiso   1.00
O43    O     0.17930   0.08019   0.28214   0.00000  Uiso   1.00
O44    O     0.14632   0.26085   0.27014   0.00000  Uiso   1.00
O45    O     0.07412   0.13291   0.23413   0.00000  Uiso   1.00
O46    O     0.26693   0.19272   0.21361   0.00000  Uiso   1.00
O47    O     0.07071   0.18878   0.28213   0.00000  Uiso   1.00
O48    O     0.25491   0.15226   0.27014   0.00000  Uiso   1.00
O49    O     0.13760   0.06944   0.23413   0.00000  Uiso   1.00
O50    O     0.20345   0.25620   0.21361   0.00000  Uiso   1.00
Zn51   Zn    0.19338   0.13994   0.28734   0.00000  Uiso   1.00
Zn52   Zn    0.13379   0.12458   0.21876   0.00000  Uiso   1.00
Zn53   Zn    0.21056   0.19775   0.20657   0.00000  Uiso   1.00
Zn54   Zn    0.12893   0.20439   0.28734   0.00000  Uiso   1.00
C55    C     0.38612   0.15981   0.25997   0.00000  Uiso   1.00
C56    C     0.49955   0.15286   0.05907   0.00000  Uiso   1.00
C57    C     0.57072   0.13757   0.05667   0.00000  Uiso   1.00
C58    C     0.61420   0.17387   0.23993   0.00000  Uiso   1.00
C59    C     0.47217   0.19032   0.42010   0.00000  Uiso   1.00
C60    C     0.66013   0.17651   0.23562   0.00000  Uiso   1.00
C61    C     0.34079   0.15759   0.26410   0.00000  Uiso   1.00
C62    C     0.51396   0.32256   0.23623   0.00000  Uiso   1.00
C63    C     0.48554   0.01179   0.26400   0.00000  Uiso   1.00
C64    C     0.48966   0.05590   0.26014   0.00000  Uiso   1.00
C65    C     0.51000   0.27797   0.24009   0.00000  Uiso   1.00
C66    C     0.41507   0.19169   0.48858   0.00000  Uiso   1.00
C67    C     0.51902   0.14837   0.12930   0.00000  Uiso   1.00
C68    C     0.48244   0.18518   0.37081   0.00000  Uiso   1.00
C69    C     0.58430   0.14426   0.01137   0.00000  Uiso   1.00
C70    C     0.52871   0.14284   0.08072   0.00000  Uiso   1.00
C71    C     0.42984   0.19630   0.44296   0.00000  Uiso   1.00
C72    C     0.44172   0.17969   0.01193   0.00000  Uiso   1.00
C73    C     0.48511   0.17443   0.49047   0.00000  Uiso   1.00
C74    C     0.50135   0.18294   0.44440   0.00000  Uiso   1.00
C75    C     0.51287   0.16119   0.01329   0.00000  Uiso   1.00
C76    C     0.55628   0.15743   0.48991   0.00000  Uiso   1.00
C77    C     0.57245   0.16957   0.44632   0.00000  Uiso   1.00
C78    C     0.54612   0.18438   0.42413   0.00000  Uiso   1.00
H79    H     0.59366   0.13053   0.07361   0.00000  Uiso   1.00
H80    H     0.38205   0.19564   0.00565   0.00000  Uiso   1.00
H81    H     0.34930   0.19383   0.20916   0.00000  Uiso   1.00
H82    H     0.59555   0.20160   0.37499   0.00000  Uiso   1.00
H83    H     0.65223   0.14049   0.29108   0.00000  Uiso   1.00
H84    H     0.54021   0.00380   0.21061   0.00000  Uiso   1.00
H85    H     0.45901   0.33131   0.28981   0.00000  Uiso   1.00
H86    H     0.60636   0.16922   0.43006   0.00000  Uiso   1.00
H87    H     0.61746   0.14139   0.49371   0.00000  Uiso   1.00
H88    H     0.46791   0.15702   0.07978   0.00000  Uiso   1.00
H89    H     0.40729   0.20248   0.42507   0.00000  Uiso   1.00
H90    H     0.42716   0.17496   0.04678   0.00000  Uiso   1.00
O91    O     0.50000   0.16667   0.25000   0.00000  Uiso   1.00
O92    O     0.48784   0.12637   0.15459   0.00000  Uiso   1.00
O93    O     0.46274   0.20391   0.34968   0.00000  Uiso   1.00
O94    O     0.54157   0.17759   0.14606   0.00000  Uiso   1.00
O95    O     0.50785   0.15880   0.34968   0.00000  Uiso   1.00
O96    O     0.56416   0.20315   0.38425   0.00000  Uiso   1.00
O97    O     0.51264   0.08019   0.28214   0.00000  Uiso   1.00
O98    O     0.47965   0.26085   0.27014   0.00000  Uiso   1.00
O99    O     0.40745   0.13291   0.23413   0.00000  Uiso   1.00
O100   O     0.60026   0.19272   0.21361   0.00000  Uiso   1.00
O101   O     0.40405   0.18878   0.28213   0.00000  Uiso   1.00
O102   O     0.58824   0.15226   0.27014   0.00000  Uiso   1.00
O103   O     0.47093   0.06944   0.23413   0.00000  Uiso   1.00
O104   O     0.53678   0.25620   0.21361   0.00000  Uiso   1.00
Zn105  Zn    0.52672   0.13994   0.28734   0.00000  Uiso   1.00
Zn106  Zn    0.46713   0.12458   0.21876   0.00000  Uiso   1.00
Zn107  Zn    0.54389   0.19775   0.20657   0.00000  Uiso   1.00
Zn108  Zn    0.46226   0.20439   0.28734   0.00000  Uiso   1.00
C109   C     0.71945   0.15981   0.25997   0.00000  Uiso   1.00
C110   C     0.83288   0.15286   0.05907   0.00000  Uiso   1.00
C111   C     0.90405   0.13757   0.05667   0.00000  Uiso   1.00
C112   C     0.94753   0.17387   0.23993   0.00000  Uiso   1.00
C113   C     0.80551   0.19032   0.42010   0.00000  Uiso   1.00
C114   C     0.99346   0.17651   0.23562   0.00000  Uiso   1.00
C115   C     0.67412   0.15759   0.26410   0.00000  Uiso   1.00
C116   C     0.84729   0.32256   0.23623   0.00000  Uiso   1.00
C117   C     0.81887   0.01179   0.26400   0.00000  Uiso   1.00
C118   C     0.82299   0.05590   0.26014   0.00000  Uiso   1.00
C119   C     0.84334   0.27797   0.24009   0.00000  Uiso   1.00
C120   C     0.74840   0.19169   0.48858   0.00000  Uiso   1.00
C121   C     0.85235   0.14837   0.12930   0.00000  Uiso   1.00
C122   C     0.81578   0.18518   0.37081   0.00000  Uiso   1.00
C123   C     0.91763   0.14426   0.01137   0.00000  Uiso   1.00
C124   C     0.86204   0.14284   0.08072   0.00000  Uiso   1.00
C125   C     0.76317   0.19630   0.44296   0.00000  Uiso   1.00
C126   C     0.77505   0.17969   0.01193   0.00000  Uiso   1.00
C127   C     0.81845   0.17443   0.49047   0.00000  Uiso   1.00
C128   C     0.83469   0.18294   0.44440   0.00000  Uiso   1.00
C129   C     0.84621   0.16119   0.01329   0.00000  Uiso   1.00
C130   C     0.88962   0.15743   0.48991   0.00000  Uiso   1.00
C131   C     0.90578   0.16957   0.44632   0.00000  Uiso   1.00
C132   C     0.87946   0.18438   0.42413   0.00000  Uiso   1.00
H133   H     0.92700   0.13053   0.07361   0.00000  Uiso   1.00
H134   H     0.71539   0.19564   0.00565   0.00000  Uiso   1.00
H135   H     0.68264   0.19383   0.20916   0.00000  Uiso   1.00
H136   H     0.92888   0.20160   0.37499   0.00000  Uiso   1.00
H137   H     0.98557   0.14049   0.29108   0.00000  Uiso   1.00
H138   H     0.87354   0.00380   0.21061   0.00000  Uiso   1.00
H139   H     0.79234   0.33131   0.28981   0.00000  Uiso   1.00
H140   H     0.93969   0.16922   0.43006   0.00000  Uiso   1.00
H141   H     0.95079   0.14139   0.49371   0.00000  Uiso   1.00
H142   H     0.80124   0.15702   0.07978   0.00000  Uiso   1.00
H143   H     0.74063   0.20248   0.42507   0.00000  Uiso   1.00
H144   H     0.76049   0.17496   0.04678   0.00000  Uiso   1.00
O145   O     0.83333   0.16667   0.25000   0.00000  Uiso   1.00
O146   O     0.82118   0.12637   0.15459   0.00000  Uiso   1.00
O147   O     0.79607   0.20391   0.34968   0.00000  Uiso   1.00
O148   O     0.87491   0.17759   0.14606   0.00000  Uiso   1.00
O149   O     0.84118   0.15880   0.34968   0.00000  Uiso   1.00
O150   O     0.89749   0.20315   0.38425   0.00000  Uiso   1.00
O151   O     0.84597   0.08019   0.28214   0.00000  Uiso   1.00
O152   O     0.81298   0.26085   0.27014   0.00000  Uiso   1.00
O153   O     0.74078   0.13291   0.23413   0.00000  Uiso   1.00
O154   O     0.93360   0.19272   0.21361   0.00000  Uiso   1.00
O155   O     0.73738   0.18878   0.28213   0.00000  Uiso   1.00
O156   O     0.92158   0.15226   0.27014   0.00000  Uiso   1.00
O157   O     0.80426   0.06944   0.23413   0.00000  Uiso   1.00
O158   O     0.87012   0.25620   0.21361   0.00000  Uiso   1.00
Zn159  Zn    0.86005   0.13994   0.28734   0.00000  Uiso   1.00
Zn160  Zn    0.80046   0.12458   0.21876   0.00000  Uiso   1.00
Zn161  Zn    0.87723   0.19775   0.20657   0.00000  Uiso   1.00
Zn162  Zn    0.79560   0.20439   0.28734   0.00000  Uiso   1.00
C163   C     0.05278   0.49314   0.25997   0.00000  Uiso   1.00
C164   C     0.16621   0.48619   0.05907   0.00000  Uiso   1.00
C165   C     0.23739   0.47090   0.05667   0.00000  Uiso   1.00
C166   C     0.28086   0.50720   0.23993   0.00000  Uiso   1.00
C167   C     0.13884   0.52365   0.42010   0.00000  Uiso   1.00
C168   C     0.32679   0.50985   0.23562   0.00000  Uiso   1.00
C169   C     0.00745   0.49093   0.26410   0.00000  Uiso   1.00
C170   C     0.18063   0.65589   0.23623   0.00000  Uiso   1.00
C171   C     0.15220   0.34512   0.26400   0.00000  Uiso   1.00
C172   C     0.15632   0.38923   0.26014   0.00000  Uiso   1.00
C173   C     0.17667   0.61130   0.24009   0.00000  Uiso   1.00
C174   C     0.08174   0.52502   0.48858   0.00000  Uiso   1.00
C175   C     0.18569   0.48170   0.12930   0.00000  Uiso   1.00
C176   C     0.14911   0.51852   0.37081   0.00000  Uiso   1.00
C177   C     0.25097   0.47759   0.01137   0.00000  Uiso   1.00
C178   C     0.19538   0.47617   0.08072   0.00000  Uiso   1.00
C179   C     0.09650   0.52963   0.44296   0.00000  Uiso   1.00
C180   C     0.10838   0.51303   0.01193   0.00000  Uiso   1.00
C181   C     0.15178   0.50776   0.49047   0.00000  Uiso   1.00
C182   C     0.16802   0.51628   0.44440   0.00000  Uiso   1.00
C183   C     0.17954   0.49452   0.01329   0.00000  Uiso   1.00
C184   C     0.22295   0.49077   0.48991   0.00000  Uiso   1.00
C185   C     0.23912   0.50291   0.44632   0.00000  Uiso   1.00
C186   C     0.21279   0.51771   0.42413   0.00000  Uiso   1.00
H187   H     0.26033   0.46387   0.07361   0.00000  Uiso   1.00
H188   H     0.04872   0.52898   0.00565   0.00000  Uiso   1.00
H189   H     0.01597   0.52717   0.20916   0.00000  Uiso   1.00
H190   H     0.26222   0.53494   0.37499   0.00000  Uiso   1.00
H191   H     0.31890   0.47382   0.29108   0.00000  Uiso   1.00
H192   H     0.20688   0.33713   0.21061   0.00000  Uiso   1.00
H193   H     0.12567   0.66465   0.28981   0.00000  Uiso   1.00
H194   H     0.27302   0.50255   0.43006   0.00000  Uiso   1.00
H195   H     0.28413   0.47473   0.49371   0.00000  Uiso   1.00
H196   H     0.13457   0.49036   0.07978   0.00000  Uiso   1.00
H197   H     0.07396   0.53582   0.42507   0.00000  Uiso   1.00
H198   H     0.09382   0.50829   0.04678   0.00000  Uiso   1.00
O199   O     0.16667   0.50000   0.25000   0.00000  Uiso   1.00
O200   O     0.15451   0.45970   0.15459   0.00000  Uiso   1.00
O201   O     0.12940   0.53724   0.34968   0.00000  Uiso   1.00
O202   O     0.20824   0.51092   0.14606   0.00000  Uiso   1.00
O203   O     0.17451   0.49213   0.34968   0.00000  Uiso   1.00
O204   O     0.23082   0.53648   0.38425   0.00000  Uiso   1.00
O205   O     0.17930   0.41352   0.28214   0.00000  Uiso   1.00
O206   O     0.14632   0.59418   0.27014   0.00000  Uiso   1.00
O207   O     0.07412   0.46625   0.23413   0.00000  Uiso   1.00
O208   O     0.26693   0.52605   0.21361   0.00000  Uiso   1.00
O209   O     0.07071   0.52211   0.28213   0.00000  Uiso   1.00
O210   O     0.25491   0.48559   0.27014   0.00000  Uiso   1.00
O211   O     0.13760   0.40277   0.23413   0.00000  Uiso   1.00
O212   O     0.20345   0.58953   0.21361   0.00000  Uiso   1.00
Zn213  Zn    0.19338   0.47327   0.28734   0.00000  Uiso   1.00
Zn214  Zn    0.13379   0.45791   0.21876   0.00000  Uiso   1.00
Zn215  Zn    0.21056   0.53109   0.20657   0.00000  Uiso   1.00
Zn216  Zn    0.12893   0.53773   0.28734   0.00000  Uiso   1.00
C217   C     0.38612   0.49314   0.25997   0.00000  Uiso   1.00
C218   C     0.49955   0.48619   0.05907   0.00000  Uiso   1.00
C219   C     0.57072   0.47090   0.05667   0.00000  Uiso   1.00
C220   C     0.61420   0.50720   0.23993   0.00000  Uiso   1.00
C221   C     0.47217   0.52365   0.42010   0.00000  Uiso   1.00
C222   C     0.66013   0.50985   0.23562   0.00000  Uiso   1.00
C223   C     0.34079   0.49093   0.26410   0.00000  Uiso   1.00
C224   C     0.51396   0.65589   0.23623   0.00000  Uiso   1.00
C225   C     0.48554   0.34512   0.26400   0.00000  Uiso   1.00
C226   C     0.48966   0.38923   0.26014   0.00000  Uiso   1.00
C227   C     0.51000   0.61130   0.24009   0.00000  Uiso   1.00
C228   C     0.41507   0.52502   0.48858   0.00000  Uiso   1.00
C229   C     0.51902   0.48170   0.12930   0.00000  Uiso   1.00
C230   C     0.48244   0.51852   0.37081   0.00000  Uiso   1.00
C231   C     0.58430   0.47759   0.01137   0.00000  Uiso   1.00
C232   C     0.52871   0.47617   0.08072   0.00000  Uiso   1.00
C233   C     0.42984   0.52963   0.44296   0.00000  Uiso   1.00
C234   C     0.44172   0.51303   0.01193   0.00000  Uiso   1.00
C235   C     0.48511   0.50776   0.49047   0.00000  Uiso   1.00
C236   C     0.50135   0.51628   0.44440   0.00000  Uiso   1.00
C237   C     0.51287   0.49452   0.01329   0.00000  Uiso   1.00
C238   C     0.55628   0.49077   0.48991   0.00000  Uiso   1.00
C239   C     0.57245   0.50291   0.44632   0.00000  Uiso   1.00
C240   C     0.54612   0.51771   0.42413   0.00000  Uiso   1.00
H241   H     0.59366   0.46387   0.07361   0.00000  Uiso   1.00
H242   H     0.38205   0.52898   0.00565   0.00000  Uiso   1.00
H243   H     0.34930   0.52717   0.20916   0.00000  Uiso   1.00
H244   H     0.59555   0.53494   0.37499   0.00000  Uiso   1.00
H245   H     0.65223   0.47382   0.29108   0.00000  Uiso   1.00
H246   H     0.54021   0.33713   0.21061   0.00000  Uiso   1.00
H247   H     0.45901   0.66465   0.28981   0.00000  Uiso   1.00
H248   H     0.60636   0.50255   0.43006   0.00000  Uiso   1.00
H249   H     0.61746   0.47473   0.49371   0.00000  Uiso   1.00
H250   H     0.46791   0.49036   0.07978   0.00000  Uiso   1.00
H251   H     0.40729   0.53582   0.42507   0.00000  Uiso   1.00
H252   H     0.42716   0.50829   0.04678   0.00000  Uiso   1.00
O253   O     0.50000   0.50000   0.25000   0.00000  Uiso   1.00
O254   O     0.48784   0.45970   0.15459   0.00000  Uiso   1.00
O255   O     0.46274   0.53724   0.34968   0.00000  Uiso   1.00
O256   O     0.54157   0.51092   0.14606   0.00000  Uiso   1.00
O257   O     0.50785   0.49213   0.34968   0.00000  Uiso   1.00
O258   O     0.56416   0.53648   0.38425   0.00000  Uiso   1.00
O259   O     0.51264   0.41352   0.28214   0.00000  Uiso   1.00
O260   O     0.47965   0.59418   0.27014   0.00000  Uiso   1.00
O261   O     0.40745   0.46625   0.23413   0.00000  Uiso   1.00
O262   O     0.60026   0.52605   0.21361   0.00000  Uiso   1.00
O263   O     0.40405   0.52211   0.28213   0.00000  Uiso   1.00
O264   O     0.58824   0.48559   0.27014   0.00000  Uiso   1.00
O265   O     0.47093   0.40277   0.23413   0.00000  Uiso   1.00
O266   O     0.53678   0.58953   0.21361   0.00000  Uiso   1.00
Zn267  Zn    0.52672   0.47327   0.28734   0.00000  Uiso   1.00
Zn268  Zn    0.46713   0.45791   0.21876   0.00000  Uiso   1.00
Zn269  Zn    0.54389   0.53109   0.20657   0.00000  Uiso   1.00
Zn270  Zn    0.46226   0.53773   0.28734   0.00000  Uiso   1.00
C271   C     0.71945   0.49314   0.25997   0.00000  Uiso   1.00
C272   C     0.83288   0.48619   0.05907   0.00000  Uiso   1.00
C273   C     0.90405   0.47090   0.05667   0.00000  Uiso   1.00
C274   C     0.94753   0.50720   0.23993   0.00000  Uiso   1.00
C275   C     0.80551   0.52365   0.42010   0.00000  Uiso   1.00
C276   C     0.99346   0.50985   0.23562   0.00000  Uiso   1.00
C277   C     0.67412   0.49093   0.26410   0.00000  Uiso   1.00
C278   C     0.84729   0.65589   0.23623   0.00000  Uiso   1.00
C279   C     0.81887   0.34512   0.26400   0.00000  Uiso   1.00
C280   C     0.82299   0.38923   0.26014   0.00000  Uiso   1.00
C281   C     0.84334   0.61130   0.24009   0.00000  Uiso   1.00
C282   C     0.74840   0.52502   0.48858   0.00000  Uiso   1.00
C283   C     0.85235   0.48170   0.12930   0.00000  Uiso   1.00
C284   C     0.81578   0.51852   0.37081   0.00000  Uiso   1.00
C285   C     0.91763   0.47759   0.01137   0.00000  Uiso   1.00
C286   C     0.86204   0.47617   0.08072   0.00000  Uiso   1.00
C287   C     0.76317   0.52963   0.44296   0.00000  Uiso   1.00
C288   C     0.77505   0.51303   0.01193   0.00000  Uiso   1.00
C289   C     0.81845   0.50776   0.49047   0.00000  Uiso   1.00
C290   C     0.83469   0.51628   0.44440   0.00000  Uiso   1.00
C291   C     0.84621   0.49452   0.01329   0.00000  Uiso   1.00
C292   C     0.88962   0.49077   0.48991   0.00000  Uiso   1.00
C293   C     0.90578   0.50291   0.44632   0.00000  Uiso   1.00
C294   C     0.87946   0.51771   0.42413   0.00000  Uiso   1.00
H295   H     0.92700   0.46387   0.07361   0.00000  Uiso   1.00
H296   H     0.71539   0.52898   0.00565   0.00000  Uiso   1.00
H297   H     0.68264   0.52717   0.20916   0.00000  Uiso   1.00
H298   H     0.92888   0.53494   0.37499   0.00000  Uiso   1.00
H299   H     0.98557   0.47382   0.29108   0.00000  Uiso   1.00
H300   H     0.87354   0.33713   0.21061   0.00000  Uiso   1.00
H301   H     0.79234   0.66465   0.28981   0.00000  Uiso   1.00
H302   H     0.93969   0.50255   0.43006   0.00000  Uiso   1.00
H303   H     0.95079   0.47473   0.49371   0.00000  Uiso   1.00
H304   H     0.80124   0.49036   0.07978   0.00000  Uiso   1.00
H305   H     0.74063   0.53582   0.42507   0.00000  Uiso   1.00
H306   H     0.76049   0.50829   0.04678   0.00000  Uiso   1.00
O307   O     0.83333   0.50000   0.25000   0.00000  Uiso   1.00
O308   O     0.82118   0.45970   0.15459   0.00000  Uiso   1.00
O309   O     0.79607   0.53724   0.34968   0.00000  Uiso   1.00
O310   O     0.87491   0.51092   0.14606   0.00000  Uiso   1.00
O311   O     0.84118   0.49213   0.34968   0.00000  Uiso   1.00
O312   O     0.89749   0.53648   0.38425   0.00000  Uiso   1.00
O313   O     0.84597   0.41352   0.28214   0.00000  Uiso   1.00
O314   O     0.81298   0.59418   0.27014   0.00000  Uiso   1.00
O315   O     0.74078   0.46625   0.23413   0.00000  Uiso   1.00
O316   O     0.93360   0.52605   0.21361   0.00000  Uiso   1.00
O317   O     0.73738   0.52211   0.28213   0.00000  Uiso   1.00
O318   O     0.92158   0.48559   0.27014   0.00000  Uiso   1.00
O319   O     0.80426   0.40277   0.23413   0.00000  Uiso   1.00
O320   O     0.87012   0.58953   0.21361   0.00000  Uiso   1.00
Zn321  Zn    0.86005   0.47327   0.28734   0.00000  Uiso   1.00
Zn322  Zn    0.80046   0.45791   0.21876   0.00000  Uiso   1.00
Zn323  Zn    0.87723   0.53109   0.20657   0.00000  Uiso   1.00
Zn324  Zn    0.79560   0.53773   0.28734   0.00000  Uiso   1.00
C325   C     0.05278   0.82648   0.25997   0.00000  Uiso   1.00
C326   C     0.16621   0.81953   0.05907   0.00000  Uiso   1.00
C327   C     0.23739   0.80424   0.05667   0.00000  Uiso   1.00
C328   C     0.28086   0.84054   0.23993   0.00000  Uiso   1.00
C329   C     0.13884   0.85698   0.42010   0.00000  Uiso   1.00
C330   C     0.32679   0.84318   0.23562   0.00000  Uiso   1.00
C331   C     0.00745   0.82426   0.26410   0.00000  Uiso   1.00
C332   C     0.18063   0.98922   0.23623   0.00000  Uiso   1.00
C333   C     0.15220   0.67845   0.26400   0.00000  Uiso   1.00
C334   C     0.15632   0.72256   0.26014   0.00000  Uiso   1.00
C335   C     0.17667   0.94464   0.24009   0.00000  Uiso   1.00
C336   C     0.08174   0.85836   0.48858   0.00000  Uiso   1.00
C337   C     0.18569   0.81504   0.12930   0.00000  Uiso   1.00
C338   C     0.14911   0.85185   0.37081   0.00000  Uiso   1.00
C339   C     0.25097   0.81093   0.01137   0.00000  Uiso   1.00
C340   C     0.19538   0.80951   0.08072   0.00000  Uiso   1.00
C341   C     0.09650   0.86297   0.44296   0.00000  Uiso   1.00
C342   C     0.10838   0.84636   0.01193   0.00000  Uiso   1.00
C343   C     0.15178   0.84109   0.49047   0.00000  Uiso   1.00
C344   C     0.16802   0.84961   0.44440   0.00000  Uiso   1.00
C345   C     0.17954   0.82785   0.01329   0.00000  Uiso   1.00
C346   C     0.22295   0.82410   0.48991   0.00000  Uiso   1.00
C347   C     0.23912   0.83624   0.44632   0.00000  Uiso   1.00
C348   C     0.21279   0.85105   0.42413   0.00000  Uiso   1.00
H349   H     0.26033   0.79720   0.07361   0.00000  Uiso   1.00
H350   H     0.04872   0.86231   0.00565   0.00000  Uiso   1.00
H351   H     0.01597   0.86050   0.20916   0.00000  Uiso   1.00
H352   H     0.26222   0.86827   0.37499   0.00000  Uiso   1.00
H353   H     0.31890   0.80716   0.29108   0.00000  Uiso   1.00
H354   H     0.20688   0.67046   0.21061   0.00000  Uiso   1.00
H355   H     0.12567   0.99798   0.28981   0.00000  Uiso   1.00
H356   H     0.27302   0.83588   0.43006   0.00000  Uiso   1.00
H357   H     0.28413   0.80806   0.49371   0.00000  Uiso   1.00
H358   H     0.13457   0.82369   0.07978   0.00000  Uiso   1.00
H359   H     0.07396   0.86915   0.42507   0.00000  Uiso   1.00
H360   H     0.09382   0.84162   0.04678   0.00000  Uiso   1.00
O361   O     0.16667   0.83333   0.25000   0.00000  Uiso   1.00
O362   O     0.15451   0.79304   0.15459   0.00000  Uiso   1.00
O363   O     0.12940   0.87058   0.34968   0.00000  Uiso   1.00
O364   O     0.20824   0.84425   0.14606   0.00000  Uiso   1.00
O365   O     0.17451   0.82546   0.34968   0.00000  Uiso   1.00
O366   O     0.23082   0.86982   0.38425   0.00000  Uiso   1.00
O367   O     0.17930   0.74686   0.28214   0.00000  Uiso   1.00
O368   O     0.14632   0.92751   0.27014   0.00000  Uiso   1.00
O369   O     0.07412   0.79958   0.23413   0.00000  Uiso   1.00
O370   O     0.26693   0.85939   0.21361   0.00000  Uiso   1.00
O371   O     0.07071   0.85544   0.28213   0.00000  Uiso   1.00
O372   O     0.25491   0.81892   0.27014   0.00000  Uiso   1.00
O373   O     0.13760   0.73610   0.23413   0.00000  Uiso   1.00
O374   O     0.20345   0.92286   0.21361   0.00000  Uiso   1.00
Zn375  Zn    0.19338   0.80661   0.28734   0.00000  Uiso   1.00
Zn376  Zn    0.13379   0.79124   0.21876   0.00000  Uiso   1.00
Zn377  Zn    0.21056   0.86442   0.20657   0.00000  Uiso   1.00
Zn378  Zn    0.12893   0.87106   0.28734   0.00000  Uiso   1.00
C379   C     0.38612   0.82648   0.25997   0.00000  Uiso   1.00
C380   C     0.49955   0.81953   0.05907   0.00000  Uiso   1.00
C381   C     0.57072   0.80424   0.05667   0.00000  Uiso   1.00
C382   C     0.61420   0.84054   0.23993   0.00000  Uiso   1.00
C383   C     0.47217   0.85698   0.42010   0.00000  Uiso   1.00
C384   C     0.66013   0.84318   0.23562   0.00000  Uiso   1.00
C385   C     0.34079   0.82426   0.26410   0.00000  Uiso   1.00
C386   C     0.51396   0.98922   0.23623   0.00000  Uiso   1.00
C387   C     0.48554   0.67845   0.26400   0.00000  Uiso   1.00
C388   C     0.48966   0.72256   0.26014   0.00000  Uiso   1.00
C389   C     0.51000   0.94464   0.24009   0.00000  Uiso   1.00
C390   C     0.41507   0.85836   0.48858   0.00000  Uiso   1.00
C391   C     0.51902   0.81504   0.12930   0.00000  Uiso   1.00
C392   C     0.48244   0.85185   0.37081   0.00000  Uiso   1.00
C393   C     0.58430   0.81093   0.01137   0.00000  Uiso   1.00
C394   C     0.52871   0.80951   0.08072   0.00000  Uiso   1.00
C395   C     0.42984   0.86297   0.44296   0.00000  Uiso   1.00
C396   C     0.44172   0.84636   0.01193   0.00000  Uiso   1.00
C397   C     0.48511   0.84109   0.49047   0.00000  Uiso   1.00
C398   C     0.50135   0.84961   0.44440   0.00000  Uiso   1.00
C399   C     0.51287   0.82785   0.01329   0.00000  Uiso   1.00
C400   C     0.55628   0.82410   0.48991   0.00000  Uiso   1.00
C401   C     0.57245   0.83624   0.44632   0.00000  Uiso   1.00
C402   C     0.54612   0.85105   0.42413   0.00000  Uiso   1.00
H403   H     0.59366   0.79720   0.07361   0.00000  Uiso   1.00
H404   H     0.38205   0.86231   0.00565   0.00000  Uiso   1.00
H405   H     0.34930   0.86050   0.20916   0.00000  Uiso   1.00
H406   H     0.59555   0.86827   0.37499   0.00000  Uiso   1.00
H407   H     0.65223   0.80716   0.29108   0.00000  Uiso   1.00
H408   H     0.54021   0.67046   0.21061   0.00000  Uiso   1.00
H409   H     0.45901   0.99798   0.28981   0.00000  Uiso   1.00
H410   H     0.60636   0.83588   0.43006   0.00000  Uiso   1.00
H411   H     0.61746   0.80806   0.49371   0.00000  Uiso   1.00
H412   H     0.46791   0.82369   0.07978   0.00000  Uiso   1.00
H413   H     0.40729   0.86915   0.42507   0.00000  Uiso   1.00
H414   H     0.42716   0.84162   0.04678   0.00000  Uiso   1.00
O415   O     0.50000   0.83333   0.25000   0.00000  Uiso   1.00
O416   O     0.48784   0.79304   0.15459   0.00000  Uiso   1.00
O417   O     0.46274   0.87058   0.34968   0.00000  Uiso   1.00
O418   O     0.54157   0.84425   0.14606   0.00000  Uiso   1.00
O419   O     0.50785   0.82546   0.34968   0.00000  Uiso   1.00
O420   O     0.56416   0.86982   0.38425   0.00000  Uiso   1.00
O421   O     0.51264   0.74686   0.28214   0.00000  Uiso   1.00
O422   O     0.47965   0.92751   0.27014   0.00000  Uiso   1.00
O423   O     0.40745   0.79958   0.23413   0.00000  Uiso   1.00
O424   O     0.60026   0.85939   0.21361   0.00000  Uiso   1.00
O425   O     0.40405   0.85544   0.28213   0.00000  Uiso   1.00
O426   O     0.58824   0.81892   0.27014   0.00000  Uiso   1.00
O427   O     0.47093   0.73610   0.23413   0.00000  Uiso   1.00
O428   O     0.53678   0.92286   0.21361   0.00000  Uiso   1.00
Zn429  Zn    0.52672   0.80661   0.28734   0.00000  Uiso   1.00
Zn430  Zn    0.46713   0.79124   0.21876   0.00000  Uiso   1.00
Zn431  Zn    0.54389   0.86442   0.20657   0.00000  Uiso   1.00
Zn432  Zn    0.46226   0.87106   0.28734   0.00000  Uiso   1.00
C433   C     0.71945   0.82648   0.25997   0.00000  Uiso   1.00
C434   C     0.83288   0.81953   0.05907   0.00000  Uiso   1.00
C435   C     0.90405   0.80424   0.05667   0.00000  Uiso   1.00
C436   C     0.94753   0.84054   0.23993   0.00000  Uiso   1.00
C437   C     0.80551   0.85698   0.42010   0.00000  Uiso   1.00
C438   C     0.99346   0.84318   0.23562   0.00000  Uiso   1.00
C439   C     0.67412   0.82426   0.26410   0.00000  Uiso   1.00
C440   C     0.84729   0.98922   0.23623   0.00000  Uiso   1.00
C441   C     0.81887   0.67845   0.26400   0.00000  Uiso   1.00
C442   C     0.82299   0.72256   0.26014   0.00000  Uiso   1.00
C443   C     0.84334   0.94464   0.24009   0.00000  Uiso   1.00
C444   C     0.74840   0.85836   0.48858   0.00000  Uiso   1.00
C445   C     0.85235   0.81504   0.12930   0.00000  Uiso   1.00
C446   C     0.81578   0.85185   0.37081   0.00000  Uiso   1.00
C447   C     0.91763   0.81093   0.01137   0.00000  Uiso   1.00
C448   C     0.86204   0.80951   0.08072   0.00000  Uiso   1.00
C449   C     0.76317   0.86297   0.44296   0.00000  Uiso   1.00
C450   C     0.77505   0.84636   0.01193   0.00000  Uiso   1.00
C451   C     0.81845   0.84109   0.49047   0.00000  Uiso   1.00
C452   C     0.83469   0.84961   0.44440   0.00000  Uiso   1.00
C453   C     0.84621   0.82785   0.01329   0.00000  Uiso   1.00
C454   C     0.88962   0.82410   0.48991   0.00000  Uiso   1.00
C455   C     0.90578   0.83624   0.44632   0.00000  Uiso   1.00
C456   C     0.87946   0.85105   0.42413   0.00000  Uiso   1.00
H457   H     0.92700   0.79720   0.07361   0.00000  Uiso   1.00
H458   H     0.71539   0.86231   0.00565   0.00000  Uiso   1.00
H459   H     0.68264   0.86050   0.20916   0.00000  Uiso   1.00
H460   H     0.92888   0.86827   0.37499   0.00000  Uiso   1.00
H461   H     0.98557   0.80716   0.29108   0.00000  Uiso   1.00
H462   H     0.87354   0.67046   0.21061   0.00000  Uiso   1.00
H463   H     0.79234   0.99798   0.28981   0.00000  Uiso   1.00
H464   H     0.93969   0.83588   0.43006   0.00000  Uiso   1.00
H465   H     0.95079   0.80806   0.49371   0.00000  Uiso   1.00
H466   H     0.80124   0.82369   0.07978   0.00000  Uiso   1.00
H467   H     0.74063   0.86915   0.42507   0.00000  Uiso   1.00
H468   H     0.76049   0.84162   0.04678   0.00000  Uiso   1.00
O469   O     0.83333   0.83333   0.25000   0.00000  Uiso   1.00
O470   O     0.82118   0.79304   0.15459   0.00000  Uiso   1.00
O471   O     0.79607   0.87058   0.34968   0.00000  Uiso   1.00
O472   O     0.87491   0.84425   0.14606   0.00000  Uiso   1.00
O473   O     0.84118   0.82546   0.34968   0.00000  Uiso   1.00
O474   O     0.89749   0.86982   0.38425   0.00000  Uiso   1.00
O475   O     0.84597   0.74686   0.28214   0.00000  Uiso   1.00
O476   O     0.81298   0.92751   0.27014   0.00000  Uiso   1.00
O477   O     0.74078   0.79958   0.23413   0.00000  Uiso   1.00
O478   O     0.93360   0.85939   0.21361   0.00000  Uiso   1.00
O479   O     0.73738   0.85544   0.28213   0.00000  Uiso   1.00
O480   O     0.92158   0.81892   0.27014   0.00000  Uiso   1.00
O481   O     0.80426   0.73610   0.23413   0.00000  Uiso   1.00
O482   O     0.87012   0.92286   0.21361   0.00000  Uiso   1.00
Zn483  Zn    0.86005   0.80661   0.28734   0.00000  Uiso   1.00
Zn484  Zn    0.80046   0.79124   0.21876   0.00000  Uiso   1.00
Zn485  Zn    0.87723   0.86442   0.20657   0.00000  Uiso   1.00
Zn486  Zn    0.79560   0.87106   0.28734   0.00000  Uiso   1.00
C487   C     0.05278   0.15981   0.75997   0.00000  Uiso   1.00
C488   C     0.16621   0.15286   0.55907   0.00000  Uiso   1.00
C489   C     0.23739   0.13757   0.55667   0.00000  Uiso   1.00
C490   C     0.28086   0.17387   0.73993   0.00000  Uiso   1.00
C491   C     0.13884   0.19032   0.92010   0.00000  Uiso   1.00
C492   C     0.32679   0.17651   0.73562   0.00000  Uiso   1.00
C493   C     0.00745   0.15759   0.76410   0.00000  Uiso   1.00
C494   C     0.18063   0.32256   0.73623   0.00000  Uiso   1.00
C495   C     0.15220   0.01179   0.76400   0.00000  Uiso   1.00
C496   C     0.15632   0.05590   0.76014   0.00000  Uiso   1.00
C497   C     0.17667   0.27797   0.74009   0.00000  Uiso   1.00
C498   C     0.08174   0.19169   0.98858   0.00000  Uiso   1.00
C499   C     0.18569   0.14837   0.62930   0.00000  Uiso   1.00
C500   C     0.14911   0.18518   0.87081   0.00000  Uiso   1.00
C501   C     0.25097   0.14426   0.51137   0.00000  Uiso   1.00
C502   C     0.19538   0.14284   0.58072   0.00000  Uiso   1.00
C503   C     0.09650   0.19630   0.94296   0.00000  Uiso   1.00
C504   C     0.10838   0.17969   0.51193   0.00000  Uiso   1.00
C505   C     0.15178   0.17443   0.99047   0.00000  Uiso   1.00
C506   C     0.16802   0.18294   0.94440   0.00000  Uiso   1.00
C507   C     0.17954   0.16119   0.51329   0.00000  Uiso   1.00
C508   C     0.22295   0.15743   0.98991   0.00000  Uiso   1.00
C509   C     0.23912   0.16957   0.94632   0.00000  Uiso   1.00
C510   C     0.21279   0.18438   0.92413   0.00000  Uiso   1.00
H511   H     0.26033   0.13053   0.57361   0.00000  Uiso   1.00
H512   H     0.04872   0.19564   0.50565   0.00000  Uiso   1.00
H513   H     0.01597   0.19383   0.70916   0.00000  Uiso   1.00
H514   H     0.26222   0.20160   0.87499   0.00000  Uiso   1.00
H515   H     0.31890   0.14049   0.79108   0.00000  Uiso   1.00
H516   H     0.20688   0.00380   0.71061   0.00000  Uiso   1.00
H517   H     0.12567   0.33131   0.78981   0.00000  Uiso   1.00
H518   H     0.27302   0.16922   0.93006   0.00000  Uiso   1.00
H519   H     0.28413   0.14139   0.99371   0.00000  Uiso   1.00
H520   H     0.13457   0.15702   0.57978   0.00000  Uiso   1.00
H521   H     0.07396   0.20248   0.92507   0.00000  Uiso   1.00
H522   H     0.09382   0.17496   0.54678   0.00000  Uiso   1.00
O523   O     0.16667   0.16667   0.75000   0.00000  Uiso   1.00
O524   O     0.15451   0.12637   0.65459   0.00000  Uiso   1.00
O525   O     0.12940   0.20391   0.84968   0.00000  Uiso   1.00
O526   O     0.20824   0.17759   0.64606   0.00000  Uiso   1.00
O527   O     0.17451   0.15880   0.84968   0.00000  Uiso   1.00
O528   O     0.23082   0.20315   0.88425   0.00000  Uiso   1.00
O529   O     0.17930   0.08019   0.78214   0.00000  Uiso   1.00
O530   O     0.14632   0.26085   0.77014   0.00000  Uiso   1.00
O531   O     0.07412   0.13291   0.73413   0.00000  Uiso   1.00
O532   O     0.26693   0.19272   0.71361   0.00000  Uiso   1.00
O533   O     0.07071   0.18878   0.78213   0.00000  Uiso   1.00
O534   O     0.25491   0.15226   0.77014   0.00000  Uiso   1.00
O535   O     0.13760   0.06944   0.73413   0.00000  Uiso   1.00
O536   O     0.20345   0.25620   0.71361   0.00000  Uiso   1.00
Zn537  Zn    0.19338   0.13994   0.78734   0.00000  Uiso   1.00
Zn538  Zn    0.13379   0.12458   0.71876   0.00000  Uiso   1.00
Zn539  Zn    0.21056   0.19775   0.70657   0.00000  Uiso   1.00
Zn540  Zn    0.12893   0.20439   0.78734   0.00000  Uiso   1.00
C541   C     0.38612   0.15981   0.75997   0.00000  Uiso   1.00
C542   C     0.49955   0.15286   0.55907   0.00000  Uiso   1.00
C543   C     0.57072   0.13757   0.55667   0.00000  Uiso   1.00
C544   C     0.61420   0.17387   0.73993   0.00000  Uiso   1.00
C545   C     0.47217   0.19032   0.92010   0.00000  Uiso   1.00
C546   C     0.66013   0.17651   0.73562   0.00000  Uiso   1.00
C547   C     0.34079   0.15759   0.76410   0.00000  Uiso   1.00
C548   C     0.51396   0.32256   0.73623   0.00000  Uiso   1.00
C549   C     0.48554   0.01179   0.76400   0.00000  Uiso   1.00
C550   C     0.48966   0.05590   0.76014   0.00000  Uiso   1.00
C551   C     0.51000   0.27797   0.74009   0.00000  Uiso   1.00
C552   C     0.41507   0.19169   0.98858   0.00000  Uiso   1.00
C553   C     0.51902   0.14837   0.62930   0.00000  Uiso   1.00
C554   C     0.48244   0.18518   0.87081   0.00000  Uiso   1.00
C555   C     0.58430   0.14426   0.51137   0.00000  Uiso   1.00
C556   C     0.52871   0.14284   0.58072   0.00000  Uiso   1.00
C557   C     0.42984   0.19630   0.94296   0.00000  Uiso   1.00
C558   C     0.44172   0.17969   0.51193   0.00000  Uiso   1.00
C559   C     0.48511   0.17443   0.99047   0.00000  Uiso   1.00
C560   C     0.50135   0.18294   0.94440   0.00000  Uiso   1.00
C561   C     0.51287   0.16119   0.51329   0.00000  Uiso   1.00
C562   C     0.55628   0.15743   0.98991   0.00000  Uiso   1.00
C563   C     0.57245   0.16957   0.94632   0.00000  Uiso   1.00
C564   C     0.54612   0.18438   0.92413   0.00000  Uiso   1.00
H565   H     0.59366   0.13053   0.57361   0.00000  Uiso   1.00
H566   H     0.38205   0.19564   0.50565   0.00000  Uiso   1.00
H567   H     0.34930   0.19383   0.70916   0.00000  Uiso   1.00
H568   H     0.59555   0.20160   0.87499   0.00000  Uiso   1.00
H569   H     0.65223   0.14049   0.79108   0.00000  Uiso   1.00
H570   H     0.54021   0.00380   0.71061   0.00000  Uiso   1.00
H571   H     0.45901   0.33131   0.78981   0.00000  Uiso   1.00
H572   H     0.60636   0.16922   0.93006   0.00000  Uiso   1.00
H573   H     0.61746   0.14139   0.99371   0.00000  Uiso   1.00
H574   H     0.46791   0.15702   0.57978   0.00000  Uiso   1.00
H575   H     0.40729   0.20248   0.92507   0.00000  Uiso   1.00
H576   H     0.42716   0.17496   0.54678   0.00000  Uiso   1.00
O577   O     0.50000   0.16667   0.75000   0.00000  Uiso   1.00
O578   O     0.48784   0.12637   0.65459   0.00000  Uiso   1.00
O579   O     0.46274   0.20391   0.84968   0.00000  Uiso   1.00
O580   O     0.54157   0.17759   0.64606   0.00000  Uiso   1.00
O581   O     0.50785   0.15880   0.84968   0.00000  Uiso   1.00
O582   O     0.56416   0.20315   0.88425   0.00000  Uiso   1.00
O583   O     0.51264   0.08019   0.78214   0.00000  Uiso   1.00
O584   O     0.47965   0.26085   0.77014   0.00000  Uiso   1.00
O585   O     0.40745   0.13291   0.73413   0.00000  Uiso   1.00
O586   O     0.60026   0.19272   0.71361   0.00000  Uiso   1.00
O587   O     0.40405   0.18878   0.78213   0.00000  Uiso   1.00
O588   O     0.58824   0.15226   0.77014   0.00000  Uiso   1.00
O589   O     0.47093   0.06944   0.73413   0.00000  Uiso   1.00
O590   O     0.53678   0.25620   0.71361   0.00000  Uiso   1.00
Zn591  Zn    0.52672   0.13994   0.78734   0.00000  Uiso   1.00
Zn592  Zn    0.46713   0.12458   0.71876   0.00000  Uiso   1.00
Zn593  Zn    0.54389   0.19775   0.70657   0.00000  Uiso   1.00
Zn594  Zn    0.46226   0.20439   0.78734   0.00000  Uiso   1.00
C595   C     0.71945   0.15981   0.75997   0.00000  Uiso   1.00
C596   C     0.83288   0.15286   0.55907   0.00000  Uiso   1.00
C597   C     0.90405   0.13757   0.55667   0.00000  Uiso   1.00
C598   C     0.94753   0.17387   0.73993   0.00000  Uiso   1.00
C599   C     0.80551   0.19032   0.92010   0.00000  Uiso   1.00
C600   C     0.99346   0.17651   0.73562   0.00000  Uiso   1.00
C601   C     0.67412   0.15759   0.76410   0.00000  Uiso   1.00
C602   C     0.84729   0.32256   0.73623   0.00000  Uiso   1.00
C603   C     0.81887   0.01179   0.76400   0.00000  Uiso   1.00
C604   C     0.82299   0.05590   0.76014   0.00000  Uiso   1.00
C605   C     0.84334   0.27797   0.74009   0.00000  Uiso   1.00
C606   C     0.74840   0.19169   0.98858   0.00000  Uiso   1.00
C607   C     0.85235   0.14837   0.62930   0.00000  Uiso   1.00
C608   C     0.81578   0.18518   0.87081   0.00000  Uiso   1.00
C609   C     0.91763   0.14426   0.51137   0.00000  Uiso   1.00
C610   C     0.86204   0.14284   0.58072   0.00000  Uiso   1.00
C611   C     0.76317   0.19630   0.94296   0.00000  Uiso   1.00
C612   C     0.77505   0.17969   0.51193   0.00000  Uiso   1.00
C613   C     0.81845   0.17443   0.99047   0.00000  Uiso   1.00
C614   C     0.83469   0.18294   0.94440   0.00000  Uiso   1.00
C615   C     0.84621   0.16119   0.51329   0.00000  Uiso   1.00
C616   C     0.88962   0.15743   0.98991   0.00000  Uiso   1.00
C617   C     0.90578   0.16957   0.94632   0.00000  Uiso   1.00
C618   C     0.87946   0.18438   0.92413   0.00000  Uiso   1.00
H619   H     0.92700   0.13053   0.57361   0.00000  Uiso   1.00
H620   H     0.71539   0.19564   0.50565   0.00000  Uiso   1.00
H621   H     0.68264   0.19383   0.70916   0.00000  Uiso   1.00
H622   H     0.92888   0.20160   0.87499   0.00000  Uiso   1.00
H623   H     0.98557   0.14049   0.79108   0.00000  Uiso   1.00
H624   H     0.87354   0.00380   0.71061   0.00000  Uiso   1.00
H625   H     0.79234   0.33131   0.78981   0.00000  Uiso   1.00
H626   H     0.93969   0.16922   0.93006   0.00000  Uiso   1.00
H627   H     0.95079   0.14139   0.99371   0.00000  Uiso   1.00
H628   H     0.80124   0.15702   0.57978   0.00000  Uiso   1.00
H629   H     0.74063   0.20248   0.92507   0.00000  Uiso   1.00
H630   H     0.76049   0.17496   0.54678   0.00000  Uiso   1.00
O631   O     0.83333   0.16667   0.75000   0.00000  Uiso   1.00
O632   O     0.82118   0.12637   0.65459   0.00000  Uiso   1.00
O633   O     0.79607   0.20391   0.84968   0.00000  Uiso   1.00
O634   O     0.87491   0.17759   0.64606   0.00000  Uiso   1.00
O635   O     0.84118   0.15880   0.84968   0.00000  Uiso   1.00
O636   O     0.89749   0.20315   0.88425   0.00000  Uiso   1.00
O637   O     0.84597   0.08019   0.78214   0.00000  Uiso   1.00
O638   O     0.81298   0.26085   0.77014   0.00000  Uiso   1.00
O639   O     0.74078   0.13291   0.73413   0.00000  Uiso   1.00
O640   O     0.93360   0.19272   0.71361   0.00000  Uiso   1.00
O641   O     0.73738   0.18878   0.78213   0.00000  Uiso   1.00
O642   O     0.92158   0.15226   0.77014   0.00000  Uiso   1.00
O643   O     0.80426   0.06944   0.73413   0.00000  Uiso   1.00
O644   O     0.87012   0.25620   0.71361   0.00000  Uiso   1.00
Zn645  Zn    0.86005   0.13994   0.78734   0.00000  Uiso   1.00
Zn646  Zn    0.80046   0.12458   0.71876   0.00000  Uiso   1.00
Zn647  Zn    0.87723   0.19775   0.70657   0.00000  Uiso   1.00
Zn648  Zn    0.79560   0.20439   0.78734   0.00000  Uiso   1.00
C649   C     0.05278   0.49314   0.75997   0.00000  Uiso   1.00
C650   C     0.16621   0.48619   0.55907   0.00000  Uiso   1.00
C651   C     0.23739   0.47090   0.55667   0.00000  Uiso   1.00
C652   C     0.28086   0.50720   0.73993   0.00000  Uiso   1.00
C653   C     0.13884   0.52365   0.92010   0.00000  Uiso   1.00
C654   C     0.32679   0.50985   0.73562   0.00000  Uiso   1.00
C655   C     0.00745   0.49093   0.76410   0.00000  Uiso   1.00
C656   C     0.18063   0.65589   0.73623   0.00000  Uiso   1.00
C657   C     0.15220   0.34512   0.76400   0.00000  Uiso   1.00
C658   C     0.15632   0.38923   0.76014   0.00000  Uiso   1.00
C659   C     0.17667   0.61130   0.74009   0.00000  Uiso   1.00
C660   C     0.08174   0.52502   0.98858   0.00000  Uiso   1.00
C661   C     0.18569   0.48170   0.62930   0.00000  Uiso   1.00
C662   C     0.14911   0.51852   0.87081   0.00000  Uiso   1.00
C663   C     0.25097   0.47759   0.51137   0.00000  Uiso   1.00
C664   C     0.19538   0.47617   0.58072   0.00000  Uiso   1.00
C665   C     0.09650   0.52963   0.94296   0.00000  Uiso   1.00
C666   C     0.10838   0.51303   0.51193   0.00000  Uiso   1.00
C667   C     0.15178   0.50776   0.99047   0.00000  Uiso   1.00
C668   C     0.16802   0.51628   0.94440   0.00000  Uiso   1.00
C669   C     0.17954   0.49452   0.51329   0.00000  Uiso   1.00
C670   C     0.22295   0.49077   0.98991   0.00000  Uiso   1.00
C671   C     0.23912   0.50291   0.94632   0.00000  Uiso   1.00
C672   C     0.21279   0.51771   0.92413   0.00000  Uiso   1.00
H673   H     0.26033   0.46387   0.57361   0.00000  Uiso   1.00
H674   H     0.04872   0.52898   0.50565   0.00000  Uiso   1.00
H675   H     0.01597   0.52717   0.70916   0.00000  Uiso   1.00
H676   H     0.26222   0.53494   0.87499   0.00000  Uiso   1.00
H677   H     0.31890   0.47382   0.79108   0.00000  Uiso   1.00
H678   H     0.20688   0.33713   0.71061   0.00000  Uiso   1.00
H679   H     0.12567   0.66465   0.78981   0.00000  Uiso   1.00
H680   H     0.27302   0.50255   0.93006   0.00000  Uiso   1.00
H681   H     0.28413   0.47473   0.99371   0.00000  Uiso   1.00
H682   H     0.13457   0.49036   0.57978   0.00000  Uiso   1.00
H683   H     0.07396   0.53582   0.92507   0.00000  Uiso   1.00
H684   H     0.09382   0.50829   0.54678   0.00000  Uiso   1.00
O685   O     0.16667   0.50000   0.75000   0.00000  Uiso   1.00
O686   O     0.15451   0.45970   0.65459   0.00000  Uiso   1.00
O687   O     0.12940   0.53724   0.84968   0.00000  Uiso   1.00
O688   O     0.20824   0.51092   0.64606   0.00000  Uiso   1.00
O689   O     0.17451   0.49213   0.84968   0.00000  Uiso   1.00
O690   O     0.23082   0.53648   0.88425   0.00000  Uiso   1.00
O691   O     0.17930   0.41352   0.78214   0.00000  Uiso   1.00
O692   O     0.14632   0.59418   0.77014   0.00000  Uiso   1.00
O693   O     0.07412   0.46625   0.73413   0.00000  Uiso   1.00
O694   O     0.26693   0.52605   0.71361   0.00000  Uiso   1.00
O695   O     0.07071   0.52211   0.78213   0.00000  Uiso   1.00
O696   O     0.25491   0.48559   0.77014   0.00000  Uiso   1.00
O697   O     0.13760   0.40277   0.73413   0.00000  Uiso   1.00
O698   O     0.20345   0.58953   0.71361   0.00000  Uiso   1.00
Zn699  Zn    0.19338   0.47327   0.78734   0.00000  Uiso   1.00
Zn700  Zn    0.13379   0.45791   0.71876   0.00000  Uiso   1.00
Zn701  Zn    0.21056   0.53109   0.70657   0.00000  Uiso   1.00
Zn702  Zn    0.12893   0.53773   0.78734   0.00000  Uiso   1.00
C703   C     0.38612   0.49314   0.75997   0.00000  Uiso   1.00
C704   C     0.49955   0.48619   0.55907   0.00000  Uiso   1.00
C705   C     0.57072   0.47090   0.55667   0.00000  Uiso   1.00
C706   C     0.61420   0.50720   0.73993   0.00000  Uiso   1.00
C707   C     0.47217   0.52365   0.92010   0.00000  Uiso   1.00
C708   C     0.66013   0.50985   0.73562   0.00000  Uiso   1.00
C709   C     0.34079   0.49093   0.76410   0.00000  Uiso   1.00
C710   C     0.51396   0.65589   0.73623   0.00000  Uiso   1.00
C711   C     0.48554   0.34512   0.76400   0.00000  Uiso   1.00
C712   C     0.48966   0.38923   0.76014   0.00000  Uiso   1.00
C713   C     0.51000   0.61130   0.74009   0.00000  Uiso   1.00
C714   C     0.41507   0.52502   0.98858   0.00000  Uiso   1.00
C715   C     0.51902   0.48170   0.62930   0.00000  Uiso   1.00
C716   C     0.48244   0.51852   0.87081   0.00000  Uiso   1.00
C717   C     0.58430   0.47759   0.51137   0.00000  Uiso   1.00
C718   C     0.52871   0.47617   0.58072   0.00000  Uiso   1.00
C719   C     0.42984   0.52963   0.94296   0.00000  Uiso   1.00
C720   C     0.44172   0.51303   0.51193   0.00000  Uiso   1.00
C721   C     0.48511   0.50776   0.99047   0.00000  Uiso   1.00
C722   C     0.50135   0.51628   0.94440   0.00000  Uiso   1.00
C723   C     0.51287   0.49452   0.51329   0.00000  Uiso   1.00
C724   C     0.55628   0.49077   0.98991   0.00000  Uiso   1.00
C725   C     0.57245   0.50291   0.94632   0.00000  Uiso   1.00
C726   C     0.54612   0.51771   0.92413   0.00000  Uiso   1.00
H727   H     0.59366   0.46387   0.57361   0.00000  Uiso   1.00
H728   H     0.38205   0.52898   0.50565   0.00000  Uiso   1.00
H729   H     0.34930   0.52717   0.70916   0.00000  Uiso   1.00
H730   H     0.59555   0.53494   0.87499   0.00000  Uiso   1.00
H731   H     0.65223   0.47382   0.79108   0.00000  Uiso   1.00
H732   H     0.54021   0.33713   0.71061   0.00000  Uiso   1.00
H733   H     0.45901   0.66465   0.78981   0.00000  Uiso   1.00
H734   H     0.60636   0.50255   0.93006   0.00000  Uiso   1.00
H735   H     0.61746   0.47473   0.99371   0.00000  Uiso   1.00
H736   H     0.46791   0.49036   0.57978   0.00000  Uiso   1.00
H737   H     0.40729   0.53582   0.92507   0.00000  Uiso   1.00
H738   H     0.42716   0.50829   0.54678   0.00000  Uiso   1.00
O739   O     0.50000   0.50000   0.75000   0.00000  Uiso   1.00
O740   O     0.48784   0.45970   0.65459   0.00000  Uiso   1.00
O741   O     0.46274   0.53724   0.84968   0.00000  Uiso   1.00
O742   O     0.54157   0.51092   0.64606   0.00000  Uiso   1.00
O743   O     0.50785   0.49213   0.84968   0.00000  Uiso   1.00
O744   O     0.56416   0.53648   0.88425   0.00000  Uiso   1.00
O745   O     0.51264   0.41352   0.78214   0.00000  Uiso   1.00
O746   O     0.47965   0.59418   0.77014   0.00000  Uiso   1.00
O747   O     0.40745   0.46625   0.73413   0.00000  Uiso   1.00
O748   O     0.60026   0.52605   0.71361   0.00000  Uiso   1.00
O749   O     0.40405   0.52211   0.78213   0.00000  Uiso   1.00
O750   O     0.58824   0.48559   0.77014   0.00000  Uiso   1.00
O751   O     0.47093   0.40277   0.73413   0.00000  Uiso   1.00
O752   O     0.53678   0.58953   0.71361   0.00000  Uiso   1.00
Zn753  Zn    0.52672   0.47327   0.78734   0.00000  Uiso   1.00
Zn754  Zn    0.46713   0.45791   0.71876   0.00000  Uiso   1.00
Zn755  Zn    0.54389   0.53109   0.70657   0.00000  Uiso   1.00
Zn756  Zn    0.46226   0.53773   0.78734   0.00000  Uiso   1.00
C757   C     0.71945   0.49314   0.75997   0.00000  Uiso   1.00
C758   C     0.83288   0.48619   0.55907   0.00000  Uiso   1.00
C759   C     0.90405   0.47090   0.55667   0.00000  Uiso   1.00
C760   C     0.94753   0.50720   0.73993   0.00000  Uiso   1.00
C761   C     0.80551   0.52365   0.92010   0.00000  Uiso   1.00
C762   C     0.99346   0.50985   0.73562   0.00000  Uiso   1.00
C763   C     0.67412   0.49093   0.76410   0.00000  Uiso   1.00
C764   C     0.84729   0.65589   0.73623   0.00000  Uiso   1.00
C765   C     0.81887   0.34512   0.76400   0.00000  Uiso   1.00
C766   C     0.82299   0.38923   0.76014   0.00000  Uiso   1.00
C767   C     0.84334   0.61130   0.74009   0.00000  Uiso   1.00
C768   C     0.74840   0.52502   0.98858   0.00000  Uiso   1.00
C769   C     0.85235   0.48170   0.62930   0.00000  Uiso   1.00
C770   C     0.81578   0.51852   0.87081   0.00000  Uiso   1.00
C771   C     0.91763   0.47759   0.51137   0.00000  Uiso   1.00
C772   C     0.86204   0.47617   0.58072   0.00000  Uiso   1.00
C773   C     0.76317   0.52963   0.94296   0.00000  Uiso   1.00
C774   C     0.77505   0.51303   0.51193   0.00000  Uiso   1.00
C775   C     0.81845   0.50776   0.99047   0.00000  Uiso   1.00
C776   C     0.83469   0.51628   0.94440   0.00000  Uiso   1.00
C777   C     0.84621   0.49452   0.51329   0.00000  Uiso   1.00
C778   C     0.88962   0.49077   0.98991   0.00000  Uiso   1.00
C779   C     0.90578   0.50291   0.94632   0.00000  Uiso   1.00
C780   C     0.87946   0.51771   0.92413   0.00000  Uiso   1.00
H781   H     0.92700   0.46387   0.57361   0.00000  Uiso   1.00
H782   H     0.71539   0.52898   0.50565   0.00000  Uiso   1.00
H783   H     0.68264   0.52717   0.70916   0.00000  Uiso   1.00
H784   H     0.92888   0.53494   0.87499   0.00000  Uiso   1.00
H785   H     0.98557   0.47382   0.79108   0.00000  Uiso   1.00
H786   H     0.87354   0.33713   0.71061   0.00000  Uiso   1.00
H787   H     0.79234   0.66465   0.78981   0.00000  Uiso   1.00
H788   H     0.93969   0.50255   0.93006   0.00000  Uiso   1.00
H789   H     0.95079   0.47473   0.99371   0.00000  Uiso   1.00
H790   H     0.80124   0.49036   0.57978   0.00000  Uiso   1.00
H791   H     0.74063   0.53582   0.92507   0.00000  Uiso   1.00
H792   H     0.76049   0.50829   0.54678   0.00000  Uiso   1.00
O793   O     0.83333   0.50000   0.75000   0.00000  Uiso   1.00
O794   O     0.82118   0.45970   0.65459   0.00000  Uiso   1.00
O795   O     0.79607   0.53724   0.84968   0.00000  Uiso   1.00
O796   O     0.87491   0.51092   0.64606   0.00000  Uiso   1.00
O797   O     0.84118   0.49213   0.84968   0.00000  Uiso   1.00
O798   O     0.89749   0.53648   0.88425   0.00000  Uiso   1.00
O799   O     0.84597   0.41352   0.78214   0.00000  Uiso   1.00
O800   O     0.81298   0.59418   0.77014   0.00000  Uiso   1.00
O801   O     0.74078   0.46625   0.73413   0.00000  Uiso   1.00
O802   O     0.93360   0.52605   0.71361   0.00000  Uiso   1.00
O803   O     0.73738   0.52211   0.78213   0.00000  Uiso   1.00
O804   O     0.92158   0.48559   0.77014   0.00000  Uiso   1.00
O805   O     0.80426   0.40277   0.73413   0.00000  Uiso   1.00
O806   O     0.87012   0.58953   0.71361   0.00000  Uiso   1.00
Zn807  Zn    0.86005   0.47327   0.78734   0.00000  Uiso   1.00
Zn808  Zn    0.80046   0.45791   0.71876   0.00000  Uiso   1.00
Zn809  Zn    0.87723   0.53109   0.70657   0.00000  Uiso   1.00
Zn810  Zn    0.79560   0.53773   0.78734   0.00000  Uiso   1.00
C811   C     0.05278   0.82648   0.75997   0.00000  Uiso   1.00
C812   C     0.16621   0.81953   0.55907   0.00000  Uiso   1.00
C813   C     0.23739   0.80424   0.55667   0.00000  Uiso   1.00
C814   C     0.28086   0.84054   0.73993   0.00000  Uiso   1.00
C815   C     0.13884   0.85698   0.92010   0.00000  Uiso   1.00
C816   C     0.32679   0.84318   0.73562   0.00000  Uiso   1.00
C817   C     0.00745   0.82426   0.76410   0.00000  Uiso   1.00
C818   C     0.18063   0.98922   0.73623   0.00000  Uiso   1.00
C819   C     0.15220   0.67845   0.76400   0.00000  Uiso   1.00
C820   C     0.15632   0.72256   0.76014   0.00000  Uiso   1.00
C821   C     0.17667   0.94464   0.74009   0.00000  Uiso   1.00
C822   C     0.08174   0.85836   0.98858   0.00000  Uiso   1.00
C823   C     0.18569   0.81504   0.62930   0.00000  Uiso   1.00
C824   C     0.14911   0.85185   0.87081   0.00000  Uiso   1.00
C825   C     0.25097   0.81093   0.51137   0.00000  Uiso   1.00
C826   C     0.19538   0.80951   0.58072   0.00000  Uiso   1.00
C827   C     0.09650   0.86297   0.94296   0.00000  Uiso   1.00
C828   C     0.10838   0.84636   0.51193   0.00000  Uiso   1.00
C829   C     0.15178   0.84109   0.99047   0.00000  Uiso   1.00
C830   C     0.16802   0.84961   0.94440   0.00000  Uiso   1.00
C831   C     0.17954   0.82785   0.51329   0.00000  Uiso   1.00
C832   C     0.22295   0.82410   0.98991   0.00000  Uiso   1.00
C833   C     0.23912   0.83624   0.94632   0.00000  Uiso   1.00
C834   C     0.21279   0.85105   0.92413   0.00000  Uiso   1.00
H835   H     0.26033   0.79720   0.57361   0.00000  Uiso   1.00
H836   H     0.04872   0.86231   0.50565   0.00000  Uiso   1.00
H837   H     0.01597   0.86050   0.70916   0.00000  Uiso   1.00
H838   H     0.26222   0.86827   0.87499   0.00000  Uiso   1.00
H839   H     0.31890   0.80716   0.79108   0.00000  Uiso   1.00
H840   H     0.20688   0.67046   0.71061   0.00000  Uiso   1.00
H841   H     0.12567   0.99798   0.78981   0.00000  Uiso   1.00
H842   H     0.27302   0.83588   0.93006   0.00000  Uiso   1.00
H843   H     0.28413   0.80806   0.99371   0.00000  Uiso   1.00
H844   H     0.13457   0.82369   0.57978   0.00000  Uiso   1.00
H845   H     0.07396   0.86915   0.92507   0.00000  Uiso   1.00
H846   H     0.09382   0.84162   0.54678   0.00000  Uiso   1.00
O847   O     0.16667   0.83333   0.75000   0.00000  Uiso   1.00
O848   O     0.15451   0.79304   0.65459   0.00000  Uiso   1.00
O849   O     0.12940   0.87058   0.84968   0.00000  Uiso   1.00
O850   O     0.20824   0.84425   0.64606   0.00000  Uiso   1.00
O851   O     0.17451   0.82546   0.84968   0.00000  Uiso   1.00
O852   O     0.23082   0.86982   0.88425   0.00000  Uiso   1.00
O853   O     0.17930   0.74686   0.78214   0.00000  Uiso   1.00
O854   O     0.14632   0.92751   0.77014   0.00000  Uiso   1.00
O855   O     0.07412   0.79958   0.73413   0.00000  Uiso   1.00
O856   O     0.26693   0.85939   0.71361   0.00000  Uiso   1.00
O857   O     0.07071   0.85544   0.78213   0.00000  Uiso   1.00
O858   O     0.25491   0.81892   0.77014   0.00000  Uiso   1.00
O859   O     0.13760   0.73610   0.73413   0.00000  Uiso   1.00
O860   O     0.20345   0.92286   0.71361   0.00000  Uiso   1.00
Zn861  Zn    0.19338   0.80661   0.78734   0.00000  Uiso   1.00
Zn862  Zn    0.13379   0.79124   0.71876   0.00000  Uiso   1.00
Zn863  Zn    0.21056   0.86442   0.70657   0.00000  Uiso   1.00
Zn864  Zn    0.12893   0.87106   0.78734   0.00000  Uiso   1.00
C865   C     0.38612   0.82648   0.75997   0.00000  Uiso   1.00
C866   C     0.49955   0.81953   0.55907   0.00000  Uiso   1.00
C867   C     0.57072   0.80424   0.55667   0.00000  Uiso   1.00
C868   C     0.61420   0.84054   0.73993   0.00000  Uiso   1.00
C869   C     0.47217   0.85698   0.92010   0.00000  Uiso   1.00
C870   C     0.66013   0.84318   0.73562   0.00000  Uiso   1.00
C871   C     0.34079   0.82426   0.76410   0.00000  Uiso   1.00
C872   C     0.51396   0.98922   0.73623   0.00000  Uiso   1.00
C873   C     0.48554   0.67845   0.76400   0.00000  Uiso   1.00
C874   C     0.48966   0.72256   0.76014   0.00000  Uiso   1.00
C875   C     0.51000   0.94464   0.74009   0.00000  Uiso   1.00
C876   C     0.41507   0.85836   0.98858   0.00000  Uiso   1.00
C877   C     0.51902   0.81504   0.62930   0.00000  Uiso   1.00
C878   C     0.48244   0.85185   0.87081   0.00000  Uiso   1.00
C879   C     0.58430   0.81093   0.51137   0.00000  Uiso   1.00
C880   C     0.52871   0.80951   0.58072   0.00000  Uiso   1.00
C881   C     0.42984   0.86297   0.94296   0.00000  Uiso   1.00
C882   C     0.44172   0.84636   0.51193   0.00000  Uiso   1.00
C883   C     0.48511   0.84109   0.99047   0.00000  Uiso   1.00
C884   C     0.50135   0.84961   0.94440   0.00000  Uiso   1.00
C885   C     0.51287   0.82785   0.51329   0.00000  Uiso   1.00
C886   C     0.55628   0.82410   0.98991   0.00000  Uiso   1.00
C887   C     0.57245   0.83624   0.94632   0.00000  Uiso   1.00
C888   C     0.54612   0.85105   0.92413   0.00000  Uiso   1.00
H889   H     0.59366   0.79720   0.57361   0.00000  Uiso   1.00
H890   H     0.38205   0.86231   0.50565   0.00000  Uiso   1.00
H891   H     0.34930   0.86050   0.70916   0.00000  Uiso   1.00
H892   H     0.59555   0.86827   0.87499   0.00000  Uiso   1.00
H893   H     0.65223   0.80716   0.79108   0.00000  Uiso   1.00
H894   H     0.54021   0.67046   0.71061   0.00000  Uiso   1.00
H895   H     0.45901   0.99798   0.78981   0.00000  Uiso   1.00
H896   H     0.60636   0.83588   0.93006   0.00000  Uiso   1.00
H897   H     0.61746   0.80806   0.99371   0.00000  Uiso   1.00
H898   H     0.46791   0.82369   0.57978   0.00000  Uiso   1.00
H899   H     0.40729   0.86915   0.92507   0.00000  Uiso   1.00
H900   H     0.42716   0.84162   0.54678   0.00000  Uiso   1.00
O901   O     0.50000   0.83333   0.75000   0.00000  Uiso   1.00
O902   O     0.48784   0.79304   0.65459   0.00000  Uiso   1.00
O903   O     0.46274   0.87058   0.84968   0.00000  Uiso   1.00
O904   O     0.54157   0.84425   0.64606   0.00000  Uiso   1.00
O905   O     0.50785   0.82546   0.84968   0.00000  Uiso   1.00
O906   O     0.56416   0.86982   0.88425   0.00000  Uiso   1.00
O907   O     0.51264   0.74686   0.78214   0.00000  Uiso   1.00
O908   O     0.47965   0.92751   0.77014   0.00000  Uiso   1.00
O909   O     0.40745   0.79958   0.73413   0.00000  Uiso   1.00
O910   O     0.60026   0.85939   0.71361   0.00000  Uiso   1.00
O911   O     0.40405   0.85544   0.78213   0.00000  Uiso   1.00
O912   O     0.58824   0.81892   0.77014   0.00000  Uiso   1.00
O913   O     0.47093   0.73610   0.73413   0.00000  Uiso   1.00
O914   O     0.53678   0.92286   0.71361   0.00000  Uiso   1.00
Zn915  Zn    0.52672   0.80661   0.78734   0.00000  Uiso   1.00
Zn916  Zn    0.46713   0.79124   0.71876   0.00000  Uiso   1.00
Zn917  Zn    0.54389   0.86442   0.70657   0.00000  Uiso   1.00
Zn918  Zn    0.46226   0.87106   0.78734   0.00000  Uiso   1.00
C919   C     0.71945   0.82648   0.75997   0.00000  Uiso   1.00
C920   C     0.83288   0.81953   0.55907   0.00000  Uiso   1.00
C921   C     0.90405   0.80424   0.55667   0.00000  Uiso   1.00
C922   C     0.94753   0.84054   0.73993   0.00000  Uiso   1.00
C923   C     0.80551   0.85698   0.92010   0.00000  Uiso   1.00
C924   C     0.99346   0.84318   0.73562   0.00000  Uiso   1.00
C925   C     0.67412   0.82426   0.76410   0.00000  Uiso   1.00
C926   C     0.84729   0.98922   0.73623   0.00000  Uiso   1.00
C927   C     0.81887   0.67845   0.76400   0.00000  Uiso   1.00
C928   C     0.82299   0.72256   0.76014   0.00000  Uiso   1.00
C929   C     0.84334   0.94464   0.74009   0.00000  Uiso   1.00
C930   C     0.74840   0.85836   0.98858   0.00000  Uiso   1.00
C931   C     0.85235   0.81504   0.62930   0.00000  Uiso   1.00
C932   C     0.81578   0.85185   0.87081   0.00000  Uiso   1.00
C933   C     0.91763   0.81093   0.51137   0.00000  Uiso   1.00
C934   C     0.86204   0.80951   0.58072   0.00000  Uiso   1.00
C935   C     0.76317   0.86297   0.94296   0.00000  Uiso   1.00
C936   C     0.77505   0.84636   0.51193   0.00000  Uiso   1.00
C937   C     0.81845   0.84109   0.99047   0.00000  Uiso   1.00
C938   C     0.83469   0.84961   0.94440   0.00000  Uiso   1.00
C939   C     0.84621   0.82785   0.51329   0.00000  Uiso   1.00
C940   C     0.88962   0.82410   0.98991   0.00000  Uiso   1.00
C941   C     0.90578   0.83624   0.94632   0.00000  Uiso   1.00
C942   C     0.87946   0.85105   0.92413   0.00000  Uiso   1.00
H943   H     0.92700   0.79720   0.57361   0.00000  Uiso   1.00
H944   H     0.71539   0.86231   0.50565   0.00000  Uiso   1.00
H945   H     0.68264   0.86050   0.70916   0.00000  Uiso   1.00
H946   H     0.92888   0.86827   0.87499   0.00000  Uiso   1.00
H947   H     0.98557   0.80716   0.79108   0.00000  Uiso   1.00
H948   H     0.87354   0.67046   0.71061   0.00000  Uiso   1.00
H949   H     0.79234   0.99798   0.78981   0.00000  Uiso   1.00
H950   H     0.93969   0.83588   0.93006   0.00000  Uiso   1.00
H951   H     0.95079   0.80806   0.99371   0.00000  Uiso   1.00
H952   H     0.80124   0.82369   0.57978   0.00000  Uiso   1.00
H953   H     0.74063   0.86915   0.92507   0.00000  Uiso   1.00
H954   H     0.76049   0.84162   0.54678   0.00000  Uiso   1.00
O955   O     0.83333   0.83333   0.75000   0.00000  Uiso   1.00
O956   O     0.82118   0.79304   0.65459   0.00000  Uiso   1.00
O957   O     0.79607   0.87058   0.84968   0.00000  Uiso   1.00
O958   O     0.87491   0.84425   0.64606   0.00000  Uiso   1.00
O959   O     0.84118   0.82546   0.84968   0.00000  Uiso   1.00
O960   O     0.89749   0.86982   0.88425   0.00000  Uiso   1.00
O961   O     0.84597   0.74686   0.78214   0.00000  Uiso   1.00
O962   O     0.81298   0.92751   0.77014   0.00000  Uiso   1.00
O963   O     0.74078   0.79958   0.73413   0.00000  Uiso   1.00
O964   O     0.93360   0.85939   0.71361   0.00000  Uiso   1.00
O965   O     0.73738   0.85544   0.78213   0.00000  Uiso   1.00
O966   O     0.92158   0.81892   0.77014   0.00000  Uiso   1.00
O967   O     0.80426   0.73610   0.73413   0.00000  Uiso   1.00
O968   O     0.87012   0.92286   0.71361   0.00000  Uiso   1.00
Zn969  Zn    0.86005   0.80661   0.78734   0.00000  Uiso   1.00
Zn970  Zn    0.80046   0.79124   0.71876   0.00000  Uiso   1.00
Zn971  Zn    0.87723   0.86442   0.70657   0.00000  Uiso   1.00
Zn972  Zn    0.79560   0.87106   0.78734   0.00000  Uiso   1.00
loop_
_geom_bond_atom_site_label_1
_geom_bond_atom_site_label_2
_geom_bond_distance
_geom_bond_site_symmetry_2
_ccdc_geom_bond_type
C1     O45     1.273   .     A
C1     O47     1.272   .     A
C1     C7      1.438   .     S
C2     C16     1.393   .     A
C2     H34     1.077   .     S
C2     C21     1.413   .     A
C3     H25     1.084   .     S
C3     C15     1.387   .     A
C3     C16     1.396   .     A
C4     O46     1.280   .     A
C4     C6      1.456   .     S
C4     O48     1.275   .     A
C5     C14     1.473   .     S
C5     C17     1.402   .     A
C5     C20     1.422   .     A
C6     C61     1.335   .     S
C6     H81     1.088   .     S
C7     C114    1.335   1_455 S
C7     H137    1.086   1_455 S
C8     C11     1.452   .     S
C8     C171    1.332   .     S
C8     H192    1.088   .     S
C9     C10     1.436   .     S
C9     C332    1.332   1_545 S
C9     H355    1.086   1_545 S
C10    O43     1.280   .     A
C10    O49     1.280   .     A
C11    O44     1.269   .     A
C11    O50     1.269   .     A
C12    C17     1.385   .     A
C12    C504    1.389   .     S
C12    H512    1.083   .     S
C13    O38     1.279   .     A
C13    C16     1.452   .     S
C13    O40     1.268   .     A
C14    O41     1.284   .     A
C14    O39     1.280   .     A
C15    C508    1.401   1_554 S
C15    H519    1.084   1_554 S
C17    H35     1.084   .     S
C18    H36     1.076   .     S
C18    C498    1.389   1_554 S
C18    C505    1.418   1_554 S
C19    C20     1.427   .     A
C19    C504    1.418   .     S
C19    C507    1.424   .     S
C20    C24     1.420   .     A
C21    C505    1.424   1_554 S
C21    C508    1.421   1_554 S
C22    C23     1.391   .     A
C22    C501    1.401   .     S
C22    C507    1.421   .     S
C23    C24     1.397   .     A
C23    H32     1.085   .     S
C24    O42     1.384   .     S
H26    C498    1.083   1_554 S
H27    C114    1.088   1_455 S
H28    O42     0.992   .     S
H29    C61     1.086   .     S
H30    C332    1.088   1_545 S
H31    C171    1.086   .     S
H33    C501    1.084   .     S
O37    Zn53    1.926   .     S
O37    Zn54    1.932   .     S
O37    Zn51    1.958   .     S
O37    Zn52    1.951   .     S
O38    Zn52    1.928   .     S
O39    Zn54    1.942   .     S
O40    Zn53    1.941   .     S
O41    Zn51    1.928   .     S
O43    Zn51    1.930   .     S
O44    Zn54    1.928   .     S
O45    Zn52    1.925   .     S
O46    Zn53    1.938   .     S
O47    Zn54    1.935   .     S
O48    Zn51    1.922   .     S
O49    Zn52    1.933   .     S
O50    Zn53    1.931   .     S
C55    O99     1.273   .     A
C55    O101    1.272   .     A
C55    C61     1.438   .     S
C56    C70     1.393   .     A
C56    H88     1.077   .     S
C56    C75     1.413   .     A
C57    H79     1.084   .     S
C57    C69     1.387   .     A
C57    C70     1.396   .     A
C58    O100    1.280   .     A
C58    C60     1.456   .     S
C58    O102    1.275   .     A
C59    C68     1.473   .     S
C59    C71     1.402   .     A
C59    C74     1.422   .     A
C60    C115    1.335   .     S
C60    H135    1.088   .     S
C62    C65     1.452   .     S
C62    C225    1.332   .     S
C62    H246    1.088   .     S
C63    C64     1.436   .     S
C63    C386    1.332   1_545 S
C63    H409    1.086   1_545 S
C64    O97     1.280   .     A
C64    O103    1.280   .     A
C65    O98     1.269   .     A
C65    O104    1.269   .     A
C66    C71     1.385   .     A
C66    C558    1.389   .     S
C66    H566    1.083   .     S
C67    O92     1.279   .     A
C67    C70     1.452   .     S
C67    O94     1.268   .     A
C68    O95     1.284   .     A
C68    O93     1.280   .     A
C69    C562    1.401   1_554 S
C69    H573    1.084   1_554 S
C71    H89     1.084   .     S
C72    H90     1.076   .     S
C72    C552    1.389   1_554 S
C72    C559    1.418   1_554 S
C73    C74     1.427   .     A
C73    C558    1.418   .     S
C73    C561    1.424   .     S
C74    C78     1.420   .     A
C75    C559    1.424   1_554 S
C75    C562    1.421   1_554 S
C76    C77     1.391   .     A
C76    C555    1.401   .     S
C76    C561    1.421   .     S
C77    C78     1.397   .     A
C77    H86     1.085   .     S
C78    O96     1.384   .     S
H80    C552    1.083   1_554 S
H82    O96     0.992   .     S
H83    C115    1.086   .     S
H84    C386    1.088   1_545 S
H85    C225    1.086   .     S
H87    C555    1.084   .     S
O91    Zn107   1.926   .     S
O91    Zn108   1.932   .     S
O91    Zn105   1.958   .     S
O91    Zn106   1.951   .     S
O92    Zn106   1.928   .     S
O93    Zn108   1.942   .     S
O94    Zn107   1.941   .     S
O95    Zn105   1.928   .     S
O97    Zn105   1.930   .     S
O98    Zn108   1.928   .     S
O99    Zn106   1.925   .     S
O100   Zn107   1.938   .     S
O101   Zn108   1.935   .     S
O102   Zn105   1.922   .     S
O103   Zn106   1.933   .     S
O104   Zn107   1.931   .     S
C109   O153    1.273   .     A
C109   O155    1.272   .     A
C109   C115    1.438   .     S
C110   C124    1.393   .     A
C110   H142    1.077   .     S
C110   C129    1.413   .     A
C111   H133    1.084   .     S
C111   C123    1.387   .     A
C111   C124    1.396   .     A
C112   O154    1.280   .     A
C112   C114    1.456   .     S
C112   O156    1.275   .     A
C113   C122    1.473   .     S
C113   C125    1.402   .     A
C113   C128    1.422   .     A
C114   C7      1.335   1_655 S
C114   H27     1.088   1_655 S
C116   C119    1.452   .     S
C116   C279    1.332   .     S
C116   H300    1.088   .     S
C117   C118    1.436   .     S
C117   C440    1.332   1_545 S
C117   H463    1.086   1_545 S
C118   O151    1.280   .     A
C118   O157    1.280   .     A
C119   O152    1.269   .     A
C119   O158    1.269   .     A
C120   C125    1.385   .     A
C120   C612    1.389   .     S
C120   H620    1.083   .     S
C121   O146    1.279   .     A
C121   C124    1.452   .     S
C121   O148    1.268   .     A
C122   O149    1.284   .     A
C122   O147    1.280   .     A
C123   C616    1.401   1_554 S
C123   H627    1.084   1_554 S
C125   H143    1.084   .     S
C126   H144    1.076   .     S
C126   C606    1.389   1_554 S
C126   C613    1.418   1_554 S
C127   C128    1.427   .     A
C127   C612    1.418   .     S
C127   C615    1.424   .     S
C128   C132    1.420   .     A
C129   C613    1.424   1_554 S
C129   C616    1.421   1_554 S
C130   C131    1.391   .     A
C130   C609    1.401   .     S
C130   C615    1.421   .     S
C131   C132    1.397   .     A
C131   H140    1.085   .     S
C132   O150    1.384   .     S
H134   C606    1.083   1_554 S
H136   O150    0.992   .     S
H137   C7      1.086   1_655 S
H138   C440    1.088   1_545 S
H139   C279    1.086   .     S
H141   C609    1.084   .     S
O145   Zn161   1.926   .     S
O145   Zn162   1.932   .     S
O145   Zn159   1.958   .     S
O145   Zn160   1.951   .     S
O146   Zn160   1.928   .     S
O147   Zn162   1.942   .     S
O148   Zn161   1.941   .     S
O149   Zn159   1.928   .     S
O151   Zn159   1.930   .     S
O152   Zn162   1.928   .     S
O153   Zn160   1.925   .     S
O154   Zn161   1.938   .     S
O155   Zn162   1.935   .     S
O156   Zn159   1.922   .     S
O157   Zn160   1.933   .     S
O158   Zn161   1.931   .     S
C163   O207    1.273   .     A
C163   O209    1.272   .     A
C163   C169    1.438   .     S
C164   C178    1.393   .     A
C164   H196    1.077   .     S
C164   C183    1.413   .     A
C165   H187    1.084   .     S
C165   C177    1.387   .     A
C165   C178    1.396   .     A
C166   O208    1.280   .     A
C166   C168    1.456   .     S
C166   O210    1.275   .     A
C167   C176    1.473   .     S
C167   C179    1.402   .     A
C167   C182    1.422   .     A
C168   C223    1.335   .     S
C168   H243    1.088   .     S
C169   C276    1.335   1_455 S
C169   H299    1.086   1_455 S
C170   C173    1.452   .     S
C170   C333    1.332   .     S
C170   H354    1.088   .     S
C171   C172    1.436   .     S
C172   O205    1.280   .     A
C172   O211    1.280   .     A
C173   O206    1.269   .     A
C173   O212    1.269   .     A
C174   C179    1.385   .     A
C174   C666    1.389   .     S
C174   H674    1.083   .     S
C175   O200    1.279   .     A
C175   C178    1.452   .     S
C175   O202    1.268   .     A
C176   O203    1.284   .     A
C176   O201    1.280   .     A
C177   C670    1.401   1_554 S
C177   H681    1.084   1_554 S
C179   H197    1.084   .     S
C180   H198    1.076   .     S
C180   C660    1.389   1_554 S
C180   C667    1.418   1_554 S
C181   C182    1.427   .     A
C181   C666    1.418   .     S
C181   C669    1.424   .     S
C182   C186    1.420   .     A
C183   C667    1.424   1_554 S
C183   C670    1.421   1_554 S
C184   C185    1.391   .     A
C184   C663    1.401   .     S
C184   C669    1.421   .     S
C185   C186    1.397   .     A
C185   H194    1.085   .     S
C186   O204    1.384   .     S
H188   C660    1.083   1_554 S
H189   C276    1.088   1_455 S
H190   O204    0.992   .     S
H191   C223    1.086   .     S
H193   C333    1.086   .     S
H195   C663    1.084   .     S
O199   Zn215   1.926   .     S
O199   Zn216   1.932   .     S
O199   Zn213   1.958   .     S
O199   Zn214   1.951   .     S
O200   Zn214   1.928   .     S
O201   Zn216   1.942   .     S
O202   Zn215   1.941   .     S
O203   Zn213   1.928   .     S
O205   Zn213   1.930   .     S
O206   Zn216   1.928   .     S
O207   Zn214   1.925   .     S
O208   Zn215   1.938   .     S
O209   Zn216   1.935   .     S
O210   Zn213   1.922   .     S
O211   Zn214   1.933   .     S
O212   Zn215   1.931   .     S
C217   O261    1.273   .     A
C217   O263    1.272   .     A
C217   C223    1.438   .     S
C218   C232    1.393   .     A
C218   H250    1.077   .     S
C218   C237    1.413   .     A
C219   H241    1.084   .     S
C219   C231    1.387   .     A
C219   C232    1.396   .     A
C220   O262    1.280   .     A
C220   C222    1.456   .     S
C220   O264    1.275   .     A
C221   C230    1.473   .     S
C221   C233    1.402   .     A
C221   C236    1.422   .     A
C222   C277    1.335   .     S
C222   H297    1.088   .     S
C224   C227    1.452   .     S
C224   C387    1.332   .     S
C224   H408    1.088   .     S
C225   C226    1.436   .     S
C226   O259    1.280   .     A
C226   O265    1.280   .     A
C227   O260    1.269   .     A
C227   O266    1.269   .     A
C228   C233    1.385   .     A
C228   C720    1.389   .     S
C228   H728    1.083   .     S
C229   O254    1.279   .     A
C229   C232    1.452   .     S
C229   O256    1.268   .     A
C230   O257    1.284   .     A
C230   O255    1.280   .     A
C231   C724    1.401   1_554 S
C231   H735    1.084   1_554 S
C233   H251    1.084   .     S
C234   H252    1.076   .     S
C234   C714    1.389   1_554 S
C234   C721    1.418   1_554 S
C235   C236    1.427   .     A
C235   C720    1.418   .     S
C235   C723    1.424   .     S
C236   C240    1.420   .     A
C237   C721    1.424   1_554 S
C237   C724    1.421   1_554 S
C238   C239    1.391   .     A
C238   C717    1.401   .     S
C238   C723    1.421   .     S
C239   C240    1.397   .     A
C239   H248    1.085   .     S
C240   O258    1.384   .     S
H242   C714    1.083   1_554 S
H244   O258    0.992   .     S
H245   C277    1.086   .     S
H247   C387    1.086   .     S
H249   C717    1.084   .     S
O253   Zn269   1.926   .     S
O253   Zn270   1.932   .     S
O253   Zn267   1.958   .     S
O253   Zn268   1.951   .     S
O254   Zn268   1.928   .     S
O255   Zn270   1.942   .     S
O256   Zn269   1.941   .     S
O257   Zn267   1.928   .     S
O259   Zn267   1.930   .     S
O260   Zn270   1.928   .     S
O261   Zn268   1.925   .     S
O262   Zn269   1.938   .     S
O263   Zn270   1.935   .     S
O264   Zn267   1.922   .     S
O265   Zn268   1.933   .     S
O266   Zn269   1.931   .     S
C271   O315    1.273   .     A
C271   O317    1.272   .     A
C271   C277    1.438   .     S
C272   C286    1.393   .     A
C272   H304    1.077   .     S
C272   C291    1.413   .     A
C273   H295    1.084   .     S
C273   C285    1.387   .     A
C273   C286    1.396   .     A
C274   O316    1.280   .     A
C274   C276    1.456   .     S
C274   O318    1.275   .     A
C275   C284    1.473   .     S
C275   C287    1.402   .     A
C275   C290    1.422   .     A
C276   C169    1.335   1_655 S
C276   H189    1.088   1_655 S
C278   C281    1.452   .     S
C278   C441    1.332   .     S
C278   H462    1.088   .     S
C279   C280    1.436   .     S
C280   O313    1.280   .     A
C280   O319    1.280   .     A
C281   O314    1.269   .     A
C281   O320    1.269   .     A
C282   C287    1.385   .     A
C282   C774    1.389   .     S
C282   H782    1.083   .     S
C283   O308    1.279   .     A
C283   C286    1.452   .     S
C283   O310    1.268   .     A
C284   O311    1.284   .     A
C284   O309    1.280   .     A
C285   C778    1.401   1_554 S
C285   H789    1.084   1_554 S
C287   H305    1.084   .     S
C288   H306    1.076   .     S
C288   C768    1.389   1_554 S
C288   C775    1.418   1_554 S
C289   C290    1.427   .     A
C289   C774    1.418   .     S
C289   C777    1.424   .     S
C290   C294    1.420   .     A
C291   C775    1.424   1_554 S
C291   C778    1.421   1_554 S
C292   C293    1.391   .     A
C292   C771    1.401   .     S
C292   C777    1.421   .     S
C293   C294    1.397   .     A
C293   H302    1.085   .     S
C294   O312    1.384   .     S
H296   C768    1.083   1_554 S
H298   O312    0.992   .     S
H299   C169    1.086   1_655 S
H301   C441    1.086   .     S
H303   C771    1.084   .     S
O307   Zn323   1.926   .     S
O307   Zn324   1.932   .     S
O307   Zn321   1.958   .     S
O307   Zn322   1.951   .     S
O308   Zn322   1.928   .     S
O309   Zn324   1.942   .     S
O310   Zn323   1.941   .     S
O311   Zn321   1.928   .     S
O313   Zn321   1.930   .     S
O314   Zn324   1.928   .     S
O315   Zn322   1.925   .     S
O316   Zn323   1.938   .     S
O317   Zn324   1.935   .     S
O318   Zn321   1.922   .     S
O319   Zn322   1.933   .     S
O320   Zn323   1.931   .     S
C325   O369    1.273   .     A
C325   O371    1.272   .     A
C325   C331    1.438   .     S
C326   C340    1.393   .     A
C326   H358    1.077   .     S
C326   C345    1.413   .     A
C327   H349    1.084   .     S
C327   C339    1.387   .     A
C327   C340    1.396   .     A
C328   O370    1.280   .     A
C328   C330    1.456   .     S
C328   O372    1.275   .     A
C329   C338    1.473   .     S
C329   C341    1.402   .     A
C329   C344    1.422   .     A
C330   C385    1.335   .     S
C330   H405    1.088   .     S
C331   C438    1.335   1_455 S
C331   H461    1.086   1_455 S
C332   C335    1.452   .     S
C332   C9      1.332   1_565 S
C332   H30     1.088   1_565 S
C333   C334    1.436   .     S
C334   O367    1.280   .     A
C334   O373    1.280   .     A
C335   O368    1.269   .     A
C335   O374    1.269   .     A
C336   C341    1.385   .     A
C336   C828    1.389   .     S
C336   H836    1.083   .     S
C337   O362    1.279   .     A
C337   C340    1.452   .     S
C337   O364    1.268   .     A
C338   O365    1.284   .     A
C338   O363    1.280   .     A
C339   C832    1.401   1_554 S
C339   H843    1.084   1_554 S
C341   H359    1.084   .     S
C342   H360    1.076   .     S
C342   C822    1.389   1_554 S
C342   C829    1.418   1_554 S
C343   C344    1.427   .     A
C343   C828    1.418   .     S
C343   C831    1.424   .     S
C344   C348    1.420   .     A
C345   C829    1.424   1_554 S
C345   C832    1.421   1_554 S
C346   C347    1.391   .     A
C346   C825    1.401   .     S
C346   C831    1.421   .     S
C347   C348    1.397   .     A
C347   H356    1.085   .     S
C348   O366    1.384   .     S
H350   C822    1.083   1_554 S
H351   C438    1.088   1_455 S
H352   O366    0.992   .     S
H353   C385    1.086   .     S
H355   C9      1.086   1_565 S
H357   C825    1.084   .     S
O361   Zn377   1.926   .     S
O361   Zn378   1.932   .     S
O361   Zn375   1.958   .     S
O361   Zn376   1.951   .     S
O362   Zn376   1.928   .     S
O363   Zn378   1.942   .     S
O364   Zn377   1.941   .     S
O365   Zn375   1.928   .     S
O367   Zn375   1.930   .     S
O368   Zn378   1.928   .     S
O369   Zn376   1.925   .     S
O370   Zn377   1.938   .     S
O371   Zn378   1.935   .     S
O372   Zn375   1.922   .     S
O373   Zn376   1.933   .     S
O374   Zn377   1.931   .     S
C379   O423    1.273   .     A
C379   O425    1.272   .     A
C379   C385    1.438   .     S
C380   C394    1.393   .     A
C380   H412    1.077   .     S
C380   C399    1.413   .     A
C381   H403    1.084   .     S
C381   C393    1.387   .     A
C381   C394    1.396   .     A
C382   O424    1.280   .     A
C382   C384    1.456   .     S
C382   O426    1.275   .     A
C383   C392    1.473   .     S
C383   C395    1.402   .     A
C383   C398    1.422   .     A
C384   C439    1.335   .     S
C384   H459    1.088   .     S
C386   C389    1.452   .     S
C386   C63     1.332   1_565 S
C386   H84     1.088   1_565 S
C387   C388    1.436   .     S
C388   O421    1.280   .     A
C388   O427    1.280   .     A
C389   O422    1.269   .     A
C389   O428    1.269   .     A
C390   C395    1.385   .     A
C390   C882    1.389   .     S
C390   H890    1.083   .     S
C391   O416    1.279   .     A
C391   C394    1.452   .     S
C391   O418    1.268   .     A
C392   O419    1.284   .     A
C392   O417    1.280   .     A
C393   C886    1.401   1_554 S
C393   H897    1.084   1_554 S
C395   H413    1.084   .     S
C396   H414    1.076   .     S
C396   C876    1.389   1_554 S
C396   C883    1.418   1_554 S
C397   C398    1.427   .     A
C397   C882    1.418   .     S
C397   C885    1.424   .     S
C398   C402    1.420   .     A
C399   C883    1.424   1_554 S
C399   C886    1.421   1_554 S
C400   C401    1.391   .     A
C400   C879    1.401   .     S
C400   C885    1.421   .     S
C401   C402    1.397   .     A
C401   H410    1.085   .     S
C402   O420    1.384   .     S
H404   C876    1.083   1_554 S
H406   O420    0.992   .     S
H407   C439    1.086   .     S
H409   C63     1.086   1_565 S
H411   C879    1.084   .     S
O415   Zn431   1.926   .     S
O415   Zn432   1.932   .     S
O415   Zn429   1.958   .     S
O415   Zn430   1.951   .     S
O416   Zn430   1.928   .     S
O417   Zn432   1.942   .     S
O418   Zn431   1.941   .     S
O419   Zn429   1.928   .     S
O421   Zn429   1.930   .     S
O422   Zn432   1.928   .     S
O423   Zn430   1.925   .     S
O424   Zn431   1.938   .     S
O425   Zn432   1.935   .     S
O426   Zn429   1.922   .     S
O427   Zn430   1.933   .     S
O428   Zn431   1.931   .     S
C433   O477    1.273   .     A
C433   O479    1.272   .     A
C433   C439    1.438   .     S
C434   C448    1.393   .     A
C434   H466    1.077   .     S
C434   C453    1.413   .     A
C435   H457    1.084   .     S
C435   C447    1.387   .     A
C435   C448    1.396   .     A
C436   O478    1.280   .     A
C436   C438    1.456   .     S
C436   O480    1.275   .     A
C437   C446    1.473   .     S
C437   C449    1.402   .     A
C437   C452    1.422   .     A
C438   C331    1.335   1_655 S
C438   H351    1.088   1_655 S
C440   C443    1.452   .     S
C440   C117    1.332   1_565 S
C440   H138    1.088   1_565 S
C441   C442    1.436   .     S
C442   O475    1.280   .     A
C442   O481    1.280   .     A
C443   O476    1.269   .     A
C443   O482    1.269   .     A
C444   C449    1.385   .     A
C444   C936    1.389   .     S
C444   H944    1.083   .     S
C445   O470    1.279   .     A
C445   C448    1.452   .     S
C445   O472    1.268   .     A
C446   O473    1.284   .     A
C446   O471    1.280   .     A
C447   C940    1.401   1_554 S
C447   H951    1.084   1_554 S
C449   H467    1.084   .     S
C450   H468    1.076   .     S
C450   C930    1.389   1_554 S
C450   C937    1.418   1_554 S
C451   C452    1.427   .     A
C451   C936    1.418   .     S
C451   C939    1.424   .     S
C452   C456    1.420   .     A
C453   C937    1.424   1_554 S
C453   C940    1.421   1_554 S
C454   C455    1.391   .     A
C454   C933    1.401   .     S
C454   C939    1.421   .     S
C455   C456    1.397   .     A
C455   H464    1.085   .     S
C456   O474    1.384   .     S
H458   C930    1.083   1_554 S
H460   O474    0.992   .     S
H461   C331    1.086   1_655 S
H463   C117    1.086   1_565 S
H465   C933    1.084   .     S
O469   Zn485   1.926   .     S
O469   Zn486   1.932   .     S
O469   Zn483   1.958   .     S
O469   Zn484   1.951   .     S
O470   Zn484   1.928   .     S
O471   Zn486   1.942   .     S
O472   Zn485   1.941   .     S
O473   Zn483   1.928   .     S
O475   Zn483   1.930   .     S
O476   Zn486   1.928   .     S
O477   Zn484   1.925   .     S
O478   Zn485   1.938   .     S
O479   Zn486   1.935   .     S
O480   Zn483   1.922   .     S
O481   Zn484   1.933   .     S
O482   Zn485   1.931   .     S
C487   O531    1.273   .     A
C487   O533    1.272   .     A
C487   C493    1.438   .     S
C488   C502    1.393   .     A
C488   H520    1.077   .     S
C488   C507    1.413   .     A
C489   H511    1.084   .     S
C489   C501    1.387   .     A
C489   C502    1.396   .     A
C490   O532    1.280   .     A
C490   C492    1.456   .     S
C490   O534    1.275   .     A
C491   C500    1.473   .     S
C491   C503    1.402   .     A
C491   C506    1.422   .     A
C492   C547    1.335   .     S
C492   H567    1.088   .     S
C493   C600    1.335   1_455 S
C493   H623    1.086   1_455 S
C494   C497    1.452   .     S
C494   C657    1.332   .     S
C494   H678    1.088   .     S
C495   C496    1.436   .     S
C495   C818    1.332   1_545 S
C495   H841    1.086   1_545 S
C496   O529    1.280   .     A
C496   O535    1.280   .     A
C497   O530    1.269   .     A
C497   O536    1.269   .     A
C498   C503    1.385   .     A
C498   C18     1.389   1_556 S
C498   H26     1.083   1_556 S
C499   O524    1.279   .     A
C499   C502    1.452   .     S
C499   O526    1.268   .     A
C500   O527    1.284   .     A
C500   O525    1.280   .     A
C503   H521    1.084   .     S
C504   H522    1.076   .     S
C505   C506    1.427   .     A
C505   C18     1.418   1_556 S
C505   C21     1.424   1_556 S
C506   C510    1.420   .     A
C508   C509    1.391   .     A
C508   C15     1.401   1_556 S
C508   C21     1.421   1_556 S
C509   C510    1.397   .     A
C509   H518    1.085   .     S
C510   O528    1.384   .     S
H513   C600    1.088   1_455 S
H514   O528    0.992   .     S
H515   C547    1.086   .     S
H516   C818    1.088   1_545 S
H517   C657    1.086   .     S
H519   C15     1.084   1_556 S
O523   Zn539   1.926   .     S
O523   Zn540   1.932   .     S
O523   Zn537   1.958   .     S
O523   Zn538   1.951   .     S
O524   Zn538   1.928   .     S
O525   Zn540   1.942   .     S
O526   Zn539   1.941   .     S
O527   Zn537   1.928   .     S
O529   Zn537   1.930   .     S
O530   Zn540   1.928   .     S
O531   Zn538   1.925   .     S
O532   Zn539   1.938   .     S
O533   Zn540   1.935   .     S
O534   Zn537   1.922   .     S
O535   Zn538   1.933   .     S
O536   Zn539   1.931   .     S
C541   O585    1.273   .     A
C541   O587    1.272   .     A
C541   C547    1.438   .     S
C542   C556    1.393   .     A
C542   H574    1.077   .     S
C542   C561    1.413   .     A
C543   H565    1.084   .     S
C543   C555    1.387   .     A
C543   C556    1.396   .     A
C544   O586    1.280   .     A
C544   C546    1.456   .     S
C544   O588    1.275   .     A
C545   C554    1.473   .     S
C545   C557    1.402   .     A
C545   C560    1.422   .     A
C546   C601    1.335   .     S
C546   H621    1.088   .     S
C548   C551    1.452   .     S
C548   C711    1.332   .     S
C548   H732    1.088   .     S
C549   C550    1.436   .     S
C549   C872    1.332   1_545 S
C549   H895    1.086   1_545 S
C550   O583    1.280   .     A
C550   O589    1.280   .     A
C551   O584    1.269   .     A
C551   O590    1.269   .     A
C552   C557    1.385   .     A
C552   C72     1.389   1_556 S
C552   H80     1.083   1_556 S
C553   O578    1.279   .     A
C553   C556    1.452   .     S
C553   O580    1.268   .     A
C554   O581    1.284   .     A
C554   O579    1.280   .     A
C557   H575    1.084   .     S
C558   H576    1.076   .     S
C559   C560    1.427   .     A
C559   C72     1.418   1_556 S
C559   C75     1.424   1_556 S
C560   C564    1.420   .     A
C562   C563    1.391   .     A
C562   C69     1.401   1_556 S
C562   C75     1.421   1_556 S
C563   C564    1.397   .     A
C563   H572    1.085   .     S
C564   O582    1.384   .     S
H568   O582    0.992   .     S
H569   C601    1.086   .     S
H570   C872    1.088   1_545 S
H571   C711    1.086   .     S
H573   C69     1.084   1_556 S
O577   Zn593   1.926   .     S
O577   Zn594   1.932   .     S
O577   Zn591   1.958   .     S
O577   Zn592   1.951   .     S
O578   Zn592   1.928   .     S
O579   Zn594   1.942   .     S
O580   Zn593   1.941   .     S
O581   Zn591   1.928   .     S
O583   Zn591   1.930   .     S
O584   Zn594   1.928   .     S
O585   Zn592   1.925   .     S
O586   Zn593   1.938   .     S
O587   Zn594   1.935   .     S
O588   Zn591   1.922   .     S
O589   Zn592   1.933   .     S
O590   Zn593   1.931   .     S
C595   O639    1.273   .     A
C595   O641    1.272   .     A
C595   C601    1.438   .     S
C596   C610    1.393   .     A
C596   H628    1.077   .     S
C596   C615    1.413   .     A
C597   H619    1.084   .     S
C597   C609    1.387   .     A
C597   C610    1.396   .     A
C598   O640    1.280   .     A
C598   C600    1.456   .     S
C598   O642    1.275   .     A
C599   C608    1.473   .     S
C599   C611    1.402   .     A
C599   C614    1.422   .     A
C600   C493    1.335   1_655 S
C600   H513    1.088   1_655 S
C602   C605    1.452   .     S
C602   C765    1.332   .     S
C602   H786    1.088   .     S
C603   C604    1.436   .     S
C603   C926    1.332   1_545 S
C603   H949    1.086   1_545 S
C604   O637    1.280   .     A
C604   O643    1.280   .     A
C605   O638    1.269   .     A
C605   O644    1.269   .     A
C606   C611    1.385   .     A
C606   C126    1.389   1_556 S
C606   H134    1.083   1_556 S
C607   O632    1.279   .     A
C607   C610    1.452   .     S
C607   O634    1.268   .     A
C608   O635    1.284   .     A
C608   O633    1.280   .     A
C611   H629    1.084   .     S
C612   H630    1.076   .     S
C613   C614    1.427   .     A
C613   C126    1.418   1_556 S
C613   C129    1.424   1_556 S
C614   C618    1.420   .     A
C616   C617    1.391   .     A
C616   C123    1.401   1_556 S
C616   C129    1.421   1_556 S
C617   C618    1.397   .     A
C617   H626    1.085   .     S
C618   O636    1.384   .     S
H622   O636    0.992   .     S
H623   C493    1.086   1_655 S
H624   C926    1.088   1_545 S
H625   C765    1.086   .     S
H627   C123    1.084   1_556 S
O631   Zn647   1.926   .     S
O631   Zn648   1.932   .     S
O631   Zn645   1.958   .     S
O631   Zn646   1.951   .     S
O632   Zn646   1.928   .     S
O633   Zn648   1.942   .     S
O634   Zn647   1.941   .     S
O635   Zn645   1.928   .     S
O637   Zn645   1.930   .     S
O638   Zn648   1.928   .     S
O639   Zn646   1.925   .     S
O640   Zn647   1.938   .     S
O641   Zn648   1.935   .     S
O642   Zn645   1.922   .     S
O643   Zn646   1.933   .     S
O644   Zn647   1.931   .     S
C649   O693    1.273   .     A
C649   O695    1.272   .     A
C649   C655    1.438   .     S
C650   C664    1.393   .     A
C650   H682    1.077   .     S
C650   C669    1.413   .     A
C651   H673    1.084   .     S
C651   C663    1.387   .     A
C651   C664    1.396   .     A
C652   O694    1.280   .     A
C652   C654    1.456   .     S
C652   O696    1.275   .     A
C653   C662    1.473   .     S
C653   C665    1.402   .     A
C653   C668    1.422   .     A
C654   C709    1.335   .     S
C654   H729    1.088   .     S
C655   C762    1.335   1_455 S
C655   H785    1.086   1_455 S
C656   C659    1.452   .     S
C656   C819    1.332   .     S
C656   H840    1.088   .     S
C657   C658    1.436   .     S
C658   O691    1.280   .     A
C658   O697    1.280   .     A
C659   O692    1.269   .     A
C659   O698    1.269   .     A
C660   C665    1.385   .     A
C660   C180    1.389   1_556 S
C660   H188    1.083   1_556 S
C661   O686    1.279   .     A
C661   C664    1.452   .     S
C661   O688    1.268   .     A
C662   O689    1.284   .     A
C662   O687    1.280   .     A
C665   H683    1.084   .     S
C666   H684    1.076   .     S
C667   C668    1.427   .     A
C667   C180    1.418   1_556 S
C667   C183    1.424   1_556 S
C668   C672    1.420   .     A
C670   C671    1.391   .     A
C670   C177    1.401   1_556 S
C670   C183    1.421   1_556 S
C671   C672    1.397   .     A
C671   H680    1.085   .     S
C672   O690    1.384   .     S
H675   C762    1.088   1_455 S
H676   O690    0.992   .     S
H677   C709    1.086   .     S
H679   C819    1.086   .     S
H681   C177    1.084   1_556 S
O685   Zn701   1.926   .     S
O685   Zn702   1.932   .     S
O685   Zn699   1.958   .     S
O685   Zn700   1.951   .     S
O686   Zn700   1.928   .     S
O687   Zn702   1.942   .     S
O688   Zn701   1.941   .     S
O689   Zn699   1.928   .     S
O691   Zn699   1.930   .     S
O692   Zn702   1.928   .     S
O693   Zn700   1.925   .     S
O694   Zn701   1.938   .     S
O695   Zn702   1.935   .     S
O696   Zn699   1.922   .     S
O697   Zn700   1.933   .     S
O698   Zn701   1.931   .     S
C703   O747    1.273   .     A
C703   O749    1.272   .     A
C703   C709    1.438   .     S
C704   C718    1.393   .     A
C704   H736    1.077   .     S
C704   C723    1.413   .     A
C705   H727    1.084   .     S
C705   C717    1.387   .     A
C705   C718    1.396   .     A
C706   O748    1.280   .     A
C706   C708    1.456   .     S
C706   O750    1.275   .     A
C707   C716    1.473   .     S
C707   C719    1.402   .     A
C707   C722    1.422   .     A
C708   C763    1.335   .     S
C708   H783    1.088   .     S
C710   C713    1.452   .     S
C710   C873    1.332   .     S
C710   H894    1.088   .     S
C711   C712    1.436   .     S
C712   O745    1.280   .     A
C712   O751    1.280   .     A
C713   O746    1.269   .     A
C713   O752    1.269   .     A
C714   C719    1.385   .     A
C714   C234    1.389   1_556 S
C714   H242    1.083   1_556 S
C715   O740    1.279   .     A
C715   C718    1.452   .     S
C715   O742    1.268   .     A
C716   O743    1.284   .     A
C716   O741    1.280   .     A
C719   H737    1.084   .     S
C720   H738    1.076   .     S
C721   C722    1.427   .     A
C721   C234    1.418   1_556 S
C721   C237    1.424   1_556 S
C722   C726    1.420   .     A
C724   C725    1.391   .     A
C724   C231    1.401   1_556 S
C724   C237    1.421   1_556 S
C725   C726    1.397   .     A
C725   H734    1.085   .     S
C726   O744    1.384   .     S
H730   O744    0.992   .     S
H731   C763    1.086   .     S
H733   C873    1.086   .     S
H735   C231    1.084   1_556 S
O739   Zn755   1.926   .     S
O739   Zn756   1.932   .     S
O739   Zn753   1.958   .     S
O739   Zn754   1.951   .     S
O740   Zn754   1.928   .     S
O741   Zn756   1.942   .     S
O742   Zn755   1.941   .     S
O743   Zn753   1.928   .     S
O745   Zn753   1.930   .     S
O746   Zn756   1.928   .     S
O747   Zn754   1.925   .     S
O748   Zn755   1.938   .     S
O749   Zn756   1.935   .     S
O750   Zn753   1.922   .     S
O751   Zn754   1.933   .     S
O752   Zn755   1.931   .     S
C757   O801    1.273   .     A
C757   O803    1.272   .     A
C757   C763    1.438   .     S
C758   C772    1.393   .     A
C758   H790    1.077   .     S
C758   C777    1.413   .     A
C759   H781    1.084   .     S
C759   C771    1.387   .     A
C759   C772    1.396   .     A
C760   O802    1.280   .     A
C760   C762    1.456   .     S
C760   O804    1.275   .     A
C761   C770    1.473   .     S
C761   C773    1.402   .     A
C761   C776    1.422   .     A
C762   C655    1.335   1_655 S
C762   H675    1.088   1_655 S
C764   C767    1.452   .     S
C764   C927    1.332   .     S
C764   H948    1.088   .     S
C765   C766    1.436   .     S
C766   O799    1.280   .     A
C766   O805    1.280   .     A
C767   O800    1.269   .     A
C767   O806    1.269   .     A
C768   C773    1.385   .     A
C768   C288    1.389   1_556 S
C768   H296    1.083   1_556 S
C769   O794    1.279   .     A
C769   C772    1.452   .     S
C769   O796    1.268   .     A
C770   O797    1.284   .     A
C770   O795    1.280   .     A
C773   H791    1.084   .     S
C774   H792    1.076   .     S
C775   C776    1.427   .     A
C775   C288    1.418   1_556 S
C775   C291    1.424   1_556 S
C776   C780    1.420   .     A
C778   C779    1.391   .     A
C778   C285    1.401   1_556 S
C778   C291    1.421   1_556 S
C779   C780    1.397   .     A
C779   H788    1.085   .     S
C780   O798    1.384   .     S
H784   O798    0.992   .     S
H785   C655    1.086   1_655 S
H787   C927    1.086   .     S
H789   C285    1.084   1_556 S
O793   Zn809   1.926   .     S
O793   Zn810   1.932   .     S
O793   Zn807   1.958   .     S
O793   Zn808   1.951   .     S
O794   Zn808   1.928   .     S
O795   Zn810   1.942   .     S
O796   Zn809   1.941   .     S
O797   Zn807   1.928   .     S
O799   Zn807   1.930   .     S
O800   Zn810   1.928   .     S
O801   Zn808   1.925   .     S
O802   Zn809   1.938   .     S
O803   Zn810   1.935   .     S
O804   Zn807   1.922   .     S
O805   Zn808   1.933   .     S
O806   Zn809   1.931   .     S
C811   O855    1.273   .     A
C811   O857    1.272   .     A
C811   C817    1.438   .     S
C812   C826    1.393   .     A
C812   H844    1.077   .     S
C812   C831    1.413   .     A
C813   H835    1.084   .     S
C813   C825    1.387   .     A
C813   C826    1.396   .     A
C814   O856    1.280   .     A
C814   C816    1.456   .     S
C814   O858    1.275   .     A
C815   C824    1.473   .     S
C815   C827    1.402   .     A
C815   C830    1.422   .     A
C816   C871    1.335   .     S
C816   H891    1.088   .     S
C817   C924    1.335   1_455 S
C817   H947    1.086   1_455 S
C818   C821    1.452   .     S
C818   C495    1.332   1_565 S
C818   H516    1.088   1_565 S
C819   C820    1.436   .     S
C820   O853    1.280   .     A
C820   O859    1.280   .     A
C821   O854    1.269   .     A
C821   O860    1.269   .     A
C822   C827    1.385   .     A
C822   C342    1.389   1_556 S
C822   H350    1.083   1_556 S
C823   O848    1.279   .     A
C823   C826    1.452   .     S
C823   O850    1.268   .     A
C824   O851    1.284   .     A
C824   O849    1.280   .     A
C827   H845    1.084   .     S
C828   H846    1.076   .     S
C829   C830    1.427   .     A
C829   C342    1.418   1_556 S
C829   C345    1.424   1_556 S
C830   C834    1.420   .     A
C832   C833    1.391   .     A
C832   C339    1.401   1_556 S
C832   C345    1.421   1_556 S
C833   C834    1.397   .     A
C833   H842    1.085   .     S
C834   O852    1.384   .     S
H837   C924    1.088   1_455 S
H838   O852    0.992   .     S
H839   C871    1.086   .     S
H841   C495    1.086   1_565 S
H843   C339    1.084   1_556 S
O847   Zn863   1.926   .     S
O847   Zn864   1.932   .     S
O847   Zn861   1.958   .     S
O847   Zn862   1.951   .     S
O848   Zn862   1.928   .     S
O849   Zn864   1.942   .     S
O850   Zn863   1.941   .     S
O851   Zn861   1.928   .     S
O853   Zn861   1.930   .     S
O854   Zn864   1.928   .     S
O855   Zn862   1.925   .     S
O856   Zn863   1.938   .     S
O857   Zn864   1.935   .     S
O858   Zn861   1.922   .     S
O859   Zn862   1.933   .     S
O860   Zn863   1.931   .     S
C865   O909    1.273   .     A
C865   O911    1.272   .     A
C865   C871    1.438   .     S
C866   C880    1.393   .     A
C866   H898    1.077   .     S
C866   C885    1.413   .     A
C867   H889    1.084   .     S
C867   C879    1.387   .     A
C867   C880    1.396   .     A
C868   O910    1.280   .     A
C868   C870    1.456   .     S
C868   O912    1.275   .     A
C869   C878    1.473   .     S
C869   C881    1.402   .     A
C869   C884    1.422   .     A
C870   C925    1.335   .     S
C870   H945    1.088   .     S
C872   C875    1.452   .     S
C872   C549    1.332   1_565 S
C872   H570    1.088   1_565 S
C873   C874    1.436   .     S
C874   O907    1.280   .     A
C874   O913    1.280   .     A
C875   O908    1.269   .     A
C875   O914    1.269   .     A
C876   C881    1.385   .     A
C876   C396    1.389   1_556 S
C876   H404    1.083   1_556 S
C877   O902    1.279   .     A
C877   C880    1.452   .     S
C877   O904    1.268   .     A
C878   O905    1.284   .     A
C878   O903    1.280   .     A
C881   H899    1.084   .     S
C882   H900    1.076   .     S
C883   C884    1.427   .     A
C883   C396    1.418   1_556 S
C883   C399    1.424   1_556 S
C884   C888    1.420   .     A
C886   C887    1.391   .     A
C886   C393    1.401   1_556 S
C886   C399    1.421   1_556 S
C887   C888    1.397   .     A
C887   H896    1.085   .     S
C888   O906    1.384   .     S
H892   O906    0.992   .     S
H893   C925    1.086   .     S
H895   C549    1.086   1_565 S
H897   C393    1.084   1_556 S
O901   Zn917   1.926   .     S
O901   Zn918   1.932   .     S
O901   Zn915   1.958   .     S
O901   Zn916   1.951   .     S
O902   Zn916   1.928   .     S
O903   Zn918   1.942   .     S
O904   Zn917   1.941   .     S
O905   Zn915   1.928   .     S
O907   Zn915   1.930   .     S
O908   Zn918   1.928   .     S
O909   Zn916   1.925   .     S
O910   Zn917   1.938   .     S
O911   Zn918   1.935   .     S
O912   Zn915   1.922   .     S
O913   Zn916   1.933   .     S
O914   Zn917   1.931   .     S
C919   O963    1.273   .     A
C919   O965    1.272   .     A
C919   C925    1.438   .     S
C920   C934    1.393   .     A
C920   H952    1.077   .     S
C920   C939    1.413   .     A
C921   H943    1.084   .     S
C921   C933    1.387   .     A
C921   C934    1.396   .     A
C922   O964    1.280   .     A
C922   C924    1.456   .     S
C922   O966    1.275   .     A
C923   C932    1.473   .     S
C923   C935    1.402   .     A
C923   C938    1.422   .     A
C924   C817    1.335   1_655 S
C924   H837    1.088   1_655 S
C926   C929    1.452   .     S
C926   C603    1.332   1_565 S
C926   H624    1.088   1_565 S
C927   C928    1.436   .     S
C928   O961    1.280   .     A
C928   O967    1.280   .     A
C929   O962    1.269   .     A
C929   O968    1.269   .     A
C930   C935    1.385   .     A
C930   C450    1.389   1_556 S
C930   H458    1.083   1_556 S
C931   O956    1.279   .     A
C931   C934    1.452   .     S
C931   O958    1.268   .     A
C932   O959    1.284   .     A
C932   O957    1.280   .     A
C935   H953    1.084   .     S
C936   H954    1.076   .     S
C937   C938    1.427   .     A
C937   C450    1.418   1_556 S
C937   C453    1.424   1_556 S
C938   C942    1.420   .     A
C940   C941    1.391   .     A
C940   C447    1.401   1_556 S
C940   C453    1.421   1_556 S
C941   C942    1.397   .     A
C941   H950    1.085   .     S
C942   O960    1.384   .     S
H946   O960    0.992   .     S
H947   C817    1.086   1_655 S
H949   C603    1.086   1_565 S
H951   C447    1.084   1_556 S
O955   Zn971   1.926   .     S
O955   Zn972   1.932   .     S
O955   Zn969   1.958   .     S
O955   Zn970   1.951   .     S
O956   Zn970   1.928   .     S
O957   Zn972   1.942   .     S
O958   Zn971   1.941   .     S
O959   Zn969   1.928   .     S
O961   Zn969   1.930   .     S
O962   Zn972   1.928   .     S
O963   Zn970   1.925   .     S
O964   Zn971   1.938   .     S
O965   Zn972   1.935   .     S
O966   Zn969   1.922   .     S
O967   Zn970   1.933   .     S
O968   Zn971   1.931   .     S
