data_str_m1_o10_o16_pcu_sym.35
_audit_creation_date              2020-01-03
_audit_creation_method            'Materials Studio'
_symmetry_space_group_name_H-M    'P1'
_symmetry_Int_Tables_number       1
_symmetry_cell_setting            triclinic
loop_
_symmetry_equiv_pos_as_xyz
  x,y,z
_cell_length_a                    32.6677
_cell_length_b                    32.7185
_cell_length_c                    30.7525
_cell_angle_alpha                 96.4945
_cell_angle_beta                  74.6261
_cell_angle_gamma                 98.3968
loop_
_atom_site_label
_atom_site_type_symbol
_atom_site_fract_x
_atom_site_fract_y
_atom_site_fract_z
_atom_site_U_iso_or_equiv
_atom_site_adp_type
_atom_site_occupancy
C1     C     0.05296   0.15963   0.26016   0.00000  Uiso   1.00
C2     C     0.17135   0.16364   0.05774   0.00000  Uiso   1.00
C3     C     0.21576   0.10942   0.05566   0.00000  Uiso   1.00
C4     C     0.28088   0.17363   0.23993   0.00000  Uiso   1.00
C5     C     0.13476   0.18739   0.42201   0.00000  Uiso   1.00
C6     C     0.32703   0.17557   0.23567   0.00000  Uiso   1.00
C7     C     0.00759   0.15692   0.26509   0.00000  Uiso   1.00
C8     C     0.17882   0.32204   0.23454   0.00000  Uiso   1.00
C9     C     0.15220   0.01225   0.26505   0.00000  Uiso   1.00
C10    C     0.15605   0.05613   0.26052   0.00000  Uiso   1.00
C11    C     0.17636   0.27788   0.23986   0.00000  Uiso   1.00
C12    C     0.09675   0.22215   0.49275   0.00000  Uiso   1.00
C13    C     0.18516   0.14850   0.12904   0.00000  Uiso   1.00
C14    C     0.14741   0.18365   0.37150   0.00000  Uiso   1.00
C15    C     0.21190   0.09563   0.01185   0.00000  Uiso   1.00
C16    C     0.19236   0.14125   0.07990   0.00000  Uiso   1.00
C17    C     0.11449   0.22182   0.44535   0.00000  Uiso   1.00
C18    C     0.10712   0.19327   0.01736   0.00000  Uiso   1.00
C19    C     0.13776   0.16626   0.49480   0.00000  Uiso   1.00
C20    C     0.14361   0.15781   0.44771   0.00000  Uiso   1.00
C21    C     0.16233   0.14659   0.01650   0.00000  Uiso   1.00
C22    C     0.18208   0.11130   0.49370   0.00000  Uiso   1.00
C23    C     0.17265   0.09441   0.45240   0.00000  Uiso   1.00
C24    C     0.15585   0.11892   0.42883   0.00000  Uiso   1.00
H25    H     0.15008   0.10602   0.39680   0.00000  Uiso   1.00
H26    H     0.06240   0.13975   0.12186   0.00000  Uiso   1.00
H27    H     0.05379   0.25800   0.49427   0.00000  Uiso   1.00
H28    H     0.00845   0.20755   0.18261   0.00000  Uiso   1.00
H29    H     0.23660   0.09842   0.14836   0.00000  Uiso   1.00
H30    H     0.33013   0.12533   0.31775   0.00000  Uiso   1.00
H31    H     0.27004   0.30842   0.16679   0.00000  Uiso   1.00
H32    H     0.10730   0.01827   0.32060   0.00000  Uiso   1.00
H33    H     0.14661   0.00054   0.38539   0.00000  Uiso   1.00
H34    H     0.25079   0.08004   0.45576   0.00000  Uiso   1.00
H35    H     0.17686   0.21408   0.09780   0.00000  Uiso   1.00
H36    H     0.10856   0.27946   0.44173   0.00000  Uiso   1.00
O37    O     0.16667   0.16667   0.25000   0.00000  Uiso   1.00
O38    O     0.15451   0.12637   0.15458   0.00000  Uiso   1.00
O39    O     0.12940   0.20391   0.34968   0.00000  Uiso   1.00
O40    O     0.20824   0.17759   0.14606   0.00000  Uiso   1.00
O41    O     0.17451   0.15880   0.34968   0.00000  Uiso   1.00
O42    O     0.24695   0.04489   0.07645   0.00000  Uiso   1.00
O43    O     0.29825   0.10100   0.04182   0.00000  Uiso   1.00
O44    O     0.26036   0.11295   0.12623   0.00000  Uiso   1.00
O45    O     0.31312   0.13645   0.30042   0.00000  Uiso   1.00
O46    O     0.19061   0.02599   0.15880   0.00000  Uiso   1.00
O47    O     0.24476   0.04556   0.20162   0.00000  Uiso   1.00
O48    O     0.17930   0.08019   0.28214   0.00000  Uiso   1.00
O49    O     0.24567   0.30843   0.15330   0.00000  Uiso   1.00
O50    O     0.12336   0.32924   0.30252   0.00000  Uiso   1.00
O51    O     0.21920   0.03985   0.39605   0.00000  Uiso   1.00
O52    O     0.17362   0.01476   0.46762   0.00000  Uiso   1.00
O53    O     0.13742   0.02548   0.40489   0.00000  Uiso   1.00
O54    O     0.24032   0.06963   0.48626   0.00000  Uiso   1.00
O55    O     0.16185   0.20322   0.07409   0.00000  Uiso   1.00
O56    O     0.11119   0.25382   0.42123   0.00000  Uiso   1.00
O57    O     0.07896   0.21989   0.10474   0.00000  Uiso   1.00
O58    O     0.02671   0.17959   0.06798   0.00000  Uiso   1.00
O59    O     0.14632   0.26085   0.27013   0.00000  Uiso   1.00
O60    O     0.08009   0.13989   0.09025   0.00000  Uiso   1.00
O61    O     0.06826   0.24939   0.01566   0.00000  Uiso   1.00
O62    O     0.02349   0.19626   0.20174   0.00000  Uiso   1.00
O63    O     0.07412   0.13291   0.23413   0.00000  Uiso   1.00
O64    O     0.26693   0.19272   0.21360   0.00000  Uiso   1.00
O65    O     0.07071   0.18878   0.28213   0.00000  Uiso   1.00
O66    O     0.25491   0.15226   0.27014   0.00000  Uiso   1.00
O67    O     0.13760   0.06944   0.23413   0.00000  Uiso   1.00
O68    O     0.20345   0.25620   0.21360   0.00000  Uiso   1.00
S69    S     0.25596   0.09116   0.07519   0.00000  Uiso   1.00
S70    S     0.21573   0.01005   0.18633   0.00000  Uiso   1.00
S71    S     0.17706   0.04220   0.43044   0.00000  Uiso   1.00
S72    S     0.07217   0.18375   0.07154   0.00000  Uiso   1.00
Zn73   Zn    0.19338   0.13994   0.28734   0.00000  Uiso   1.00
Zn74   Zn    0.13379   0.12458   0.21875   0.00000  Uiso   1.00
Zn75   Zn    0.21056   0.19775   0.20657   0.00000  Uiso   1.00
Zn76   Zn    0.12893   0.20439   0.28733   0.00000  Uiso   1.00
C77    C     0.38630   0.15963   0.26016   0.00000  Uiso   1.00
C78    C     0.50468   0.16364   0.05774   0.00000  Uiso   1.00
C79    C     0.54909   0.10942   0.05566   0.00000  Uiso   1.00
C80    C     0.61421   0.17363   0.23993   0.00000  Uiso   1.00
C81    C     0.46809   0.18739   0.42201   0.00000  Uiso   1.00
C82    C     0.66036   0.17557   0.23567   0.00000  Uiso   1.00
C83    C     0.34092   0.15692   0.26509   0.00000  Uiso   1.00
C84    C     0.51215   0.32204   0.23454   0.00000  Uiso   1.00
C85    C     0.48554   0.01225   0.26505   0.00000  Uiso   1.00
C86    C     0.48939   0.05613   0.26052   0.00000  Uiso   1.00
C87    C     0.50969   0.27788   0.23986   0.00000  Uiso   1.00
C88    C     0.43009   0.22215   0.49275   0.00000  Uiso   1.00
C89    C     0.51849   0.14850   0.12904   0.00000  Uiso   1.00
C90    C     0.48074   0.18365   0.37150   0.00000  Uiso   1.00
C91    C     0.54523   0.09563   0.01185   0.00000  Uiso   1.00
C92    C     0.52570   0.14125   0.07990   0.00000  Uiso   1.00
C93    C     0.44783   0.22182   0.44535   0.00000  Uiso   1.00
C94    C     0.44045   0.19327   0.01736   0.00000  Uiso   1.00
C95    C     0.47109   0.16626   0.49480   0.00000  Uiso   1.00
C96    C     0.47695   0.15781   0.44771   0.00000  Uiso   1.00
C97    C     0.49566   0.14659   0.01650   0.00000  Uiso   1.00
C98    C     0.51542   0.11130   0.49370   0.00000  Uiso   1.00
C99    C     0.50599   0.09441   0.45240   0.00000  Uiso   1.00
C100   C     0.48918   0.11892   0.42883   0.00000  Uiso   1.00
H101   H     0.48342   0.10602   0.39680   0.00000  Uiso   1.00
H102   H     0.39573   0.13975   0.12186   0.00000  Uiso   1.00
H103   H     0.38712   0.25800   0.49427   0.00000  Uiso   1.00
H104   H     0.34179   0.20755   0.18261   0.00000  Uiso   1.00
H105   H     0.56994   0.09842   0.14836   0.00000  Uiso   1.00
H106   H     0.66346   0.12533   0.31775   0.00000  Uiso   1.00
H107   H     0.60338   0.30842   0.16679   0.00000  Uiso   1.00
H108   H     0.44064   0.01827   0.32060   0.00000  Uiso   1.00
H109   H     0.47995   0.00054   0.38539   0.00000  Uiso   1.00
H110   H     0.58413   0.08004   0.45576   0.00000  Uiso   1.00
H111   H     0.51019   0.21408   0.09780   0.00000  Uiso   1.00
H112   H     0.44189   0.27946   0.44173   0.00000  Uiso   1.00
O113   O     0.50000   0.16667   0.25000   0.00000  Uiso   1.00
O114   O     0.48784   0.12637   0.15458   0.00000  Uiso   1.00
O115   O     0.46274   0.20391   0.34968   0.00000  Uiso   1.00
O116   O     0.54157   0.17759   0.14606   0.00000  Uiso   1.00
O117   O     0.50785   0.15880   0.34968   0.00000  Uiso   1.00
O118   O     0.58028   0.04489   0.07645   0.00000  Uiso   1.00
O119   O     0.63158   0.10100   0.04182   0.00000  Uiso   1.00
O120   O     0.59369   0.11295   0.12623   0.00000  Uiso   1.00
O121   O     0.64645   0.13645   0.30042   0.00000  Uiso   1.00
O122   O     0.52394   0.02599   0.15880   0.00000  Uiso   1.00
O123   O     0.57809   0.04556   0.20162   0.00000  Uiso   1.00
O124   O     0.51264   0.08019   0.28214   0.00000  Uiso   1.00
O125   O     0.57900   0.30843   0.15330   0.00000  Uiso   1.00
O126   O     0.45670   0.32924   0.30252   0.00000  Uiso   1.00
O127   O     0.55254   0.03985   0.39605   0.00000  Uiso   1.00
O128   O     0.50695   0.01476   0.46762   0.00000  Uiso   1.00
O129   O     0.47075   0.02548   0.40489   0.00000  Uiso   1.00
O130   O     0.57365   0.06963   0.48626   0.00000  Uiso   1.00
O131   O     0.49519   0.20322   0.07409   0.00000  Uiso   1.00
O132   O     0.44452   0.25382   0.42123   0.00000  Uiso   1.00
O133   O     0.41230   0.21989   0.10474   0.00000  Uiso   1.00
O134   O     0.36004   0.17959   0.06798   0.00000  Uiso   1.00
O135   O     0.47965   0.26085   0.27013   0.00000  Uiso   1.00
O136   O     0.41342   0.13989   0.09025   0.00000  Uiso   1.00
O137   O     0.40159   0.24939   0.01566   0.00000  Uiso   1.00
O138   O     0.35683   0.19626   0.20174   0.00000  Uiso   1.00
O139   O     0.40745   0.13291   0.23413   0.00000  Uiso   1.00
O140   O     0.60026   0.19272   0.21360   0.00000  Uiso   1.00
O141   O     0.40405   0.18878   0.28213   0.00000  Uiso   1.00
O142   O     0.58824   0.15226   0.27014   0.00000  Uiso   1.00
O143   O     0.47093   0.06944   0.23413   0.00000  Uiso   1.00
O144   O     0.53678   0.25620   0.21360   0.00000  Uiso   1.00
S145   S     0.58929   0.09116   0.07519   0.00000  Uiso   1.00
S146   S     0.54907   0.01005   0.18633   0.00000  Uiso   1.00
S147   S     0.51039   0.04220   0.43044   0.00000  Uiso   1.00
S148   S     0.40550   0.18375   0.07154   0.00000  Uiso   1.00
Zn149  Zn    0.52672   0.13994   0.28734   0.00000  Uiso   1.00
Zn150  Zn    0.46713   0.12458   0.21875   0.00000  Uiso   1.00
Zn151  Zn    0.54389   0.19775   0.20657   0.00000  Uiso   1.00
Zn152  Zn    0.46226   0.20439   0.28733   0.00000  Uiso   1.00
C153   C     0.71963   0.15963   0.26016   0.00000  Uiso   1.00
C154   C     0.83801   0.16364   0.05774   0.00000  Uiso   1.00
C155   C     0.88242   0.10942   0.05566   0.00000  Uiso   1.00
C156   C     0.94754   0.17363   0.23993   0.00000  Uiso   1.00
C157   C     0.80143   0.18739   0.42201   0.00000  Uiso   1.00
C158   C     0.99369   0.17557   0.23567   0.00000  Uiso   1.00
C159   C     0.67426   0.15692   0.26509   0.00000  Uiso   1.00
C160   C     0.84548   0.32204   0.23454   0.00000  Uiso   1.00
C161   C     0.81887   0.01225   0.26505   0.00000  Uiso   1.00
C162   C     0.82272   0.05613   0.26052   0.00000  Uiso   1.00
C163   C     0.84303   0.27788   0.23986   0.00000  Uiso   1.00
C164   C     0.76342   0.22215   0.49275   0.00000  Uiso   1.00
C165   C     0.85183   0.14850   0.12904   0.00000  Uiso   1.00
C166   C     0.81407   0.18365   0.37150   0.00000  Uiso   1.00
C167   C     0.87856   0.09563   0.01185   0.00000  Uiso   1.00
C168   C     0.85903   0.14125   0.07990   0.00000  Uiso   1.00
C169   C     0.78116   0.22182   0.44535   0.00000  Uiso   1.00
C170   C     0.77379   0.19327   0.01736   0.00000  Uiso   1.00
C171   C     0.80443   0.16626   0.49480   0.00000  Uiso   1.00
C172   C     0.81028   0.15781   0.44771   0.00000  Uiso   1.00
C173   C     0.82899   0.14659   0.01650   0.00000  Uiso   1.00
C174   C     0.84875   0.11130   0.49370   0.00000  Uiso   1.00
C175   C     0.83932   0.09441   0.45240   0.00000  Uiso   1.00
C176   C     0.82251   0.11892   0.42883   0.00000  Uiso   1.00
H177   H     0.81675   0.10602   0.39680   0.00000  Uiso   1.00
H178   H     0.72907   0.13975   0.12186   0.00000  Uiso   1.00
H179   H     0.72045   0.25800   0.49427   0.00000  Uiso   1.00
H180   H     0.67512   0.20755   0.18261   0.00000  Uiso   1.00
H181   H     0.90327   0.09842   0.14836   0.00000  Uiso   1.00
H182   H     0.99680   0.12533   0.31775   0.00000  Uiso   1.00
H183   H     0.93671   0.30842   0.16679   0.00000  Uiso   1.00
H184   H     0.77397   0.01827   0.32060   0.00000  Uiso   1.00
H185   H     0.81328   0.00054   0.38539   0.00000  Uiso   1.00
H186   H     0.91746   0.08004   0.45576   0.00000  Uiso   1.00
H187   H     0.84353   0.21408   0.09780   0.00000  Uiso   1.00
H188   H     0.77523   0.27946   0.44173   0.00000  Uiso   1.00
O189   O     0.83333   0.16667   0.25000   0.00000  Uiso   1.00
O190   O     0.82118   0.12637   0.15458   0.00000  Uiso   1.00
O191   O     0.79607   0.20391   0.34968   0.00000  Uiso   1.00
O192   O     0.87491   0.17759   0.14606   0.00000  Uiso   1.00
O193   O     0.84118   0.15880   0.34968   0.00000  Uiso   1.00
O194   O     0.91362   0.04489   0.07645   0.00000  Uiso   1.00
O195   O     0.96492   0.10100   0.04182   0.00000  Uiso   1.00
O196   O     0.92703   0.11295   0.12623   0.00000  Uiso   1.00
O197   O     0.97978   0.13645   0.30042   0.00000  Uiso   1.00
O198   O     0.85727   0.02599   0.15880   0.00000  Uiso   1.00
O199   O     0.91142   0.04556   0.20162   0.00000  Uiso   1.00
O200   O     0.84597   0.08019   0.28214   0.00000  Uiso   1.00
O201   O     0.91234   0.30843   0.15330   0.00000  Uiso   1.00
O202   O     0.79003   0.32924   0.30252   0.00000  Uiso   1.00
O203   O     0.88587   0.03985   0.39605   0.00000  Uiso   1.00
O204   O     0.84029   0.01476   0.46762   0.00000  Uiso   1.00
O205   O     0.80408   0.02548   0.40489   0.00000  Uiso   1.00
O206   O     0.90698   0.06963   0.48626   0.00000  Uiso   1.00
O207   O     0.82852   0.20322   0.07409   0.00000  Uiso   1.00
O208   O     0.77786   0.25382   0.42123   0.00000  Uiso   1.00
O209   O     0.74563   0.21989   0.10474   0.00000  Uiso   1.00
O210   O     0.69338   0.17959   0.06798   0.00000  Uiso   1.00
O211   O     0.81298   0.26085   0.27013   0.00000  Uiso   1.00
O212   O     0.74675   0.13989   0.09025   0.00000  Uiso   1.00
O213   O     0.73492   0.24939   0.01566   0.00000  Uiso   1.00
O214   O     0.69016   0.19626   0.20174   0.00000  Uiso   1.00
O215   O     0.74078   0.13291   0.23413   0.00000  Uiso   1.00
O216   O     0.93360   0.19272   0.21360   0.00000  Uiso   1.00
O217   O     0.73738   0.18878   0.28213   0.00000  Uiso   1.00
O218   O     0.92158   0.15226   0.27014   0.00000  Uiso   1.00
O219   O     0.80426   0.06944   0.23413   0.00000  Uiso   1.00
O220   O     0.87012   0.25620   0.21360   0.00000  Uiso   1.00
S221   S     0.92263   0.09116   0.07519   0.00000  Uiso   1.00
S222   S     0.88240   0.01005   0.18633   0.00000  Uiso   1.00
S223   S     0.84373   0.04220   0.43044   0.00000  Uiso   1.00
S224   S     0.73884   0.18375   0.07154   0.00000  Uiso   1.00
Zn225  Zn    0.86005   0.13994   0.28734   0.00000  Uiso   1.00
Zn226  Zn    0.80046   0.12458   0.21875   0.00000  Uiso   1.00
Zn227  Zn    0.87723   0.19775   0.20657   0.00000  Uiso   1.00
Zn228  Zn    0.79560   0.20439   0.28733   0.00000  Uiso   1.00
C229   C     0.05296   0.49297   0.26016   0.00000  Uiso   1.00
C230   C     0.17135   0.49697   0.05774   0.00000  Uiso   1.00
C231   C     0.21576   0.44276   0.05566   0.00000  Uiso   1.00
C232   C     0.28088   0.50696   0.23993   0.00000  Uiso   1.00
C233   C     0.13476   0.52072   0.42201   0.00000  Uiso   1.00
C234   C     0.32703   0.50890   0.23567   0.00000  Uiso   1.00
C235   C     0.00759   0.49026   0.26509   0.00000  Uiso   1.00
C236   C     0.17882   0.65537   0.23454   0.00000  Uiso   1.00
C237   C     0.15220   0.34558   0.26505   0.00000  Uiso   1.00
C238   C     0.15605   0.38946   0.26052   0.00000  Uiso   1.00
C239   C     0.17636   0.61121   0.23986   0.00000  Uiso   1.00
C240   C     0.09675   0.55548   0.49275   0.00000  Uiso   1.00
C241   C     0.18516   0.48183   0.12904   0.00000  Uiso   1.00
C242   C     0.14741   0.51698   0.37150   0.00000  Uiso   1.00
C243   C     0.21190   0.42897   0.01185   0.00000  Uiso   1.00
C244   C     0.19236   0.47458   0.07990   0.00000  Uiso   1.00
C245   C     0.11449   0.55515   0.44535   0.00000  Uiso   1.00
C246   C     0.10712   0.52660   0.01736   0.00000  Uiso   1.00
C247   C     0.13776   0.49959   0.49480   0.00000  Uiso   1.00
C248   C     0.14361   0.49114   0.44771   0.00000  Uiso   1.00
C249   C     0.16233   0.47992   0.01650   0.00000  Uiso   1.00
C250   C     0.18208   0.44464   0.49370   0.00000  Uiso   1.00
C251   C     0.17265   0.42774   0.45240   0.00000  Uiso   1.00
C252   C     0.15585   0.45225   0.42883   0.00000  Uiso   1.00
H253   H     0.15008   0.43936   0.39680   0.00000  Uiso   1.00
H254   H     0.06240   0.47308   0.12186   0.00000  Uiso   1.00
H255   H     0.05379   0.59134   0.49427   0.00000  Uiso   1.00
H256   H     0.00845   0.54089   0.18261   0.00000  Uiso   1.00
H257   H     0.23660   0.43175   0.14836   0.00000  Uiso   1.00
H258   H     0.33013   0.45867   0.31775   0.00000  Uiso   1.00
H259   H     0.27004   0.64175   0.16679   0.00000  Uiso   1.00
H260   H     0.10730   0.35160   0.32060   0.00000  Uiso   1.00
H261   H     0.14661   0.33388   0.38539   0.00000  Uiso   1.00
H262   H     0.25079   0.41338   0.45576   0.00000  Uiso   1.00
H263   H     0.17686   0.54741   0.09780   0.00000  Uiso   1.00
H264   H     0.10856   0.61279   0.44173   0.00000  Uiso   1.00
O265   O     0.16667   0.50000   0.25000   0.00000  Uiso   1.00
O266   O     0.15451   0.45970   0.15458   0.00000  Uiso   1.00
O267   O     0.12940   0.53724   0.34968   0.00000  Uiso   1.00
O268   O     0.20824   0.51092   0.14606   0.00000  Uiso   1.00
O269   O     0.17451   0.49213   0.34968   0.00000  Uiso   1.00
O270   O     0.24695   0.37822   0.07645   0.00000  Uiso   1.00
O271   O     0.29825   0.43433   0.04182   0.00000  Uiso   1.00
O272   O     0.26036   0.44628   0.12623   0.00000  Uiso   1.00
O273   O     0.31312   0.46978   0.30042   0.00000  Uiso   1.00
O274   O     0.19061   0.35932   0.15880   0.00000  Uiso   1.00
O275   O     0.24476   0.37889   0.20162   0.00000  Uiso   1.00
O276   O     0.17930   0.41352   0.28214   0.00000  Uiso   1.00
O277   O     0.24567   0.64177   0.15330   0.00000  Uiso   1.00
O278   O     0.12336   0.66257   0.30252   0.00000  Uiso   1.00
O279   O     0.21920   0.37318   0.39605   0.00000  Uiso   1.00
O280   O     0.17362   0.34810   0.46762   0.00000  Uiso   1.00
O281   O     0.13742   0.35881   0.40489   0.00000  Uiso   1.00
O282   O     0.24032   0.40296   0.48626   0.00000  Uiso   1.00
O283   O     0.16185   0.53655   0.07409   0.00000  Uiso   1.00
O284   O     0.11119   0.58715   0.42123   0.00000  Uiso   1.00
O285   O     0.07896   0.55322   0.10474   0.00000  Uiso   1.00
O286   O     0.02671   0.51292   0.06798   0.00000  Uiso   1.00
O287   O     0.14632   0.59418   0.27013   0.00000  Uiso   1.00
O288   O     0.08009   0.47323   0.09025   0.00000  Uiso   1.00
O289   O     0.06826   0.58272   0.01566   0.00000  Uiso   1.00
O290   O     0.02349   0.52959   0.20174   0.00000  Uiso   1.00
O291   O     0.07412   0.46625   0.23413   0.00000  Uiso   1.00
O292   O     0.26693   0.52605   0.21360   0.00000  Uiso   1.00
O293   O     0.07071   0.52211   0.28213   0.00000  Uiso   1.00
O294   O     0.25491   0.48559   0.27014   0.00000  Uiso   1.00
O295   O     0.13760   0.40277   0.23413   0.00000  Uiso   1.00
O296   O     0.20345   0.58953   0.21360   0.00000  Uiso   1.00
S297   S     0.25596   0.42449   0.07519   0.00000  Uiso   1.00
S298   S     0.21573   0.34338   0.18633   0.00000  Uiso   1.00
S299   S     0.17706   0.37553   0.43044   0.00000  Uiso   1.00
S300   S     0.07217   0.51708   0.07154   0.00000  Uiso   1.00
Zn301  Zn    0.19338   0.47327   0.28734   0.00000  Uiso   1.00
Zn302  Zn    0.13379   0.45791   0.21875   0.00000  Uiso   1.00
Zn303  Zn    0.21056   0.53109   0.20657   0.00000  Uiso   1.00
Zn304  Zn    0.12893   0.53773   0.28733   0.00000  Uiso   1.00
C305   C     0.38630   0.49297   0.26016   0.00000  Uiso   1.00
C306   C     0.50468   0.49697   0.05774   0.00000  Uiso   1.00
C307   C     0.54909   0.44276   0.05566   0.00000  Uiso   1.00
C308   C     0.61421   0.50696   0.23993   0.00000  Uiso   1.00
C309   C     0.46809   0.52072   0.42201   0.00000  Uiso   1.00
C310   C     0.66036   0.50890   0.23567   0.00000  Uiso   1.00
C311   C     0.34092   0.49026   0.26509   0.00000  Uiso   1.00
C312   C     0.51215   0.65537   0.23454   0.00000  Uiso   1.00
C313   C     0.48554   0.34558   0.26505   0.00000  Uiso   1.00
C314   C     0.48939   0.38946   0.26052   0.00000  Uiso   1.00
C315   C     0.50969   0.61121   0.23986   0.00000  Uiso   1.00
C316   C     0.43009   0.55548   0.49275   0.00000  Uiso   1.00
C317   C     0.51849   0.48183   0.12904   0.00000  Uiso   1.00
C318   C     0.48074   0.51698   0.37150   0.00000  Uiso   1.00
C319   C     0.54523   0.42897   0.01185   0.00000  Uiso   1.00
C320   C     0.52570   0.47458   0.07990   0.00000  Uiso   1.00
C321   C     0.44783   0.55515   0.44535   0.00000  Uiso   1.00
C322   C     0.44045   0.52660   0.01736   0.00000  Uiso   1.00
C323   C     0.47109   0.49959   0.49480   0.00000  Uiso   1.00
C324   C     0.47695   0.49114   0.44771   0.00000  Uiso   1.00
C325   C     0.49566   0.47992   0.01650   0.00000  Uiso   1.00
C326   C     0.51542   0.44464   0.49370   0.00000  Uiso   1.00
C327   C     0.50599   0.42774   0.45240   0.00000  Uiso   1.00
C328   C     0.48918   0.45225   0.42883   0.00000  Uiso   1.00
H329   H     0.48342   0.43936   0.39680   0.00000  Uiso   1.00
H330   H     0.39573   0.47308   0.12186   0.00000  Uiso   1.00
H331   H     0.38712   0.59134   0.49427   0.00000  Uiso   1.00
H332   H     0.34179   0.54089   0.18261   0.00000  Uiso   1.00
H333   H     0.56994   0.43175   0.14836   0.00000  Uiso   1.00
H334   H     0.66346   0.45867   0.31775   0.00000  Uiso   1.00
H335   H     0.60338   0.64175   0.16679   0.00000  Uiso   1.00
H336   H     0.44064   0.35160   0.32060   0.00000  Uiso   1.00
H337   H     0.47995   0.33388   0.38539   0.00000  Uiso   1.00
H338   H     0.58413   0.41338   0.45576   0.00000  Uiso   1.00
H339   H     0.51019   0.54741   0.09780   0.00000  Uiso   1.00
H340   H     0.44189   0.61279   0.44173   0.00000  Uiso   1.00
O341   O     0.50000   0.50000   0.25000   0.00000  Uiso   1.00
O342   O     0.48784   0.45970   0.15458   0.00000  Uiso   1.00
O343   O     0.46274   0.53724   0.34968   0.00000  Uiso   1.00
O344   O     0.54157   0.51092   0.14606   0.00000  Uiso   1.00
O345   O     0.50785   0.49213   0.34968   0.00000  Uiso   1.00
O346   O     0.58028   0.37822   0.07645   0.00000  Uiso   1.00
O347   O     0.63158   0.43433   0.04182   0.00000  Uiso   1.00
O348   O     0.59369   0.44628   0.12623   0.00000  Uiso   1.00
O349   O     0.64645   0.46978   0.30042   0.00000  Uiso   1.00
O350   O     0.52394   0.35932   0.15880   0.00000  Uiso   1.00
O351   O     0.57809   0.37889   0.20162   0.00000  Uiso   1.00
O352   O     0.51264   0.41352   0.28214   0.00000  Uiso   1.00
O353   O     0.57900   0.64177   0.15330   0.00000  Uiso   1.00
O354   O     0.45670   0.66257   0.30252   0.00000  Uiso   1.00
O355   O     0.55254   0.37318   0.39605   0.00000  Uiso   1.00
O356   O     0.50695   0.34810   0.46762   0.00000  Uiso   1.00
O357   O     0.47075   0.35881   0.40489   0.00000  Uiso   1.00
O358   O     0.57365   0.40296   0.48626   0.00000  Uiso   1.00
O359   O     0.49519   0.53655   0.07409   0.00000  Uiso   1.00
O360   O     0.44452   0.58715   0.42123   0.00000  Uiso   1.00
O361   O     0.41230   0.55322   0.10474   0.00000  Uiso   1.00
O362   O     0.36004   0.51292   0.06798   0.00000  Uiso   1.00
O363   O     0.47965   0.59418   0.27013   0.00000  Uiso   1.00
O364   O     0.41342   0.47323   0.09025   0.00000  Uiso   1.00
O365   O     0.40159   0.58272   0.01566   0.00000  Uiso   1.00
O366   O     0.35683   0.52959   0.20174   0.00000  Uiso   1.00
O367   O     0.40745   0.46625   0.23413   0.00000  Uiso   1.00
O368   O     0.60026   0.52605   0.21360   0.00000  Uiso   1.00
O369   O     0.40405   0.52211   0.28213   0.00000  Uiso   1.00
O370   O     0.58824   0.48559   0.27014   0.00000  Uiso   1.00
O371   O     0.47093   0.40277   0.23413   0.00000  Uiso   1.00
O372   O     0.53678   0.58953   0.21360   0.00000  Uiso   1.00
S373   S     0.58929   0.42449   0.07519   0.00000  Uiso   1.00
S374   S     0.54907   0.34338   0.18633   0.00000  Uiso   1.00
S375   S     0.51039   0.37553   0.43044   0.00000  Uiso   1.00
S376   S     0.40550   0.51708   0.07154   0.00000  Uiso   1.00
Zn377  Zn    0.52672   0.47327   0.28734   0.00000  Uiso   1.00
Zn378  Zn    0.46713   0.45791   0.21875   0.00000  Uiso   1.00
Zn379  Zn    0.54389   0.53109   0.20657   0.00000  Uiso   1.00
Zn380  Zn    0.46226   0.53773   0.28733   0.00000  Uiso   1.00
C381   C     0.71963   0.49297   0.26016   0.00000  Uiso   1.00
C382   C     0.83801   0.49697   0.05774   0.00000  Uiso   1.00
C383   C     0.88242   0.44276   0.05566   0.00000  Uiso   1.00
C384   C     0.94754   0.50696   0.23993   0.00000  Uiso   1.00
C385   C     0.80143   0.52072   0.42201   0.00000  Uiso   1.00
C386   C     0.99369   0.50890   0.23567   0.00000  Uiso   1.00
C387   C     0.67426   0.49026   0.26509   0.00000  Uiso   1.00
C388   C     0.84548   0.65537   0.23454   0.00000  Uiso   1.00
C389   C     0.81887   0.34558   0.26505   0.00000  Uiso   1.00
C390   C     0.82272   0.38946   0.26052   0.00000  Uiso   1.00
C391   C     0.84303   0.61121   0.23986   0.00000  Uiso   1.00
C392   C     0.76342   0.55548   0.49275   0.00000  Uiso   1.00
C393   C     0.85183   0.48183   0.12904   0.00000  Uiso   1.00
C394   C     0.81407   0.51698   0.37150   0.00000  Uiso   1.00
C395   C     0.87856   0.42897   0.01185   0.00000  Uiso   1.00
C396   C     0.85903   0.47458   0.07990   0.00000  Uiso   1.00
C397   C     0.78116   0.55515   0.44535   0.00000  Uiso   1.00
C398   C     0.77379   0.52660   0.01736   0.00000  Uiso   1.00
C399   C     0.80443   0.49959   0.49480   0.00000  Uiso   1.00
C400   C     0.81028   0.49114   0.44771   0.00000  Uiso   1.00
C401   C     0.82899   0.47992   0.01650   0.00000  Uiso   1.00
C402   C     0.84875   0.44464   0.49370   0.00000  Uiso   1.00
C403   C     0.83932   0.42774   0.45240   0.00000  Uiso   1.00
C404   C     0.82251   0.45225   0.42883   0.00000  Uiso   1.00
H405   H     0.81675   0.43936   0.39680   0.00000  Uiso   1.00
H406   H     0.72907   0.47308   0.12186   0.00000  Uiso   1.00
H407   H     0.72045   0.59134   0.49427   0.00000  Uiso   1.00
H408   H     0.67512   0.54089   0.18261   0.00000  Uiso   1.00
H409   H     0.90327   0.43175   0.14836   0.00000  Uiso   1.00
H410   H     0.99680   0.45867   0.31775   0.00000  Uiso   1.00
H411   H     0.93671   0.64175   0.16679   0.00000  Uiso   1.00
H412   H     0.77397   0.35160   0.32060   0.00000  Uiso   1.00
H413   H     0.81328   0.33388   0.38539   0.00000  Uiso   1.00
H414   H     0.91746   0.41338   0.45576   0.00000  Uiso   1.00
H415   H     0.84353   0.54741   0.09780   0.00000  Uiso   1.00
H416   H     0.77523   0.61279   0.44173   0.00000  Uiso   1.00
O417   O     0.83333   0.50000   0.25000   0.00000  Uiso   1.00
O418   O     0.82118   0.45970   0.15458   0.00000  Uiso   1.00
O419   O     0.79607   0.53724   0.34968   0.00000  Uiso   1.00
O420   O     0.87491   0.51092   0.14606   0.00000  Uiso   1.00
O421   O     0.84118   0.49213   0.34968   0.00000  Uiso   1.00
O422   O     0.91362   0.37822   0.07645   0.00000  Uiso   1.00
O423   O     0.96492   0.43433   0.04182   0.00000  Uiso   1.00
O424   O     0.92703   0.44628   0.12623   0.00000  Uiso   1.00
O425   O     0.97978   0.46978   0.30042   0.00000  Uiso   1.00
O426   O     0.85727   0.35932   0.15880   0.00000  Uiso   1.00
O427   O     0.91142   0.37889   0.20162   0.00000  Uiso   1.00
O428   O     0.84597   0.41352   0.28214   0.00000  Uiso   1.00
O429   O     0.91234   0.64177   0.15330   0.00000  Uiso   1.00
O430   O     0.79003   0.66257   0.30252   0.00000  Uiso   1.00
O431   O     0.88587   0.37318   0.39605   0.00000  Uiso   1.00
O432   O     0.84029   0.34810   0.46762   0.00000  Uiso   1.00
O433   O     0.80408   0.35881   0.40489   0.00000  Uiso   1.00
O434   O     0.90698   0.40296   0.48626   0.00000  Uiso   1.00
O435   O     0.82852   0.53655   0.07409   0.00000  Uiso   1.00
O436   O     0.77786   0.58715   0.42123   0.00000  Uiso   1.00
O437   O     0.74563   0.55322   0.10474   0.00000  Uiso   1.00
O438   O     0.69338   0.51292   0.06798   0.00000  Uiso   1.00
O439   O     0.81298   0.59418   0.27013   0.00000  Uiso   1.00
O440   O     0.74675   0.47323   0.09025   0.00000  Uiso   1.00
O441   O     0.73492   0.58272   0.01566   0.00000  Uiso   1.00
O442   O     0.69016   0.52959   0.20174   0.00000  Uiso   1.00
O443   O     0.74078   0.46625   0.23413   0.00000  Uiso   1.00
O444   O     0.93360   0.52605   0.21360   0.00000  Uiso   1.00
O445   O     0.73738   0.52211   0.28213   0.00000  Uiso   1.00
O446   O     0.92158   0.48559   0.27014   0.00000  Uiso   1.00
O447   O     0.80426   0.40277   0.23413   0.00000  Uiso   1.00
O448   O     0.87012   0.58953   0.21360   0.00000  Uiso   1.00
S449   S     0.92263   0.42449   0.07519   0.00000  Uiso   1.00
S450   S     0.88240   0.34338   0.18633   0.00000  Uiso   1.00
S451   S     0.84373   0.37553   0.43044   0.00000  Uiso   1.00
S452   S     0.73884   0.51708   0.07154   0.00000  Uiso   1.00
Zn453  Zn    0.86005   0.47327   0.28734   0.00000  Uiso   1.00
Zn454  Zn    0.80046   0.45791   0.21875   0.00000  Uiso   1.00
Zn455  Zn    0.87723   0.53109   0.20657   0.00000  Uiso   1.00
Zn456  Zn    0.79560   0.53773   0.28733   0.00000  Uiso   1.00
C457   C     0.05296   0.82630   0.26016   0.00000  Uiso   1.00
C458   C     0.17135   0.83030   0.05774   0.00000  Uiso   1.00
C459   C     0.21576   0.77609   0.05566   0.00000  Uiso   1.00
C460   C     0.28088   0.84029   0.23993   0.00000  Uiso   1.00
C461   C     0.13476   0.85405   0.42201   0.00000  Uiso   1.00
C462   C     0.32703   0.84223   0.23567   0.00000  Uiso   1.00
C463   C     0.00759   0.82359   0.26509   0.00000  Uiso   1.00
C464   C     0.17882   0.98870   0.23454   0.00000  Uiso   1.00
C465   C     0.15220   0.67891   0.26505   0.00000  Uiso   1.00
C466   C     0.15605   0.72280   0.26052   0.00000  Uiso   1.00
C467   C     0.17636   0.94455   0.23986   0.00000  Uiso   1.00
C468   C     0.09675   0.88882   0.49275   0.00000  Uiso   1.00
C469   C     0.18516   0.81517   0.12904   0.00000  Uiso   1.00
C470   C     0.14741   0.85031   0.37150   0.00000  Uiso   1.00
C471   C     0.21190   0.76230   0.01185   0.00000  Uiso   1.00
C472   C     0.19236   0.80791   0.07990   0.00000  Uiso   1.00
C473   C     0.11449   0.88848   0.44535   0.00000  Uiso   1.00
C474   C     0.10712   0.85994   0.01736   0.00000  Uiso   1.00
C475   C     0.13776   0.83293   0.49480   0.00000  Uiso   1.00
C476   C     0.14361   0.82447   0.44771   0.00000  Uiso   1.00
C477   C     0.16233   0.81325   0.01650   0.00000  Uiso   1.00
C478   C     0.18208   0.77797   0.49370   0.00000  Uiso   1.00
C479   C     0.17265   0.76107   0.45240   0.00000  Uiso   1.00
C480   C     0.15585   0.78558   0.42883   0.00000  Uiso   1.00
H481   H     0.15008   0.77269   0.39680   0.00000  Uiso   1.00
H482   H     0.06240   0.80641   0.12186   0.00000  Uiso   1.00
H483   H     0.05379   0.92467   0.49427   0.00000  Uiso   1.00
H484   H     0.00845   0.87422   0.18261   0.00000  Uiso   1.00
H485   H     0.23660   0.76508   0.14836   0.00000  Uiso   1.00
H486   H     0.33013   0.79200   0.31775   0.00000  Uiso   1.00
H487   H     0.27004   0.97508   0.16679   0.00000  Uiso   1.00
H488   H     0.10730   0.68494   0.32060   0.00000  Uiso   1.00
H489   H     0.14661   0.66721   0.38539   0.00000  Uiso   1.00
H490   H     0.25079   0.74671   0.45576   0.00000  Uiso   1.00
H491   H     0.17686   0.88074   0.09780   0.00000  Uiso   1.00
H492   H     0.10856   0.94612   0.44173   0.00000  Uiso   1.00
O493   O     0.16667   0.83333   0.25000   0.00000  Uiso   1.00
O494   O     0.15451   0.79304   0.15458   0.00000  Uiso   1.00
O495   O     0.12940   0.87058   0.34968   0.00000  Uiso   1.00
O496   O     0.20824   0.84425   0.14606   0.00000  Uiso   1.00
O497   O     0.17451   0.82546   0.34968   0.00000  Uiso   1.00
O498   O     0.24695   0.71155   0.07645   0.00000  Uiso   1.00
O499   O     0.29825   0.76767   0.04182   0.00000  Uiso   1.00
O500   O     0.26036   0.77961   0.12623   0.00000  Uiso   1.00
O501   O     0.31312   0.80312   0.30042   0.00000  Uiso   1.00
O502   O     0.19061   0.69265   0.15880   0.00000  Uiso   1.00
O503   O     0.24476   0.71222   0.20162   0.00000  Uiso   1.00
O504   O     0.17930   0.74686   0.28214   0.00000  Uiso   1.00
O505   O     0.24567   0.97510   0.15330   0.00000  Uiso   1.00
O506   O     0.12336   0.99591   0.30252   0.00000  Uiso   1.00
O507   O     0.21920   0.70651   0.39605   0.00000  Uiso   1.00
O508   O     0.17362   0.68143   0.46762   0.00000  Uiso   1.00
O509   O     0.13742   0.69215   0.40489   0.00000  Uiso   1.00
O510   O     0.24032   0.73629   0.48626   0.00000  Uiso   1.00
O511   O     0.16185   0.86988   0.07409   0.00000  Uiso   1.00
O512   O     0.11119   0.92048   0.42123   0.00000  Uiso   1.00
O513   O     0.07896   0.88656   0.10474   0.00000  Uiso   1.00
O514   O     0.02671   0.84626   0.06798   0.00000  Uiso   1.00
O515   O     0.14632   0.92751   0.27013   0.00000  Uiso   1.00
O516   O     0.08009   0.80656   0.09025   0.00000  Uiso   1.00
O517   O     0.06826   0.91606   0.01566   0.00000  Uiso   1.00
O518   O     0.02349   0.86292   0.20174   0.00000  Uiso   1.00
O519   O     0.07412   0.79958   0.23413   0.00000  Uiso   1.00
O520   O     0.26693   0.85939   0.21360   0.00000  Uiso   1.00
O521   O     0.07071   0.85544   0.28213   0.00000  Uiso   1.00
O522   O     0.25491   0.81892   0.27014   0.00000  Uiso   1.00
O523   O     0.13760   0.73610   0.23413   0.00000  Uiso   1.00
O524   O     0.20345   0.92286   0.21360   0.00000  Uiso   1.00
S525   S     0.25596   0.75782   0.07519   0.00000  Uiso   1.00
S526   S     0.21573   0.67671   0.18633   0.00000  Uiso   1.00
S527   S     0.17706   0.70886   0.43044   0.00000  Uiso   1.00
S528   S     0.07217   0.85041   0.07154   0.00000  Uiso   1.00
Zn529  Zn    0.19338   0.80661   0.28734   0.00000  Uiso   1.00
Zn530  Zn    0.13379   0.79124   0.21875   0.00000  Uiso   1.00
Zn531  Zn    0.21056   0.86442   0.20657   0.00000  Uiso   1.00
Zn532  Zn    0.12893   0.87106   0.28733   0.00000  Uiso   1.00
C533   C     0.38630   0.82630   0.26016   0.00000  Uiso   1.00
C534   C     0.50468   0.83030   0.05774   0.00000  Uiso   1.00
C535   C     0.54909   0.77609   0.05566   0.00000  Uiso   1.00
C536   C     0.61421   0.84029   0.23993   0.00000  Uiso   1.00
C537   C     0.46809   0.85405   0.42201   0.00000  Uiso   1.00
C538   C     0.66036   0.84223   0.23567   0.00000  Uiso   1.00
C539   C     0.34092   0.82359   0.26509   0.00000  Uiso   1.00
C540   C     0.51215   0.98870   0.23454   0.00000  Uiso   1.00
C541   C     0.48554   0.67891   0.26505   0.00000  Uiso   1.00
C542   C     0.48939   0.72280   0.26052   0.00000  Uiso   1.00
C543   C     0.50969   0.94455   0.23986   0.00000  Uiso   1.00
C544   C     0.43009   0.88882   0.49275   0.00000  Uiso   1.00
C545   C     0.51849   0.81517   0.12904   0.00000  Uiso   1.00
C546   C     0.48074   0.85031   0.37150   0.00000  Uiso   1.00
C547   C     0.54523   0.76230   0.01185   0.00000  Uiso   1.00
C548   C     0.52570   0.80791   0.07990   0.00000  Uiso   1.00
C549   C     0.44783   0.88848   0.44535   0.00000  Uiso   1.00
C550   C     0.44045   0.85994   0.01736   0.00000  Uiso   1.00
C551   C     0.47109   0.83293   0.49480   0.00000  Uiso   1.00
C552   C     0.47695   0.82447   0.44771   0.00000  Uiso   1.00
C553   C     0.49566   0.81325   0.01650   0.00000  Uiso   1.00
C554   C     0.51542   0.77797   0.49370   0.00000  Uiso   1.00
C555   C     0.50599   0.76107   0.45240   0.00000  Uiso   1.00
C556   C     0.48918   0.78558   0.42883   0.00000  Uiso   1.00
H557   H     0.48342   0.77269   0.39680   0.00000  Uiso   1.00
H558   H     0.39573   0.80641   0.12186   0.00000  Uiso   1.00
H559   H     0.38712   0.92467   0.49427   0.00000  Uiso   1.00
H560   H     0.34179   0.87422   0.18261   0.00000  Uiso   1.00
H561   H     0.56994   0.76508   0.14836   0.00000  Uiso   1.00
H562   H     0.66346   0.79200   0.31775   0.00000  Uiso   1.00
H563   H     0.60338   0.97508   0.16679   0.00000  Uiso   1.00
H564   H     0.44064   0.68494   0.32060   0.00000  Uiso   1.00
H565   H     0.47995   0.66721   0.38539   0.00000  Uiso   1.00
H566   H     0.58413   0.74671   0.45576   0.00000  Uiso   1.00
H567   H     0.51019   0.88074   0.09780   0.00000  Uiso   1.00
H568   H     0.44189   0.94612   0.44173   0.00000  Uiso   1.00
O569   O     0.50000   0.83333   0.25000   0.00000  Uiso   1.00
O570   O     0.48784   0.79304   0.15458   0.00000  Uiso   1.00
O571   O     0.46274   0.87058   0.34968   0.00000  Uiso   1.00
O572   O     0.54157   0.84425   0.14606   0.00000  Uiso   1.00
O573   O     0.50785   0.82546   0.34968   0.00000  Uiso   1.00
O574   O     0.58028   0.71155   0.07645   0.00000  Uiso   1.00
O575   O     0.63158   0.76767   0.04182   0.00000  Uiso   1.00
O576   O     0.59369   0.77961   0.12623   0.00000  Uiso   1.00
O577   O     0.64645   0.80312   0.30042   0.00000  Uiso   1.00
O578   O     0.52394   0.69265   0.15880   0.00000  Uiso   1.00
O579   O     0.57809   0.71222   0.20162   0.00000  Uiso   1.00
O580   O     0.51264   0.74686   0.28214   0.00000  Uiso   1.00
O581   O     0.57900   0.97510   0.15330   0.00000  Uiso   1.00
O582   O     0.45670   0.99591   0.30252   0.00000  Uiso   1.00
O583   O     0.55254   0.70651   0.39605   0.00000  Uiso   1.00
O584   O     0.50695   0.68143   0.46762   0.00000  Uiso   1.00
O585   O     0.47075   0.69215   0.40489   0.00000  Uiso   1.00
O586   O     0.57365   0.73629   0.48626   0.00000  Uiso   1.00
O587   O     0.49519   0.86988   0.07409   0.00000  Uiso   1.00
O588   O     0.44452   0.92048   0.42123   0.00000  Uiso   1.00
O589   O     0.41230   0.88656   0.10474   0.00000  Uiso   1.00
O590   O     0.36004   0.84626   0.06798   0.00000  Uiso   1.00
O591   O     0.47965   0.92751   0.27013   0.00000  Uiso   1.00
O592   O     0.41342   0.80656   0.09025   0.00000  Uiso   1.00
O593   O     0.40159   0.91606   0.01566   0.00000  Uiso   1.00
O594   O     0.35683   0.86292   0.20174   0.00000  Uiso   1.00
O595   O     0.40745   0.79958   0.23413   0.00000  Uiso   1.00
O596   O     0.60026   0.85939   0.21360   0.00000  Uiso   1.00
O597   O     0.40405   0.85544   0.28213   0.00000  Uiso   1.00
O598   O     0.58824   0.81892   0.27014   0.00000  Uiso   1.00
O599   O     0.47093   0.73610   0.23413   0.00000  Uiso   1.00
O600   O     0.53678   0.92286   0.21360   0.00000  Uiso   1.00
S601   S     0.58929   0.75782   0.07519   0.00000  Uiso   1.00
S602   S     0.54907   0.67671   0.18633   0.00000  Uiso   1.00
S603   S     0.51039   0.70886   0.43044   0.00000  Uiso   1.00
S604   S     0.40550   0.85041   0.07154   0.00000  Uiso   1.00
Zn605  Zn    0.52672   0.80661   0.28734   0.00000  Uiso   1.00
Zn606  Zn    0.46713   0.79124   0.21875   0.00000  Uiso   1.00
Zn607  Zn    0.54389   0.86442   0.20657   0.00000  Uiso   1.00
Zn608  Zn    0.46226   0.87106   0.28733   0.00000  Uiso   1.00
C609   C     0.71963   0.82630   0.26016   0.00000  Uiso   1.00
C610   C     0.83801   0.83030   0.05774   0.00000  Uiso   1.00
C611   C     0.88242   0.77609   0.05566   0.00000  Uiso   1.00
C612   C     0.94754   0.84029   0.23993   0.00000  Uiso   1.00
C613   C     0.80143   0.85405   0.42201   0.00000  Uiso   1.00
C614   C     0.99369   0.84223   0.23567   0.00000  Uiso   1.00
C615   C     0.67426   0.82359   0.26509   0.00000  Uiso   1.00
C616   C     0.84548   0.98870   0.23454   0.00000  Uiso   1.00
C617   C     0.81887   0.67891   0.26505   0.00000  Uiso   1.00
C618   C     0.82272   0.72280   0.26052   0.00000  Uiso   1.00
C619   C     0.84303   0.94455   0.23986   0.00000  Uiso   1.00
C620   C     0.76342   0.88882   0.49275   0.00000  Uiso   1.00
C621   C     0.85183   0.81517   0.12904   0.00000  Uiso   1.00
C622   C     0.81407   0.85031   0.37150   0.00000  Uiso   1.00
C623   C     0.87856   0.76230   0.01185   0.00000  Uiso   1.00
C624   C     0.85903   0.80791   0.07990   0.00000  Uiso   1.00
C625   C     0.78116   0.88848   0.44535   0.00000  Uiso   1.00
C626   C     0.77379   0.85994   0.01736   0.00000  Uiso   1.00
C627   C     0.80443   0.83293   0.49480   0.00000  Uiso   1.00
C628   C     0.81028   0.82447   0.44771   0.00000  Uiso   1.00
C629   C     0.82899   0.81325   0.01650   0.00000  Uiso   1.00
C630   C     0.84875   0.77797   0.49370   0.00000  Uiso   1.00
C631   C     0.83932   0.76107   0.45240   0.00000  Uiso   1.00
C632   C     0.82251   0.78558   0.42883   0.00000  Uiso   1.00
H633   H     0.81675   0.77269   0.39680   0.00000  Uiso   1.00
H634   H     0.72907   0.80641   0.12186   0.00000  Uiso   1.00
H635   H     0.72045   0.92467   0.49427   0.00000  Uiso   1.00
H636   H     0.67512   0.87422   0.18261   0.00000  Uiso   1.00
H637   H     0.90327   0.76508   0.14836   0.00000  Uiso   1.00
H638   H     0.99680   0.79200   0.31775   0.00000  Uiso   1.00
H639   H     0.93671   0.97508   0.16679   0.00000  Uiso   1.00
H640   H     0.77397   0.68494   0.32060   0.00000  Uiso   1.00
H641   H     0.81328   0.66721   0.38539   0.00000  Uiso   1.00
H642   H     0.91746   0.74671   0.45576   0.00000  Uiso   1.00
H643   H     0.84353   0.88074   0.09780   0.00000  Uiso   1.00
H644   H     0.77523   0.94612   0.44173   0.00000  Uiso   1.00
O645   O     0.83333   0.83333   0.25000   0.00000  Uiso   1.00
O646   O     0.82118   0.79304   0.15458   0.00000  Uiso   1.00
O647   O     0.79607   0.87058   0.34968   0.00000  Uiso   1.00
O648   O     0.87491   0.84425   0.14606   0.00000  Uiso   1.00
O649   O     0.84118   0.82546   0.34968   0.00000  Uiso   1.00
O650   O     0.91362   0.71155   0.07645   0.00000  Uiso   1.00
O651   O     0.96492   0.76767   0.04182   0.00000  Uiso   1.00
O652   O     0.92703   0.77961   0.12623   0.00000  Uiso   1.00
O653   O     0.97978   0.80312   0.30042   0.00000  Uiso   1.00
O654   O     0.85727   0.69265   0.15880   0.00000  Uiso   1.00
O655   O     0.91142   0.71222   0.20162   0.00000  Uiso   1.00
O656   O     0.84597   0.74686   0.28214   0.00000  Uiso   1.00
O657   O     0.91234   0.97510   0.15330   0.00000  Uiso   1.00
O658   O     0.79003   0.99591   0.30252   0.00000  Uiso   1.00
O659   O     0.88587   0.70651   0.39605   0.00000  Uiso   1.00
O660   O     0.84029   0.68143   0.46762   0.00000  Uiso   1.00
O661   O     0.80408   0.69215   0.40489   0.00000  Uiso   1.00
O662   O     0.90698   0.73629   0.48626   0.00000  Uiso   1.00
O663   O     0.82852   0.86988   0.07409   0.00000  Uiso   1.00
O664   O     0.77786   0.92048   0.42123   0.00000  Uiso   1.00
O665   O     0.74563   0.88656   0.10474   0.00000  Uiso   1.00
O666   O     0.69338   0.84626   0.06798   0.00000  Uiso   1.00
O667   O     0.81298   0.92751   0.27013   0.00000  Uiso   1.00
O668   O     0.74675   0.80656   0.09025   0.00000  Uiso   1.00
O669   O     0.73492   0.91606   0.01566   0.00000  Uiso   1.00
O670   O     0.69016   0.86292   0.20174   0.00000  Uiso   1.00
O671   O     0.74078   0.79958   0.23413   0.00000  Uiso   1.00
O672   O     0.93360   0.85939   0.21360   0.00000  Uiso   1.00
O673   O     0.73738   0.85544   0.28213   0.00000  Uiso   1.00
O674   O     0.92158   0.81892   0.27014   0.00000  Uiso   1.00
O675   O     0.80426   0.73610   0.23413   0.00000  Uiso   1.00
O676   O     0.87012   0.92286   0.21360   0.00000  Uiso   1.00
S677   S     0.92263   0.75782   0.07519   0.00000  Uiso   1.00
S678   S     0.88240   0.67671   0.18633   0.00000  Uiso   1.00
S679   S     0.84373   0.70886   0.43044   0.00000  Uiso   1.00
S680   S     0.73884   0.85041   0.07154   0.00000  Uiso   1.00
Zn681  Zn    0.86005   0.80661   0.28734   0.00000  Uiso   1.00
Zn682  Zn    0.80046   0.79124   0.21875   0.00000  Uiso   1.00
Zn683  Zn    0.87723   0.86442   0.20657   0.00000  Uiso   1.00
Zn684  Zn    0.79560   0.87106   0.28733   0.00000  Uiso   1.00
C685   C     0.05296   0.15963   0.76016   0.00000  Uiso   1.00
C686   C     0.17135   0.16364   0.55774   0.00000  Uiso   1.00
C687   C     0.21576   0.10942   0.55566   0.00000  Uiso   1.00
C688   C     0.28088   0.17363   0.73993   0.00000  Uiso   1.00
C689   C     0.13476   0.18739   0.92201   0.00000  Uiso   1.00
C690   C     0.32703   0.17557   0.73567   0.00000  Uiso   1.00
C691   C     0.00759   0.15692   0.76509   0.00000  Uiso   1.00
C692   C     0.17882   0.32204   0.73454   0.00000  Uiso   1.00
C693   C     0.15220   0.01225   0.76505   0.00000  Uiso   1.00
C694   C     0.15605   0.05613   0.76052   0.00000  Uiso   1.00
C695   C     0.17636   0.27788   0.73986   0.00000  Uiso   1.00
C696   C     0.09675   0.22215   0.99275   0.00000  Uiso   1.00
C697   C     0.18516   0.14850   0.62904   0.00000  Uiso   1.00
C698   C     0.14741   0.18365   0.87150   0.00000  Uiso   1.00
C699   C     0.21190   0.09563   0.51185   0.00000  Uiso   1.00
C700   C     0.19236   0.14125   0.57990   0.00000  Uiso   1.00
C701   C     0.11449   0.22182   0.94535   0.00000  Uiso   1.00
C702   C     0.10712   0.19327   0.51736   0.00000  Uiso   1.00
C703   C     0.13776   0.16626   0.99480   0.00000  Uiso   1.00
C704   C     0.14361   0.15781   0.94771   0.00000  Uiso   1.00
C705   C     0.16233   0.14659   0.51650   0.00000  Uiso   1.00
C706   C     0.18208   0.11130   0.99370   0.00000  Uiso   1.00
C707   C     0.17265   0.09441   0.95240   0.00000  Uiso   1.00
C708   C     0.15585   0.11892   0.92883   0.00000  Uiso   1.00
H709   H     0.15008   0.10602   0.89680   0.00000  Uiso   1.00
H710   H     0.06240   0.13975   0.62186   0.00000  Uiso   1.00
H711   H     0.05379   0.25800   0.99427   0.00000  Uiso   1.00
H712   H     0.00845   0.20755   0.68261   0.00000  Uiso   1.00
H713   H     0.23660   0.09842   0.64836   0.00000  Uiso   1.00
H714   H     0.33013   0.12533   0.81775   0.00000  Uiso   1.00
H715   H     0.27004   0.30842   0.66679   0.00000  Uiso   1.00
H716   H     0.10730   0.01827   0.82060   0.00000  Uiso   1.00
H717   H     0.14661   0.00054   0.88539   0.00000  Uiso   1.00
H718   H     0.25079   0.08004   0.95576   0.00000  Uiso   1.00
H719   H     0.17686   0.21408   0.59780   0.00000  Uiso   1.00
H720   H     0.10856   0.27946   0.94173   0.00000  Uiso   1.00
O721   O     0.16667   0.16667   0.75000   0.00000  Uiso   1.00
O722   O     0.15451   0.12637   0.65458   0.00000  Uiso   1.00
O723   O     0.12940   0.20391   0.84968   0.00000  Uiso   1.00
O724   O     0.20824   0.17759   0.64606   0.00000  Uiso   1.00
O725   O     0.17451   0.15880   0.84968   0.00000  Uiso   1.00
O726   O     0.24695   0.04489   0.57645   0.00000  Uiso   1.00
O727   O     0.29825   0.10100   0.54182   0.00000  Uiso   1.00
O728   O     0.26036   0.11295   0.62623   0.00000  Uiso   1.00
O729   O     0.31312   0.13645   0.80042   0.00000  Uiso   1.00
O730   O     0.19061   0.02599   0.65880   0.00000  Uiso   1.00
O731   O     0.24476   0.04556   0.70162   0.00000  Uiso   1.00
O732   O     0.17930   0.08019   0.78214   0.00000  Uiso   1.00
O733   O     0.24567   0.30843   0.65330   0.00000  Uiso   1.00
O734   O     0.12336   0.32924   0.80252   0.00000  Uiso   1.00
O735   O     0.21920   0.03985   0.89605   0.00000  Uiso   1.00
O736   O     0.17362   0.01476   0.96762   0.00000  Uiso   1.00
O737   O     0.13742   0.02548   0.90489   0.00000  Uiso   1.00
O738   O     0.24032   0.06963   0.98626   0.00000  Uiso   1.00
O739   O     0.16185   0.20322   0.57409   0.00000  Uiso   1.00
O740   O     0.11119   0.25382   0.92123   0.00000  Uiso   1.00
O741   O     0.07896   0.21989   0.60474   0.00000  Uiso   1.00
O742   O     0.02671   0.17959   0.56798   0.00000  Uiso   1.00
O743   O     0.14632   0.26085   0.77013   0.00000  Uiso   1.00
O744   O     0.08009   0.13989   0.59025   0.00000  Uiso   1.00
O745   O     0.06826   0.24939   0.51566   0.00000  Uiso   1.00
O746   O     0.02349   0.19626   0.70174   0.00000  Uiso   1.00
O747   O     0.07412   0.13291   0.73413   0.00000  Uiso   1.00
O748   O     0.26693   0.19272   0.71360   0.00000  Uiso   1.00
O749   O     0.07071   0.18878   0.78213   0.00000  Uiso   1.00
O750   O     0.25491   0.15226   0.77014   0.00000  Uiso   1.00
O751   O     0.13760   0.06944   0.73413   0.00000  Uiso   1.00
O752   O     0.20345   0.25620   0.71360   0.00000  Uiso   1.00
S753   S     0.25596   0.09116   0.57519   0.00000  Uiso   1.00
S754   S     0.21573   0.01005   0.68633   0.00000  Uiso   1.00
S755   S     0.17706   0.04220   0.93044   0.00000  Uiso   1.00
S756   S     0.07217   0.18375   0.57154   0.00000  Uiso   1.00
Zn757  Zn    0.19338   0.13994   0.78734   0.00000  Uiso   1.00
Zn758  Zn    0.13379   0.12458   0.71875   0.00000  Uiso   1.00
Zn759  Zn    0.21056   0.19775   0.70657   0.00000  Uiso   1.00
Zn760  Zn    0.12893   0.20439   0.78733   0.00000  Uiso   1.00
C761   C     0.38630   0.15963   0.76016   0.00000  Uiso   1.00
C762   C     0.50468   0.16364   0.55774   0.00000  Uiso   1.00
C763   C     0.54909   0.10942   0.55566   0.00000  Uiso   1.00
C764   C     0.61421   0.17363   0.73993   0.00000  Uiso   1.00
C765   C     0.46809   0.18739   0.92201   0.00000  Uiso   1.00
C766   C     0.66036   0.17557   0.73567   0.00000  Uiso   1.00
C767   C     0.34092   0.15692   0.76509   0.00000  Uiso   1.00
C768   C     0.51215   0.32204   0.73454   0.00000  Uiso   1.00
C769   C     0.48554   0.01225   0.76505   0.00000  Uiso   1.00
C770   C     0.48939   0.05613   0.76052   0.00000  Uiso   1.00
C771   C     0.50969   0.27788   0.73986   0.00000  Uiso   1.00
C772   C     0.43009   0.22215   0.99275   0.00000  Uiso   1.00
C773   C     0.51849   0.14850   0.62904   0.00000  Uiso   1.00
C774   C     0.48074   0.18365   0.87150   0.00000  Uiso   1.00
C775   C     0.54523   0.09563   0.51185   0.00000  Uiso   1.00
C776   C     0.52570   0.14125   0.57990   0.00000  Uiso   1.00
C777   C     0.44783   0.22182   0.94535   0.00000  Uiso   1.00
C778   C     0.44045   0.19327   0.51736   0.00000  Uiso   1.00
C779   C     0.47109   0.16626   0.99480   0.00000  Uiso   1.00
C780   C     0.47695   0.15781   0.94771   0.00000  Uiso   1.00
C781   C     0.49566   0.14659   0.51650   0.00000  Uiso   1.00
C782   C     0.51542   0.11130   0.99370   0.00000  Uiso   1.00
C783   C     0.50599   0.09441   0.95240   0.00000  Uiso   1.00
C784   C     0.48918   0.11892   0.92883   0.00000  Uiso   1.00
H785   H     0.48342   0.10602   0.89680   0.00000  Uiso   1.00
H786   H     0.39573   0.13975   0.62186   0.00000  Uiso   1.00
H787   H     0.38712   0.25800   0.99427   0.00000  Uiso   1.00
H788   H     0.34179   0.20755   0.68261   0.00000  Uiso   1.00
H789   H     0.56994   0.09842   0.64836   0.00000  Uiso   1.00
H790   H     0.66346   0.12533   0.81775   0.00000  Uiso   1.00
H791   H     0.60338   0.30842   0.66679   0.00000  Uiso   1.00
H792   H     0.44064   0.01827   0.82060   0.00000  Uiso   1.00
H793   H     0.47995   0.00054   0.88539   0.00000  Uiso   1.00
H794   H     0.58413   0.08004   0.95576   0.00000  Uiso   1.00
H795   H     0.51019   0.21408   0.59780   0.00000  Uiso   1.00
H796   H     0.44189   0.27946   0.94173   0.00000  Uiso   1.00
O797   O     0.50000   0.16667   0.75000   0.00000  Uiso   1.00
O798   O     0.48784   0.12637   0.65458   0.00000  Uiso   1.00
O799   O     0.46274   0.20391   0.84968   0.00000  Uiso   1.00
O800   O     0.54157   0.17759   0.64606   0.00000  Uiso   1.00
O801   O     0.50785   0.15880   0.84968   0.00000  Uiso   1.00
O802   O     0.58028   0.04489   0.57645   0.00000  Uiso   1.00
O803   O     0.63158   0.10100   0.54182   0.00000  Uiso   1.00
O804   O     0.59369   0.11295   0.62623   0.00000  Uiso   1.00
O805   O     0.64645   0.13645   0.80042   0.00000  Uiso   1.00
O806   O     0.52394   0.02599   0.65880   0.00000  Uiso   1.00
O807   O     0.57809   0.04556   0.70162   0.00000  Uiso   1.00
O808   O     0.51264   0.08019   0.78214   0.00000  Uiso   1.00
O809   O     0.57900   0.30843   0.65330   0.00000  Uiso   1.00
O810   O     0.45670   0.32924   0.80252   0.00000  Uiso   1.00
O811   O     0.55254   0.03985   0.89605   0.00000  Uiso   1.00
O812   O     0.50695   0.01476   0.96762   0.00000  Uiso   1.00
O813   O     0.47075   0.02548   0.90489   0.00000  Uiso   1.00
O814   O     0.57365   0.06963   0.98626   0.00000  Uiso   1.00
O815   O     0.49519   0.20322   0.57409   0.00000  Uiso   1.00
O816   O     0.44452   0.25382   0.92123   0.00000  Uiso   1.00
O817   O     0.41230   0.21989   0.60474   0.00000  Uiso   1.00
O818   O     0.36004   0.17959   0.56798   0.00000  Uiso   1.00
O819   O     0.47965   0.26085   0.77013   0.00000  Uiso   1.00
O820   O     0.41342   0.13989   0.59025   0.00000  Uiso   1.00
O821   O     0.40159   0.24939   0.51566   0.00000  Uiso   1.00
O822   O     0.35683   0.19626   0.70174   0.00000  Uiso   1.00
O823   O     0.40745   0.13291   0.73413   0.00000  Uiso   1.00
O824   O     0.60026   0.19272   0.71360   0.00000  Uiso   1.00
O825   O     0.40405   0.18878   0.78213   0.00000  Uiso   1.00
O826   O     0.58824   0.15226   0.77014   0.00000  Uiso   1.00
O827   O     0.47093   0.06944   0.73413   0.00000  Uiso   1.00
O828   O     0.53678   0.25620   0.71360   0.00000  Uiso   1.00
S829   S     0.58929   0.09116   0.57519   0.00000  Uiso   1.00
S830   S     0.54907   0.01005   0.68633   0.00000  Uiso   1.00
S831   S     0.51039   0.04220   0.93044   0.00000  Uiso   1.00
S832   S     0.40550   0.18375   0.57154   0.00000  Uiso   1.00
Zn833  Zn    0.52672   0.13994   0.78734   0.00000  Uiso   1.00
Zn834  Zn    0.46713   0.12458   0.71875   0.00000  Uiso   1.00
Zn835  Zn    0.54389   0.19775   0.70657   0.00000  Uiso   1.00
Zn836  Zn    0.46226   0.20439   0.78733   0.00000  Uiso   1.00
C837   C     0.71963   0.15963   0.76016   0.00000  Uiso   1.00
C838   C     0.83801   0.16364   0.55774   0.00000  Uiso   1.00
C839   C     0.88242   0.10942   0.55566   0.00000  Uiso   1.00
C840   C     0.94754   0.17363   0.73993   0.00000  Uiso   1.00
C841   C     0.80143   0.18739   0.92201   0.00000  Uiso   1.00
C842   C     0.99369   0.17557   0.73567   0.00000  Uiso   1.00
C843   C     0.67426   0.15692   0.76509   0.00000  Uiso   1.00
C844   C     0.84548   0.32204   0.73454   0.00000  Uiso   1.00
C845   C     0.81887   0.01225   0.76505   0.00000  Uiso   1.00
C846   C     0.82272   0.05613   0.76052   0.00000  Uiso   1.00
C847   C     0.84303   0.27788   0.73986   0.00000  Uiso   1.00
C848   C     0.76342   0.22215   0.99275   0.00000  Uiso   1.00
C849   C     0.85183   0.14850   0.62904   0.00000  Uiso   1.00
C850   C     0.81407   0.18365   0.87150   0.00000  Uiso   1.00
C851   C     0.87856   0.09563   0.51185   0.00000  Uiso   1.00
C852   C     0.85903   0.14125   0.57990   0.00000  Uiso   1.00
C853   C     0.78116   0.22182   0.94535   0.00000  Uiso   1.00
C854   C     0.77379   0.19327   0.51736   0.00000  Uiso   1.00
C855   C     0.80443   0.16626   0.99480   0.00000  Uiso   1.00
C856   C     0.81028   0.15781   0.94771   0.00000  Uiso   1.00
C857   C     0.82899   0.14659   0.51650   0.00000  Uiso   1.00
C858   C     0.84875   0.11130   0.99370   0.00000  Uiso   1.00
C859   C     0.83932   0.09441   0.95240   0.00000  Uiso   1.00
C860   C     0.82251   0.11892   0.92883   0.00000  Uiso   1.00
H861   H     0.81675   0.10602   0.89680   0.00000  Uiso   1.00
H862   H     0.72907   0.13975   0.62186   0.00000  Uiso   1.00
H863   H     0.72045   0.25800   0.99427   0.00000  Uiso   1.00
H864   H     0.67512   0.20755   0.68261   0.00000  Uiso   1.00
H865   H     0.90327   0.09842   0.64836   0.00000  Uiso   1.00
H866   H     0.99680   0.12533   0.81775   0.00000  Uiso   1.00
H867   H     0.93671   0.30842   0.66679   0.00000  Uiso   1.00
H868   H     0.77397   0.01827   0.82060   0.00000  Uiso   1.00
H869   H     0.81328   0.00054   0.88539   0.00000  Uiso   1.00
H870   H     0.91746   0.08004   0.95576   0.00000  Uiso   1.00
H871   H     0.84353   0.21408   0.59780   0.00000  Uiso   1.00
H872   H     0.77523   0.27946   0.94173   0.00000  Uiso   1.00
O873   O     0.83333   0.16667   0.75000   0.00000  Uiso   1.00
O874   O     0.82118   0.12637   0.65458   0.00000  Uiso   1.00
O875   O     0.79607   0.20391   0.84968   0.00000  Uiso   1.00
O876   O     0.87491   0.17759   0.64606   0.00000  Uiso   1.00
O877   O     0.84118   0.15880   0.84968   0.00000  Uiso   1.00
O878   O     0.91362   0.04489   0.57645   0.00000  Uiso   1.00
O879   O     0.96492   0.10100   0.54182   0.00000  Uiso   1.00
O880   O     0.92703   0.11295   0.62623   0.00000  Uiso   1.00
O881   O     0.97978   0.13645   0.80042   0.00000  Uiso   1.00
O882   O     0.85727   0.02599   0.65880   0.00000  Uiso   1.00
O883   O     0.91142   0.04556   0.70162   0.00000  Uiso   1.00
O884   O     0.84597   0.08019   0.78214   0.00000  Uiso   1.00
O885   O     0.91234   0.30843   0.65330   0.00000  Uiso   1.00
O886   O     0.79003   0.32924   0.80252   0.00000  Uiso   1.00
O887   O     0.88587   0.03985   0.89605   0.00000  Uiso   1.00
O888   O     0.84029   0.01476   0.96762   0.00000  Uiso   1.00
O889   O     0.80408   0.02548   0.90489   0.00000  Uiso   1.00
O890   O     0.90698   0.06963   0.98626   0.00000  Uiso   1.00
O891   O     0.82852   0.20322   0.57409   0.00000  Uiso   1.00
O892   O     0.77786   0.25382   0.92123   0.00000  Uiso   1.00
O893   O     0.74563   0.21989   0.60474   0.00000  Uiso   1.00
O894   O     0.69338   0.17959   0.56798   0.00000  Uiso   1.00
O895   O     0.81298   0.26085   0.77013   0.00000  Uiso   1.00
O896   O     0.74675   0.13989   0.59025   0.00000  Uiso   1.00
O897   O     0.73492   0.24939   0.51566   0.00000  Uiso   1.00
O898   O     0.69016   0.19626   0.70174   0.00000  Uiso   1.00
O899   O     0.74078   0.13291   0.73413   0.00000  Uiso   1.00
O900   O     0.93360   0.19272   0.71360   0.00000  Uiso   1.00
O901   O     0.73738   0.18878   0.78213   0.00000  Uiso   1.00
O902   O     0.92158   0.15226   0.77014   0.00000  Uiso   1.00
O903   O     0.80426   0.06944   0.73413   0.00000  Uiso   1.00
O904   O     0.87012   0.25620   0.71360   0.00000  Uiso   1.00
S905   S     0.92263   0.09116   0.57519   0.00000  Uiso   1.00
S906   S     0.88240   0.01005   0.68633   0.00000  Uiso   1.00
S907   S     0.84373   0.04220   0.93044   0.00000  Uiso   1.00
S908   S     0.73884   0.18375   0.57154   0.00000  Uiso   1.00
Zn909  Zn    0.86005   0.13994   0.78734   0.00000  Uiso   1.00
Zn910  Zn    0.80046   0.12458   0.71875   0.00000  Uiso   1.00
Zn911  Zn    0.87723   0.19775   0.70657   0.00000  Uiso   1.00
Zn912  Zn    0.79560   0.20439   0.78733   0.00000  Uiso   1.00
C913   C     0.05296   0.49297   0.76016   0.00000  Uiso   1.00
C914   C     0.17135   0.49697   0.55774   0.00000  Uiso   1.00
C915   C     0.21576   0.44276   0.55566   0.00000  Uiso   1.00
C916   C     0.28088   0.50696   0.73993   0.00000  Uiso   1.00
C917   C     0.13476   0.52072   0.92201   0.00000  Uiso   1.00
C918   C     0.32703   0.50890   0.73567   0.00000  Uiso   1.00
C919   C     0.00759   0.49026   0.76509   0.00000  Uiso   1.00
C920   C     0.17882   0.65537   0.73454   0.00000  Uiso   1.00
C921   C     0.15220   0.34558   0.76505   0.00000  Uiso   1.00
C922   C     0.15605   0.38946   0.76052   0.00000  Uiso   1.00
C923   C     0.17636   0.61121   0.73986   0.00000  Uiso   1.00
C924   C     0.09675   0.55548   0.99275   0.00000  Uiso   1.00
C925   C     0.18516   0.48183   0.62904   0.00000  Uiso   1.00
C926   C     0.14741   0.51698   0.87150   0.00000  Uiso   1.00
C927   C     0.21190   0.42897   0.51185   0.00000  Uiso   1.00
C928   C     0.19236   0.47458   0.57990   0.00000  Uiso   1.00
C929   C     0.11449   0.55515   0.94535   0.00000  Uiso   1.00
C930   C     0.10712   0.52660   0.51736   0.00000  Uiso   1.00
C931   C     0.13776   0.49959   0.99480   0.00000  Uiso   1.00
C932   C     0.14361   0.49114   0.94771   0.00000  Uiso   1.00
C933   C     0.16233   0.47992   0.51650   0.00000  Uiso   1.00
C934   C     0.18208   0.44464   0.99370   0.00000  Uiso   1.00
C935   C     0.17265   0.42774   0.95240   0.00000  Uiso   1.00
C936   C     0.15585   0.45225   0.92883   0.00000  Uiso   1.00
H937   H     0.15008   0.43936   0.89680   0.00000  Uiso   1.00
H938   H     0.06240   0.47308   0.62186   0.00000  Uiso   1.00
H939   H     0.05379   0.59134   0.99427   0.00000  Uiso   1.00
H940   H     0.00845   0.54089   0.68261   0.00000  Uiso   1.00
H941   H     0.23660   0.43175   0.64836   0.00000  Uiso   1.00
H942   H     0.33013   0.45867   0.81775   0.00000  Uiso   1.00
H943   H     0.27004   0.64175   0.66679   0.00000  Uiso   1.00
H944   H     0.10730   0.35160   0.82060   0.00000  Uiso   1.00
H945   H     0.14661   0.33388   0.88539   0.00000  Uiso   1.00
H946   H     0.25079   0.41338   0.95576   0.00000  Uiso   1.00
H947   H     0.17686   0.54741   0.59780   0.00000  Uiso   1.00
H948   H     0.10856   0.61279   0.94173   0.00000  Uiso   1.00
O949   O     0.16667   0.50000   0.75000   0.00000  Uiso   1.00
O950   O     0.15451   0.45970   0.65458   0.00000  Uiso   1.00
O951   O     0.12940   0.53724   0.84968   0.00000  Uiso   1.00
O952   O     0.20824   0.51092   0.64606   0.00000  Uiso   1.00
O953   O     0.17451   0.49213   0.84968   0.00000  Uiso   1.00
O954   O     0.24695   0.37822   0.57645   0.00000  Uiso   1.00
O955   O     0.29825   0.43433   0.54182   0.00000  Uiso   1.00
O956   O     0.26036   0.44628   0.62623   0.00000  Uiso   1.00
O957   O     0.31312   0.46978   0.80042   0.00000  Uiso   1.00
O958   O     0.19061   0.35932   0.65880   0.00000  Uiso   1.00
O959   O     0.24476   0.37889   0.70162   0.00000  Uiso   1.00
O960   O     0.17930   0.41352   0.78214   0.00000  Uiso   1.00
O961   O     0.24567   0.64177   0.65330   0.00000  Uiso   1.00
O962   O     0.12336   0.66257   0.80252   0.00000  Uiso   1.00
O963   O     0.21920   0.37318   0.89605   0.00000  Uiso   1.00
O964   O     0.17362   0.34810   0.96762   0.00000  Uiso   1.00
O965   O     0.13742   0.35881   0.90489   0.00000  Uiso   1.00
O966   O     0.24032   0.40296   0.98626   0.00000  Uiso   1.00
O967   O     0.16185   0.53655   0.57409   0.00000  Uiso   1.00
O968   O     0.11119   0.58715   0.92123   0.00000  Uiso   1.00
O969   O     0.07896   0.55322   0.60474   0.00000  Uiso   1.00
O970   O     0.02671   0.51292   0.56798   0.00000  Uiso   1.00
O971   O     0.14632   0.59418   0.77013   0.00000  Uiso   1.00
O972   O     0.08009   0.47323   0.59025   0.00000  Uiso   1.00
O973   O     0.06826   0.58272   0.51566   0.00000  Uiso   1.00
O974   O     0.02349   0.52959   0.70174   0.00000  Uiso   1.00
O975   O     0.07412   0.46625   0.73413   0.00000  Uiso   1.00
O976   O     0.26693   0.52605   0.71360   0.00000  Uiso   1.00
O977   O     0.07071   0.52211   0.78213   0.00000  Uiso   1.00
O978   O     0.25491   0.48559   0.77014   0.00000  Uiso   1.00
O979   O     0.13760   0.40277   0.73413   0.00000  Uiso   1.00
O980   O     0.20345   0.58953   0.71360   0.00000  Uiso   1.00
S981   S     0.25596   0.42449   0.57519   0.00000  Uiso   1.00
S982   S     0.21573   0.34338   0.68633   0.00000  Uiso   1.00
S983   S     0.17706   0.37553   0.93044   0.00000  Uiso   1.00
S984   S     0.07217   0.51708   0.57154   0.00000  Uiso   1.00
Zn985  Zn    0.19338   0.47327   0.78734   0.00000  Uiso   1.00
Zn986  Zn    0.13379   0.45791   0.71875   0.00000  Uiso   1.00
Zn987  Zn    0.21056   0.53109   0.70657   0.00000  Uiso   1.00
Zn988  Zn    0.12893   0.53773   0.78733   0.00000  Uiso   1.00
C989   C     0.38630   0.49297   0.76016   0.00000  Uiso   1.00
C990   C     0.50468   0.49697   0.55774   0.00000  Uiso   1.00
C991   C     0.54909   0.44276   0.55566   0.00000  Uiso   1.00
C992   C     0.61421   0.50696   0.73993   0.00000  Uiso   1.00
C993   C     0.46809   0.52072   0.92201   0.00000  Uiso   1.00
C994   C     0.66036   0.50890   0.73567   0.00000  Uiso   1.00
C995   C     0.34092   0.49026   0.76509   0.00000  Uiso   1.00
C996   C     0.51215   0.65537   0.73454   0.00000  Uiso   1.00
C997   C     0.48554   0.34558   0.76505   0.00000  Uiso   1.00
C998   C     0.48939   0.38946   0.76052   0.00000  Uiso   1.00
C999   C     0.50969   0.61121   0.73986   0.00000  Uiso   1.00
C1000  C     0.43009   0.55548   0.99275   0.00000  Uiso   1.00
C1001  C     0.51849   0.48183   0.62904   0.00000  Uiso   1.00
C1002  C     0.48074   0.51698   0.87150   0.00000  Uiso   1.00
C1003  C     0.54523   0.42897   0.51185   0.00000  Uiso   1.00
C1004  C     0.52570   0.47458   0.57990   0.00000  Uiso   1.00
C1005  C     0.44783   0.55515   0.94535   0.00000  Uiso   1.00
C1006  C     0.44045   0.52660   0.51736   0.00000  Uiso   1.00
C1007  C     0.47109   0.49959   0.99480   0.00000  Uiso   1.00
C1008  C     0.47695   0.49114   0.94771   0.00000  Uiso   1.00
C1009  C     0.49566   0.47992   0.51650   0.00000  Uiso   1.00
C1010  C     0.51542   0.44464   0.99370   0.00000  Uiso   1.00
C1011  C     0.50599   0.42774   0.95240   0.00000  Uiso   1.00
C1012  C     0.48918   0.45225   0.92883   0.00000  Uiso   1.00
H1013  H     0.48342   0.43936   0.89680   0.00000  Uiso   1.00
H1014  H     0.39573   0.47308   0.62186   0.00000  Uiso   1.00
H1015  H     0.38712   0.59134   0.99427   0.00000  Uiso   1.00
H1016  H     0.34179   0.54089   0.68261   0.00000  Uiso   1.00
H1017  H     0.56994   0.43175   0.64836   0.00000  Uiso   1.00
H1018  H     0.66346   0.45867   0.81775   0.00000  Uiso   1.00
H1019  H     0.60338   0.64175   0.66679   0.00000  Uiso   1.00
H1020  H     0.44064   0.35160   0.82060   0.00000  Uiso   1.00
H1021  H     0.47995   0.33388   0.88539   0.00000  Uiso   1.00
H1022  H     0.58413   0.41338   0.95576   0.00000  Uiso   1.00
H1023  H     0.51019   0.54741   0.59780   0.00000  Uiso   1.00
H1024  H     0.44189   0.61279   0.94173   0.00000  Uiso   1.00
O1025  O     0.50000   0.50000   0.75000   0.00000  Uiso   1.00
O1026  O     0.48784   0.45970   0.65458   0.00000  Uiso   1.00
O1027  O     0.46274   0.53724   0.84968   0.00000  Uiso   1.00
O1028  O     0.54157   0.51092   0.64606   0.00000  Uiso   1.00
O1029  O     0.50785   0.49213   0.84968   0.00000  Uiso   1.00
O1030  O     0.58028   0.37822   0.57645   0.00000  Uiso   1.00
O1031  O     0.63158   0.43433   0.54182   0.00000  Uiso   1.00
O1032  O     0.59369   0.44628   0.62623   0.00000  Uiso   1.00
O1033  O     0.64645   0.46978   0.80042   0.00000  Uiso   1.00
O1034  O     0.52394   0.35932   0.65880   0.00000  Uiso   1.00
O1035  O     0.57809   0.37889   0.70162   0.00000  Uiso   1.00
O1036  O     0.51264   0.41352   0.78214   0.00000  Uiso   1.00
O1037  O     0.57900   0.64177   0.65330   0.00000  Uiso   1.00
O1038  O     0.45670   0.66257   0.80252   0.00000  Uiso   1.00
O1039  O     0.55254   0.37318   0.89605   0.00000  Uiso   1.00
O1040  O     0.50695   0.34810   0.96762   0.00000  Uiso   1.00
O1041  O     0.47075   0.35881   0.90489   0.00000  Uiso   1.00
O1042  O     0.57365   0.40296   0.98626   0.00000  Uiso   1.00
O1043  O     0.49519   0.53655   0.57409   0.00000  Uiso   1.00
O1044  O     0.44452   0.58715   0.92123   0.00000  Uiso   1.00
O1045  O     0.41230   0.55322   0.60474   0.00000  Uiso   1.00
O1046  O     0.36004   0.51292   0.56798   0.00000  Uiso   1.00
O1047  O     0.47965   0.59418   0.77013   0.00000  Uiso   1.00
O1048  O     0.41342   0.47323   0.59025   0.00000  Uiso   1.00
O1049  O     0.40159   0.58272   0.51566   0.00000  Uiso   1.00
O1050  O     0.35683   0.52959   0.70174   0.00000  Uiso   1.00
O1051  O     0.40745   0.46625   0.73413   0.00000  Uiso   1.00
O1052  O     0.60026   0.52605   0.71360   0.00000  Uiso   1.00
O1053  O     0.40405   0.52211   0.78213   0.00000  Uiso   1.00
O1054  O     0.58824   0.48559   0.77014   0.00000  Uiso   1.00
O1055  O     0.47093   0.40277   0.73413   0.00000  Uiso   1.00
O1056  O     0.53678   0.58953   0.71360   0.00000  Uiso   1.00
S1057  S     0.58929   0.42449   0.57519   0.00000  Uiso   1.00
S1058  S     0.54907   0.34338   0.68633   0.00000  Uiso   1.00
S1059  S     0.51039   0.37553   0.93044   0.00000  Uiso   1.00
S1060  S     0.40550   0.51708   0.57154   0.00000  Uiso   1.00
Zn1061 Zn    0.52672   0.47327   0.78734   0.00000  Uiso   1.00
Zn1062 Zn    0.46713   0.45791   0.71875   0.00000  Uiso   1.00
Zn1063 Zn    0.54389   0.53109   0.70657   0.00000  Uiso   1.00
Zn1064 Zn    0.46226   0.53773   0.78733   0.00000  Uiso   1.00
C1065  C     0.71963   0.49297   0.76016   0.00000  Uiso   1.00
C1066  C     0.83801   0.49697   0.55774   0.00000  Uiso   1.00
C1067  C     0.88242   0.44276   0.55566   0.00000  Uiso   1.00
C1068  C     0.94754   0.50696   0.73993   0.00000  Uiso   1.00
C1069  C     0.80143   0.52072   0.92201   0.00000  Uiso   1.00
C1070  C     0.99369   0.50890   0.73567   0.00000  Uiso   1.00
C1071  C     0.67426   0.49026   0.76509   0.00000  Uiso   1.00
C1072  C     0.84548   0.65537   0.73454   0.00000  Uiso   1.00
C1073  C     0.81887   0.34558   0.76505   0.00000  Uiso   1.00
C1074  C     0.82272   0.38946   0.76052   0.00000  Uiso   1.00
C1075  C     0.84303   0.61121   0.73986   0.00000  Uiso   1.00
C1076  C     0.76342   0.55548   0.99275   0.00000  Uiso   1.00
C1077  C     0.85183   0.48183   0.62904   0.00000  Uiso   1.00
C1078  C     0.81407   0.51698   0.87150   0.00000  Uiso   1.00
C1079  C     0.87856   0.42897   0.51185   0.00000  Uiso   1.00
C1080  C     0.85903   0.47458   0.57990   0.00000  Uiso   1.00
C1081  C     0.78116   0.55515   0.94535   0.00000  Uiso   1.00
C1082  C     0.77379   0.52660   0.51736   0.00000  Uiso   1.00
C1083  C     0.80443   0.49959   0.99480   0.00000  Uiso   1.00
C1084  C     0.81028   0.49114   0.94771   0.00000  Uiso   1.00
C1085  C     0.82899   0.47992   0.51650   0.00000  Uiso   1.00
C1086  C     0.84875   0.44464   0.99370   0.00000  Uiso   1.00
C1087  C     0.83932   0.42774   0.95240   0.00000  Uiso   1.00
C1088  C     0.82251   0.45225   0.92883   0.00000  Uiso   1.00
H1089  H     0.81675   0.43936   0.89680   0.00000  Uiso   1.00
H1090  H     0.72907   0.47308   0.62186   0.00000  Uiso   1.00
H1091  H     0.72045   0.59134   0.99427   0.00000  Uiso   1.00
H1092  H     0.67512   0.54089   0.68261   0.00000  Uiso   1.00
H1093  H     0.90327   0.43175   0.64836   0.00000  Uiso   1.00
H1094  H     0.99680   0.45867   0.81775   0.00000  Uiso   1.00
H1095  H     0.93671   0.64175   0.66679   0.00000  Uiso   1.00
H1096  H     0.77397   0.35160   0.82060   0.00000  Uiso   1.00
H1097  H     0.81328   0.33388   0.88539   0.00000  Uiso   1.00
H1098  H     0.91746   0.41338   0.95576   0.00000  Uiso   1.00
H1099  H     0.84353   0.54741   0.59780   0.00000  Uiso   1.00
H1100  H     0.77523   0.61279   0.94173   0.00000  Uiso   1.00
O1101  O     0.83333   0.50000   0.75000   0.00000  Uiso   1.00
O1102  O     0.82118   0.45970   0.65458   0.00000  Uiso   1.00
O1103  O     0.79607   0.53724   0.84968   0.00000  Uiso   1.00
O1104  O     0.87491   0.51092   0.64606   0.00000  Uiso   1.00
O1105  O     0.84118   0.49213   0.84968   0.00000  Uiso   1.00
O1106  O     0.91362   0.37822   0.57645   0.00000  Uiso   1.00
O1107  O     0.96492   0.43433   0.54182   0.00000  Uiso   1.00
O1108  O     0.92703   0.44628   0.62623   0.00000  Uiso   1.00
O1109  O     0.97978   0.46978   0.80042   0.00000  Uiso   1.00
O1110  O     0.85727   0.35932   0.65880   0.00000  Uiso   1.00
O1111  O     0.91142   0.37889   0.70162   0.00000  Uiso   1.00
O1112  O     0.84597   0.41352   0.78214   0.00000  Uiso   1.00
O1113  O     0.91234   0.64177   0.65330   0.00000  Uiso   1.00
O1114  O     0.79003   0.66257   0.80252   0.00000  Uiso   1.00
O1115  O     0.88587   0.37318   0.89605   0.00000  Uiso   1.00
O1116  O     0.84029   0.34810   0.96762   0.00000  Uiso   1.00
O1117  O     0.80408   0.35881   0.90489   0.00000  Uiso   1.00
O1118  O     0.90698   0.40296   0.98626   0.00000  Uiso   1.00
O1119  O     0.82852   0.53655   0.57409   0.00000  Uiso   1.00
O1120  O     0.77786   0.58715   0.92123   0.00000  Uiso   1.00
O1121  O     0.74563   0.55322   0.60474   0.00000  Uiso   1.00
O1122  O     0.69338   0.51292   0.56798   0.00000  Uiso   1.00
O1123  O     0.81298   0.59418   0.77013   0.00000  Uiso   1.00
O1124  O     0.74675   0.47323   0.59025   0.00000  Uiso   1.00
O1125  O     0.73492   0.58272   0.51566   0.00000  Uiso   1.00
O1126  O     0.69016   0.52959   0.70174   0.00000  Uiso   1.00
O1127  O     0.74078   0.46625   0.73413   0.00000  Uiso   1.00
O1128  O     0.93360   0.52605   0.71360   0.00000  Uiso   1.00
O1129  O     0.73738   0.52211   0.78213   0.00000  Uiso   1.00
O1130  O     0.92158   0.48559   0.77014   0.00000  Uiso   1.00
O1131  O     0.80426   0.40277   0.73413   0.00000  Uiso   1.00
O1132  O     0.87012   0.58953   0.71360   0.00000  Uiso   1.00
S1133  S     0.92263   0.42449   0.57519   0.00000  Uiso   1.00
S1134  S     0.88240   0.34338   0.68633   0.00000  Uiso   1.00
S1135  S     0.84373   0.37553   0.93044   0.00000  Uiso   1.00
S1136  S     0.73884   0.51708   0.57154   0.00000  Uiso   1.00
Zn1137 Zn    0.86005   0.47327   0.78734   0.00000  Uiso   1.00
Zn1138 Zn    0.80046   0.45791   0.71875   0.00000  Uiso   1.00
Zn1139 Zn    0.87723   0.53109   0.70657   0.00000  Uiso   1.00
Zn1140 Zn    0.79560   0.53773   0.78733   0.00000  Uiso   1.00
C1141  C     0.05296   0.82630   0.76016   0.00000  Uiso   1.00
C1142  C     0.17135   0.83030   0.55774   0.00000  Uiso   1.00
C1143  C     0.21576   0.77609   0.55566   0.00000  Uiso   1.00
C1144  C     0.28088   0.84029   0.73993   0.00000  Uiso   1.00
C1145  C     0.13476   0.85405   0.92201   0.00000  Uiso   1.00
C1146  C     0.32703   0.84223   0.73567   0.00000  Uiso   1.00
C1147  C     0.00759   0.82359   0.76509   0.00000  Uiso   1.00
C1148  C     0.17882   0.98870   0.73454   0.00000  Uiso   1.00
C1149  C     0.15220   0.67891   0.76505   0.00000  Uiso   1.00
C1150  C     0.15605   0.72280   0.76052   0.00000  Uiso   1.00
C1151  C     0.17636   0.94455   0.73986   0.00000  Uiso   1.00
C1152  C     0.09675   0.88882   0.99275   0.00000  Uiso   1.00
C1153  C     0.18516   0.81517   0.62904   0.00000  Uiso   1.00
C1154  C     0.14741   0.85031   0.87150   0.00000  Uiso   1.00
C1155  C     0.21190   0.76230   0.51185   0.00000  Uiso   1.00
C1156  C     0.19236   0.80791   0.57990   0.00000  Uiso   1.00
C1157  C     0.11449   0.88848   0.94535   0.00000  Uiso   1.00
C1158  C     0.10712   0.85994   0.51736   0.00000  Uiso   1.00
C1159  C     0.13776   0.83293   0.99480   0.00000  Uiso   1.00
C1160  C     0.14361   0.82447   0.94771   0.00000  Uiso   1.00
C1161  C     0.16233   0.81325   0.51650   0.00000  Uiso   1.00
C1162  C     0.18208   0.77797   0.99370   0.00000  Uiso   1.00
C1163  C     0.17265   0.76107   0.95240   0.00000  Uiso   1.00
C1164  C     0.15585   0.78558   0.92883   0.00000  Uiso   1.00
H1165  H     0.15008   0.77269   0.89680   0.00000  Uiso   1.00
H1166  H     0.06240   0.80641   0.62186   0.00000  Uiso   1.00
H1167  H     0.05379   0.92467   0.99427   0.00000  Uiso   1.00
H1168  H     0.00845   0.87422   0.68261   0.00000  Uiso   1.00
H1169  H     0.23660   0.76508   0.64836   0.00000  Uiso   1.00
H1170  H     0.33013   0.79200   0.81775   0.00000  Uiso   1.00
H1171  H     0.27004   0.97508   0.66679   0.00000  Uiso   1.00
H1172  H     0.10730   0.68494   0.82060   0.00000  Uiso   1.00
H1173  H     0.14661   0.66721   0.88539   0.00000  Uiso   1.00
H1174  H     0.25079   0.74671   0.95576   0.00000  Uiso   1.00
H1175  H     0.17686   0.88074   0.59780   0.00000  Uiso   1.00
H1176  H     0.10856   0.94612   0.94173   0.00000  Uiso   1.00
O1177  O     0.16667   0.83333   0.75000   0.00000  Uiso   1.00
O1178  O     0.15451   0.79304   0.65458   0.00000  Uiso   1.00
O1179  O     0.12940   0.87058   0.84968   0.00000  Uiso   1.00
O1180  O     0.20824   0.84425   0.64606   0.00000  Uiso   1.00
O1181  O     0.17451   0.82546   0.84968   0.00000  Uiso   1.00
O1182  O     0.24695   0.71155   0.57645   0.00000  Uiso   1.00
O1183  O     0.29825   0.76767   0.54182   0.00000  Uiso   1.00
O1184  O     0.26036   0.77961   0.62623   0.00000  Uiso   1.00
O1185  O     0.31312   0.80312   0.80042   0.00000  Uiso   1.00
O1186  O     0.19061   0.69265   0.65880   0.00000  Uiso   1.00
O1187  O     0.24476   0.71222   0.70162   0.00000  Uiso   1.00
O1188  O     0.17930   0.74686   0.78214   0.00000  Uiso   1.00
O1189  O     0.24567   0.97510   0.65330   0.00000  Uiso   1.00
O1190  O     0.12336   0.99591   0.80252   0.00000  Uiso   1.00
O1191  O     0.21920   0.70651   0.89605   0.00000  Uiso   1.00
O1192  O     0.17362   0.68143   0.96762   0.00000  Uiso   1.00
O1193  O     0.13742   0.69215   0.90489   0.00000  Uiso   1.00
O1194  O     0.24032   0.73629   0.98626   0.00000  Uiso   1.00
O1195  O     0.16185   0.86988   0.57409   0.00000  Uiso   1.00
O1196  O     0.11119   0.92048   0.92123   0.00000  Uiso   1.00
O1197  O     0.07896   0.88656   0.60474   0.00000  Uiso   1.00
O1198  O     0.02671   0.84626   0.56798   0.00000  Uiso   1.00
O1199  O     0.14632   0.92751   0.77013   0.00000  Uiso   1.00
O1200  O     0.08009   0.80656   0.59025   0.00000  Uiso   1.00
O1201  O     0.06826   0.91606   0.51566   0.00000  Uiso   1.00
O1202  O     0.02349   0.86292   0.70174   0.00000  Uiso   1.00
O1203  O     0.07412   0.79958   0.73413   0.00000  Uiso   1.00
O1204  O     0.26693   0.85939   0.71360   0.00000  Uiso   1.00
O1205  O     0.07071   0.85544   0.78213   0.00000  Uiso   1.00
O1206  O     0.25491   0.81892   0.77014   0.00000  Uiso   1.00
O1207  O     0.13760   0.73610   0.73413   0.00000  Uiso   1.00
O1208  O     0.20345   0.92286   0.71360   0.00000  Uiso   1.00
S1209  S     0.25596   0.75782   0.57519   0.00000  Uiso   1.00
S1210  S     0.21573   0.67671   0.68633   0.00000  Uiso   1.00
S1211  S     0.17706   0.70886   0.93044   0.00000  Uiso   1.00
S1212  S     0.07217   0.85041   0.57154   0.00000  Uiso   1.00
Zn1213 Zn    0.19338   0.80661   0.78734   0.00000  Uiso   1.00
Zn1214 Zn    0.13379   0.79124   0.71875   0.00000  Uiso   1.00
Zn1215 Zn    0.21056   0.86442   0.70657   0.00000  Uiso   1.00
Zn1216 Zn    0.12893   0.87106   0.78733   0.00000  Uiso   1.00
C1217  C     0.38630   0.82630   0.76016   0.00000  Uiso   1.00
C1218  C     0.50468   0.83030   0.55774   0.00000  Uiso   1.00
C1219  C     0.54909   0.77609   0.55566   0.00000  Uiso   1.00
C1220  C     0.61421   0.84029   0.73993   0.00000  Uiso   1.00
C1221  C     0.46809   0.85405   0.92201   0.00000  Uiso   1.00
C1222  C     0.66036   0.84223   0.73567   0.00000  Uiso   1.00
C1223  C     0.34092   0.82359   0.76509   0.00000  Uiso   1.00
C1224  C     0.51215   0.98870   0.73454   0.00000  Uiso   1.00
C1225  C     0.48554   0.67891   0.76505   0.00000  Uiso   1.00
C1226  C     0.48939   0.72280   0.76052   0.00000  Uiso   1.00
C1227  C     0.50969   0.94455   0.73986   0.00000  Uiso   1.00
C1228  C     0.43009   0.88882   0.99275   0.00000  Uiso   1.00
C1229  C     0.51849   0.81517   0.62904   0.00000  Uiso   1.00
C1230  C     0.48074   0.85031   0.87150   0.00000  Uiso   1.00
C1231  C     0.54523   0.76230   0.51185   0.00000  Uiso   1.00
C1232  C     0.52570   0.80791   0.57990   0.00000  Uiso   1.00
C1233  C     0.44783   0.88848   0.94535   0.00000  Uiso   1.00
C1234  C     0.44045   0.85994   0.51736   0.00000  Uiso   1.00
C1235  C     0.47109   0.83293   0.99480   0.00000  Uiso   1.00
C1236  C     0.47695   0.82447   0.94771   0.00000  Uiso   1.00
C1237  C     0.49566   0.81325   0.51650   0.00000  Uiso   1.00
C1238  C     0.51542   0.77797   0.99370   0.00000  Uiso   1.00
C1239  C     0.50599   0.76107   0.95240   0.00000  Uiso   1.00
C1240  C     0.48918   0.78558   0.92883   0.00000  Uiso   1.00
H1241  H     0.48342   0.77269   0.89680   0.00000  Uiso   1.00
H1242  H     0.39573   0.80641   0.62186   0.00000  Uiso   1.00
H1243  H     0.38712   0.92467   0.99427   0.00000  Uiso   1.00
H1244  H     0.34179   0.87422   0.68261   0.00000  Uiso   1.00
H1245  H     0.56994   0.76508   0.64836   0.00000  Uiso   1.00
H1246  H     0.66346   0.79200   0.81775   0.00000  Uiso   1.00
H1247  H     0.60338   0.97508   0.66679   0.00000  Uiso   1.00
H1248  H     0.44064   0.68494   0.82060   0.00000  Uiso   1.00
H1249  H     0.47995   0.66721   0.88539   0.00000  Uiso   1.00
H1250  H     0.58413   0.74671   0.95576   0.00000  Uiso   1.00
H1251  H     0.51019   0.88074   0.59780   0.00000  Uiso   1.00
H1252  H     0.44189   0.94612   0.94173   0.00000  Uiso   1.00
O1253  O     0.50000   0.83333   0.75000   0.00000  Uiso   1.00
O1254  O     0.48784   0.79304   0.65458   0.00000  Uiso   1.00
O1255  O     0.46274   0.87058   0.84968   0.00000  Uiso   1.00
O1256  O     0.54157   0.84425   0.64606   0.00000  Uiso   1.00
O1257  O     0.50785   0.82546   0.84968   0.00000  Uiso   1.00
O1258  O     0.58028   0.71155   0.57645   0.00000  Uiso   1.00
O1259  O     0.63158   0.76767   0.54182   0.00000  Uiso   1.00
O1260  O     0.59369   0.77961   0.62623   0.00000  Uiso   1.00
O1261  O     0.64645   0.80312   0.80042   0.00000  Uiso   1.00
O1262  O     0.52394   0.69265   0.65880   0.00000  Uiso   1.00
O1263  O     0.57809   0.71222   0.70162   0.00000  Uiso   1.00
O1264  O     0.51264   0.74686   0.78214   0.00000  Uiso   1.00
O1265  O     0.57900   0.97510   0.65330   0.00000  Uiso   1.00
O1266  O     0.45670   0.99591   0.80252   0.00000  Uiso   1.00
O1267  O     0.55254   0.70651   0.89605   0.00000  Uiso   1.00
O1268  O     0.50695   0.68143   0.96762   0.00000  Uiso   1.00
O1269  O     0.47075   0.69215   0.90489   0.00000  Uiso   1.00
O1270  O     0.57365   0.73629   0.98626   0.00000  Uiso   1.00
O1271  O     0.49519   0.86988   0.57409   0.00000  Uiso   1.00
O1272  O     0.44452   0.92048   0.92123   0.00000  Uiso   1.00
O1273  O     0.41230   0.88656   0.60474   0.00000  Uiso   1.00
O1274  O     0.36004   0.84626   0.56798   0.00000  Uiso   1.00
O1275  O     0.47965   0.92751   0.77013   0.00000  Uiso   1.00
O1276  O     0.41342   0.80656   0.59025   0.00000  Uiso   1.00
O1277  O     0.40159   0.91606   0.51566   0.00000  Uiso   1.00
O1278  O     0.35683   0.86292   0.70174   0.00000  Uiso   1.00
O1279  O     0.40745   0.79958   0.73413   0.00000  Uiso   1.00
O1280  O     0.60026   0.85939   0.71360   0.00000  Uiso   1.00
O1281  O     0.40405   0.85544   0.78213   0.00000  Uiso   1.00
O1282  O     0.58824   0.81892   0.77014   0.00000  Uiso   1.00
O1283  O     0.47093   0.73610   0.73413   0.00000  Uiso   1.00
O1284  O     0.53678   0.92286   0.71360   0.00000  Uiso   1.00
S1285  S     0.58929   0.75782   0.57519   0.00000  Uiso   1.00
S1286  S     0.54907   0.67671   0.68633   0.00000  Uiso   1.00
S1287  S     0.51039   0.70886   0.93044   0.00000  Uiso   1.00
S1288  S     0.40550   0.85041   0.57154   0.00000  Uiso   1.00
Zn1289 Zn    0.52672   0.80661   0.78734   0.00000  Uiso   1.00
Zn1290 Zn    0.46713   0.79124   0.71875   0.00000  Uiso   1.00
Zn1291 Zn    0.54389   0.86442   0.70657   0.00000  Uiso   1.00
Zn1292 Zn    0.46226   0.87106   0.78733   0.00000  Uiso   1.00
C1293  C     0.71963   0.82630   0.76016   0.00000  Uiso   1.00
C1294  C     0.83801   0.83030   0.55774   0.00000  Uiso   1.00
C1295  C     0.88242   0.77609   0.55566   0.00000  Uiso   1.00
C1296  C     0.94754   0.84029   0.73993   0.00000  Uiso   1.00
C1297  C     0.80143   0.85405   0.92201   0.00000  Uiso   1.00
C1298  C     0.99369   0.84223   0.73567   0.00000  Uiso   1.00
C1299  C     0.67426   0.82359   0.76509   0.00000  Uiso   1.00
C1300  C     0.84548   0.98870   0.73454   0.00000  Uiso   1.00
C1301  C     0.81887   0.67891   0.76505   0.00000  Uiso   1.00
C1302  C     0.82272   0.72280   0.76052   0.00000  Uiso   1.00
C1303  C     0.84303   0.94455   0.73986   0.00000  Uiso   1.00
C1304  C     0.76342   0.88882   0.99275   0.00000  Uiso   1.00
C1305  C     0.85183   0.81517   0.62904   0.00000  Uiso   1.00
C1306  C     0.81407   0.85031   0.87150   0.00000  Uiso   1.00
C1307  C     0.87856   0.76230   0.51185   0.00000  Uiso   1.00
C1308  C     0.85903   0.80791   0.57990   0.00000  Uiso   1.00
C1309  C     0.78116   0.88848   0.94535   0.00000  Uiso   1.00
C1310  C     0.77379   0.85994   0.51736   0.00000  Uiso   1.00
C1311  C     0.80443   0.83293   0.99480   0.00000  Uiso   1.00
C1312  C     0.81028   0.82447   0.94771   0.00000  Uiso   1.00
C1313  C     0.82899   0.81325   0.51650   0.00000  Uiso   1.00
C1314  C     0.84875   0.77797   0.99370   0.00000  Uiso   1.00
C1315  C     0.83932   0.76107   0.95240   0.00000  Uiso   1.00
C1316  C     0.82251   0.78558   0.92883   0.00000  Uiso   1.00
H1317  H     0.81675   0.77269   0.89680   0.00000  Uiso   1.00
H1318  H     0.72907   0.80641   0.62186   0.00000  Uiso   1.00
H1319  H     0.72045   0.92467   0.99427   0.00000  Uiso   1.00
H1320  H     0.67512   0.87422   0.68261   0.00000  Uiso   1.00
H1321  H     0.90327   0.76508   0.64836   0.00000  Uiso   1.00
H1322  H     0.99680   0.79200   0.81775   0.00000  Uiso   1.00
H1323  H     0.93671   0.97508   0.66679   0.00000  Uiso   1.00
H1324  H     0.77397   0.68494   0.82060   0.00000  Uiso   1.00
H1325  H     0.81328   0.66721   0.88539   0.00000  Uiso   1.00
H1326  H     0.91746   0.74671   0.95576   0.00000  Uiso   1.00
H1327  H     0.84353   0.88074   0.59780   0.00000  Uiso   1.00
H1328  H     0.77523   0.94612   0.94173   0.00000  Uiso   1.00
O1329  O     0.83333   0.83333   0.75000   0.00000  Uiso   1.00
O1330  O     0.82118   0.79304   0.65458   0.00000  Uiso   1.00
O1331  O     0.79607   0.87058   0.84968   0.00000  Uiso   1.00
O1332  O     0.87491   0.84425   0.64606   0.00000  Uiso   1.00
O1333  O     0.84118   0.82546   0.84968   0.00000  Uiso   1.00
O1334  O     0.91362   0.71155   0.57645   0.00000  Uiso   1.00
O1335  O     0.96492   0.76767   0.54182   0.00000  Uiso   1.00
O1336  O     0.92703   0.77961   0.62623   0.00000  Uiso   1.00
O1337  O     0.97978   0.80312   0.80042   0.00000  Uiso   1.00
O1338  O     0.85727   0.69265   0.65880   0.00000  Uiso   1.00
O1339  O     0.91142   0.71222   0.70162   0.00000  Uiso   1.00
O1340  O     0.84597   0.74686   0.78214   0.00000  Uiso   1.00
O1341  O     0.91234   0.97510   0.65330   0.00000  Uiso   1.00
O1342  O     0.79003   0.99591   0.80252   0.00000  Uiso   1.00
O1343  O     0.88587   0.70651   0.89605   0.00000  Uiso   1.00
O1344  O     0.84029   0.68143   0.96762   0.00000  Uiso   1.00
O1345  O     0.80408   0.69215   0.90489   0.00000  Uiso   1.00
O1346  O     0.90698   0.73629   0.98626   0.00000  Uiso   1.00
O1347  O     0.82852   0.86988   0.57409   0.00000  Uiso   1.00
O1348  O     0.77786   0.92048   0.92123   0.00000  Uiso   1.00
O1349  O     0.74563   0.88656   0.60474   0.00000  Uiso   1.00
O1350  O     0.69338   0.84626   0.56798   0.00000  Uiso   1.00
O1351  O     0.81298   0.92751   0.77013   0.00000  Uiso   1.00
O1352  O     0.74675   0.80656   0.59025   0.00000  Uiso   1.00
O1353  O     0.73492   0.91606   0.51566   0.00000  Uiso   1.00
O1354  O     0.69016   0.86292   0.70174   0.00000  Uiso   1.00
O1355  O     0.74078   0.79958   0.73413   0.00000  Uiso   1.00
O1356  O     0.93360   0.85939   0.71360   0.00000  Uiso   1.00
O1357  O     0.73738   0.85544   0.78213   0.00000  Uiso   1.00
O1358  O     0.92158   0.81892   0.77014   0.00000  Uiso   1.00
O1359  O     0.80426   0.73610   0.73413   0.00000  Uiso   1.00
O1360  O     0.87012   0.92286   0.71360   0.00000  Uiso   1.00
S1361  S     0.92263   0.75782   0.57519   0.00000  Uiso   1.00
S1362  S     0.88240   0.67671   0.68633   0.00000  Uiso   1.00
S1363  S     0.84373   0.70886   0.93044   0.00000  Uiso   1.00
S1364  S     0.73884   0.85041   0.57154   0.00000  Uiso   1.00
Zn1365 Zn    0.86005   0.80661   0.78734   0.00000  Uiso   1.00
Zn1366 Zn    0.80046   0.79124   0.71875   0.00000  Uiso   1.00
Zn1367 Zn    0.87723   0.86442   0.70657   0.00000  Uiso   1.00
Zn1368 Zn    0.79560   0.87106   0.78733   0.00000  Uiso   1.00
loop_
_geom_bond_atom_site_label_1
_geom_bond_atom_site_label_2
_geom_bond_distance
_geom_bond_site_symmetry_2
_ccdc_geom_bond_type
C1     O65     1.266   .     A
C1     O63     1.268   .     A
C1     C7      1.440   .     S
C2     O55     1.383   .     S
C2     C16     1.407   .     A
C2     C21     1.413   .     A
C3     C15     1.404   .     A
C3     S69     1.781   .     S
C3     C16     1.407   .     A
C4     C6      1.471   .     S
C4     O64     1.283   .     A
C4     O66     1.276   .     A
C5     C20     1.421   .     A
C5     C17     1.416   .     A
C5     C14     1.493   .     S
C6     C83     1.349   .     S
C6     O138    1.387   .     S
C7     C158    1.349   1_455 S
C7     O197    1.385   1_455 S
C8     C11     1.460   .     S
C8     C237    1.353   .     S
C8     S298    1.783   .     S
C9     C10     1.442   .     S
C9     C464    1.353   1_545 S
C9     O506    1.385   1_545 S
C10    O67     1.276   .     A
C10    O48     1.270   .     A
C11    O59     1.270   .     A
C11    O68     1.270   .     A
C12    C17     1.418   .     A
C12    C702    1.404   .     S
C12    O745    1.382   .     S
C13    O40     1.279   .     A
C13    O38     1.282   .     A
C13    C16     1.464   .     S
C14    O39     1.288   .     A
C14    O41     1.291   .     A
C15    C706    1.422   1_554 S
C15    O738    1.377   1_554 S
C17    O56     1.382   .     S
C18    S72     1.784   .     S
C18    C696    1.404   1_554 S
C18    C703    1.420   1_554 S
C19    C20     1.410   .     A
C19    C702    1.420   .     S
C19    C705    1.427   .     S
C20    C24     1.405   .     A
C21    C703    1.427   1_554 S
C21    C706    1.427   1_554 S
C22    C23     1.418   .     A
C22    C705    1.427   .     S
C22    C699    1.422   .     S
C23    C24     1.393   .     A
C23    S71     1.776   .     S
C24    H25     1.079   .     S
H26    O60     0.991   .     S
H27    O745    0.990   .     S
H28    O62     0.990   .     S
H29    O44     0.988   .     S
H30    O45     0.992   .     S
H31    O49     0.991   .     S
H32    O506    0.993   1_545 S
H33    O53     0.990   .     S
H34    O54     0.990   .     S
H35    O55     0.989   .     S
H36    O56     0.991   .     S
O37    Zn74    1.946   .     S
O37    Zn75    1.934   .     S
O37    Zn76    1.933   .     S
O37    Zn73    1.956   .     S
O38    Zn74    1.914   .     S
O39    Zn76    1.923   .     S
O40    Zn75    1.920   .     S
O41    Zn73    1.911   .     S
O42    S69     1.502   .     D
O43    S69     1.503   .     D
O44    S69     1.682   .     S
O45    C83     1.385   .     S
O46    S70     1.502   .     D
O47    S70     1.504   .     D
O48    Zn73    1.940   .     S
O49    S298    1.683   .     S
O50    H260    0.993   .     S
O50    C237    1.385   .     S
O51    S71     1.503   .     D
O52    S71     1.503   .     D
O53    S71     1.682   .     S
O54    C699    1.377   .     S
O57    S72     1.503   .     D
O58    S72     1.503   .     D
O59    Zn76    1.941   .     S
O60    S72     1.682   .     S
O61    H711    0.990   1_554 S
O61    C696    1.382   1_554 S
O62    C158    1.387   1_455 S
O63    Zn74    1.933   .     S
O64    Zn75    1.942   .     S
O65    Zn76    1.940   .     S
O66    Zn73    1.931   .     S
O67    Zn74    1.945   .     S
O68    Zn75    1.941   .     S
S70    O505    1.683   1_545 S
S70    C464    1.783   1_545 S
C77    O141    1.266   .     A
C77    O139    1.268   .     A
C77    C83     1.440   .     S
C78    O131    1.383   .     S
C78    C92     1.407   .     A
C78    C97     1.413   .     A
C79    C91     1.404   .     A
C79    S145    1.781   .     S
C79    C92     1.407   .     A
C80    C82     1.471   .     S
C80    O140    1.283   .     A
C80    O142    1.276   .     A
C81    C96     1.421   .     A
C81    C93     1.416   .     A
C81    C90     1.493   .     S
C82    C159    1.349   .     S
C82    O214    1.387   .     S
C84    C87     1.460   .     S
C84    C313    1.353   .     S
C84    S374    1.783   .     S
C85    C86     1.442   .     S
C85    C540    1.353   1_545 S
C85    O582    1.385   1_545 S
C86    O143    1.276   .     A
C86    O124    1.270   .     A
C87    O135    1.270   .     A
C87    O144    1.270   .     A
C88    C93     1.418   .     A
C88    C778    1.404   .     S
C88    O821    1.382   .     S
C89    O116    1.279   .     A
C89    O114    1.282   .     A
C89    C92     1.464   .     S
C90    O115    1.288   .     A
C90    O117    1.291   .     A
C91    C782    1.422   1_554 S
C91    O814    1.377   1_554 S
C93    O132    1.382   .     S
C94    S148    1.784   .     S
C94    C772    1.404   1_554 S
C94    C779    1.420   1_554 S
C95    C96     1.410   .     A
C95    C778    1.420   .     S
C95    C781    1.427   .     S
C96    C100    1.405   .     A
C97    C779    1.427   1_554 S
C97    C782    1.427   1_554 S
C98    C99     1.418   .     A
C98    C781    1.427   .     S
C98    C775    1.422   .     S
C99    C100    1.393   .     A
C99    S147    1.776   .     S
C100   H101    1.079   .     S
H102   O136    0.991   .     S
H103   O821    0.990   .     S
H104   O138    0.990   .     S
H105   O120    0.988   .     S
H106   O121    0.992   .     S
H107   O125    0.991   .     S
H108   O582    0.993   1_545 S
H109   O129    0.990   .     S
H110   O130    0.990   .     S
H111   O131    0.989   .     S
H112   O132    0.991   .     S
O113   Zn150   1.946   .     S
O113   Zn151   1.934   .     S
O113   Zn152   1.933   .     S
O113   Zn149   1.956   .     S
O114   Zn150   1.914   .     S
O115   Zn152   1.923   .     S
O116   Zn151   1.920   .     S
O117   Zn149   1.911   .     S
O118   S145    1.502   .     D
O119   S145    1.503   .     D
O120   S145    1.682   .     S
O121   C159    1.385   .     S
O122   S146    1.502   .     D
O123   S146    1.504   .     D
O124   Zn149   1.940   .     S
O125   S374    1.683   .     S
O126   H336    0.993   .     S
O126   C313    1.385   .     S
O127   S147    1.503   .     D
O128   S147    1.503   .     D
O129   S147    1.682   .     S
O130   C775    1.377   .     S
O133   S148    1.503   .     D
O134   S148    1.503   .     D
O135   Zn152   1.941   .     S
O136   S148    1.682   .     S
O137   H787    0.990   1_554 S
O137   C772    1.382   1_554 S
O139   Zn150   1.933   .     S
O140   Zn151   1.942   .     S
O141   Zn152   1.940   .     S
O142   Zn149   1.931   .     S
O143   Zn150   1.945   .     S
O144   Zn151   1.941   .     S
S146   O581    1.683   1_545 S
S146   C540    1.783   1_545 S
C153   O217    1.266   .     A
C153   O215    1.268   .     A
C153   C159    1.440   .     S
C154   O207    1.383   .     S
C154   C168    1.407   .     A
C154   C173    1.413   .     A
C155   C167    1.404   .     A
C155   S221    1.781   .     S
C155   C168    1.407   .     A
C156   C158    1.471   .     S
C156   O216    1.283   .     A
C156   O218    1.276   .     A
C157   C172    1.421   .     A
C157   C169    1.416   .     A
C157   C166    1.493   .     S
C158   C7      1.349   1_655 S
C158   O62     1.387   1_655 S
C160   C163    1.460   .     S
C160   C389    1.353   .     S
C160   S450    1.783   .     S
C161   C162    1.442   .     S
C161   C616    1.353   1_545 S
C161   O658    1.385   1_545 S
C162   O219    1.276   .     A
C162   O200    1.270   .     A
C163   O211    1.270   .     A
C163   O220    1.270   .     A
C164   C169    1.418   .     A
C164   C854    1.404   .     S
C164   O897    1.382   .     S
C165   O192    1.279   .     A
C165   O190    1.282   .     A
C165   C168    1.464   .     S
C166   O191    1.288   .     A
C166   O193    1.291   .     A
C167   C858    1.422   1_554 S
C167   O890    1.377   1_554 S
C169   O208    1.382   .     S
C170   S224    1.784   .     S
C170   C848    1.404   1_554 S
C170   C855    1.420   1_554 S
C171   C172    1.410   .     A
C171   C854    1.420   .     S
C171   C857    1.427   .     S
C172   C176    1.405   .     A
C173   C855    1.427   1_554 S
C173   C858    1.427   1_554 S
C174   C175    1.418   .     A
C174   C857    1.427   .     S
C174   C851    1.422   .     S
C175   C176    1.393   .     A
C175   S223    1.776   .     S
C176   H177    1.079   .     S
H178   O212    0.991   .     S
H179   O897    0.990   .     S
H180   O214    0.990   .     S
H181   O196    0.988   .     S
H182   O197    0.992   .     S
H183   O201    0.991   .     S
H184   O658    0.993   1_545 S
H185   O205    0.990   .     S
H186   O206    0.990   .     S
H187   O207    0.989   .     S
H188   O208    0.991   .     S
O189   Zn226   1.946   .     S
O189   Zn227   1.934   .     S
O189   Zn228   1.933   .     S
O189   Zn225   1.956   .     S
O190   Zn226   1.914   .     S
O191   Zn228   1.923   .     S
O192   Zn227   1.920   .     S
O193   Zn225   1.911   .     S
O194   S221    1.502   .     D
O195   S221    1.503   .     D
O196   S221    1.682   .     S
O197   C7      1.385   1_655 S
O198   S222    1.502   .     D
O199   S222    1.504   .     D
O200   Zn225   1.940   .     S
O201   S450    1.683   .     S
O202   H412    0.993   .     S
O202   C389    1.385   .     S
O203   S223    1.503   .     D
O204   S223    1.503   .     D
O205   S223    1.682   .     S
O206   C851    1.377   .     S
O209   S224    1.503   .     D
O210   S224    1.503   .     D
O211   Zn228   1.941   .     S
O212   S224    1.682   .     S
O213   H863    0.990   1_554 S
O213   C848    1.382   1_554 S
O215   Zn226   1.933   .     S
O216   Zn227   1.942   .     S
O217   Zn228   1.940   .     S
O218   Zn225   1.931   .     S
O219   Zn226   1.945   .     S
O220   Zn227   1.941   .     S
S222   O657    1.683   1_545 S
S222   C616    1.783   1_545 S
C229   O293    1.266   .     A
C229   O291    1.268   .     A
C229   C235    1.440   .     S
C230   O283    1.383   .     S
C230   C244    1.407   .     A
C230   C249    1.413   .     A
C231   C243    1.404   .     A
C231   S297    1.781   .     S
C231   C244    1.407   .     A
C232   C234    1.471   .     S
C232   O292    1.283   .     A
C232   O294    1.276   .     A
C233   C248    1.421   .     A
C233   C245    1.416   .     A
C233   C242    1.493   .     S
C234   C311    1.349   .     S
C234   O366    1.387   .     S
C235   C386    1.349   1_455 S
C235   O425    1.385   1_455 S
C236   C239    1.460   .     S
C236   C465    1.353   .     S
C236   S526    1.783   .     S
C237   C238    1.442   .     S
C238   O295    1.276   .     A
C238   O276    1.270   .     A
C239   O287    1.270   .     A
C239   O296    1.270   .     A
C240   C245    1.418   .     A
C240   C930    1.404   .     S
C240   O973    1.382   .     S
C241   O268    1.279   .     A
C241   O266    1.282   .     A
C241   C244    1.464   .     S
C242   O267    1.288   .     A
C242   O269    1.291   .     A
C243   C934    1.422   1_554 S
C243   O966    1.377   1_554 S
C245   O284    1.382   .     S
C246   S300    1.784   .     S
C246   C924    1.404   1_554 S
C246   C931    1.420   1_554 S
C247   C248    1.410   .     A
C247   C930    1.420   .     S
C247   C933    1.427   .     S
C248   C252    1.405   .     A
C249   C931    1.427   1_554 S
C249   C934    1.427   1_554 S
C250   C251    1.418   .     A
C250   C933    1.427   .     S
C250   C927    1.422   .     S
C251   C252    1.393   .     A
C251   S299    1.776   .     S
C252   H253    1.079   .     S
H254   O288    0.991   .     S
H255   O973    0.990   .     S
H256   O290    0.990   .     S
H257   O272    0.988   .     S
H258   O273    0.992   .     S
H259   O277    0.991   .     S
H261   O281    0.990   .     S
H262   O282    0.990   .     S
H263   O283    0.989   .     S
H264   O284    0.991   .     S
O265   Zn302   1.946   .     S
O265   Zn303   1.934   .     S
O265   Zn304   1.933   .     S
O265   Zn301   1.956   .     S
O266   Zn302   1.914   .     S
O267   Zn304   1.923   .     S
O268   Zn303   1.920   .     S
O269   Zn301   1.911   .     S
O270   S297    1.502   .     D
O271   S297    1.503   .     D
O272   S297    1.682   .     S
O273   C311    1.385   .     S
O274   S298    1.502   .     D
O275   S298    1.504   .     D
O276   Zn301   1.940   .     S
O277   S526    1.683   .     S
O278   H488    0.993   .     S
O278   C465    1.385   .     S
O279   S299    1.503   .     D
O280   S299    1.503   .     D
O281   S299    1.682   .     S
O282   C927    1.377   .     S
O285   S300    1.503   .     D
O286   S300    1.503   .     D
O287   Zn304   1.941   .     S
O288   S300    1.682   .     S
O289   H939    0.990   1_554 S
O289   C924    1.382   1_554 S
O290   C386    1.387   1_455 S
O291   Zn302   1.933   .     S
O292   Zn303   1.942   .     S
O293   Zn304   1.940   .     S
O294   Zn301   1.931   .     S
O295   Zn302   1.945   .     S
O296   Zn303   1.941   .     S
C305   O369    1.266   .     A
C305   O367    1.268   .     A
C305   C311    1.440   .     S
C306   O359    1.383   .     S
C306   C320    1.407   .     A
C306   C325    1.413   .     A
C307   C319    1.404   .     A
C307   S373    1.781   .     S
C307   C320    1.407   .     A
C308   C310    1.471   .     S
C308   O368    1.283   .     A
C308   O370    1.276   .     A
C309   C324    1.421   .     A
C309   C321    1.416   .     A
C309   C318    1.493   .     S
C310   C387    1.349   .     S
C310   O442    1.387   .     S
C312   C315    1.460   .     S
C312   C541    1.353   .     S
C312   S602    1.783   .     S
C313   C314    1.442   .     S
C314   O371    1.276   .     A
C314   O352    1.270   .     A
C315   O363    1.270   .     A
C315   O372    1.270   .     A
C316   C321    1.418   .     A
C316   C1006   1.404   .     S
C316   O1049   1.382   .     S
C317   O344    1.279   .     A
C317   O342    1.282   .     A
C317   C320    1.464   .     S
C318   O343    1.288   .     A
C318   O345    1.291   .     A
C319   C1010   1.422   1_554 S
C319   O1042   1.377   1_554 S
C321   O360    1.382   .     S
C322   S376    1.784   .     S
C322   C1000   1.404   1_554 S
C322   C1007   1.420   1_554 S
C323   C324    1.410   .     A
C323   C1006   1.420   .     S
C323   C1009   1.427   .     S
C324   C328    1.405   .     A
C325   C1007   1.427   1_554 S
C325   C1010   1.427   1_554 S
C326   C327    1.418   .     A
C326   C1009   1.427   .     S
C326   C1003   1.422   .     S
C327   C328    1.393   .     A
C327   S375    1.776   .     S
C328   H329    1.079   .     S
H330   O364    0.991   .     S
H331   O1049   0.990   .     S
H332   O366    0.990   .     S
H333   O348    0.988   .     S
H334   O349    0.992   .     S
H335   O353    0.991   .     S
H337   O357    0.990   .     S
H338   O358    0.990   .     S
H339   O359    0.989   .     S
H340   O360    0.991   .     S
O341   Zn378   1.946   .     S
O341   Zn379   1.934   .     S
O341   Zn380   1.933   .     S
O341   Zn377   1.956   .     S
O342   Zn378   1.914   .     S
O343   Zn380   1.923   .     S
O344   Zn379   1.920   .     S
O345   Zn377   1.911   .     S
O346   S373    1.502   .     D
O347   S373    1.503   .     D
O348   S373    1.682   .     S
O349   C387    1.385   .     S
O350   S374    1.502   .     D
O351   S374    1.504   .     D
O352   Zn377   1.940   .     S
O353   S602    1.683   .     S
O354   H564    0.993   .     S
O354   C541    1.385   .     S
O355   S375    1.503   .     D
O356   S375    1.503   .     D
O357   S375    1.682   .     S
O358   C1003   1.377   .     S
O361   S376    1.503   .     D
O362   S376    1.503   .     D
O363   Zn380   1.941   .     S
O364   S376    1.682   .     S
O365   H1015   0.990   1_554 S
O365   C1000   1.382   1_554 S
O367   Zn378   1.933   .     S
O368   Zn379   1.942   .     S
O369   Zn380   1.940   .     S
O370   Zn377   1.931   .     S
O371   Zn378   1.945   .     S
O372   Zn379   1.941   .     S
C381   O445    1.266   .     A
C381   O443    1.268   .     A
C381   C387    1.440   .     S
C382   O435    1.383   .     S
C382   C396    1.407   .     A
C382   C401    1.413   .     A
C383   C395    1.404   .     A
C383   S449    1.781   .     S
C383   C396    1.407   .     A
C384   C386    1.471   .     S
C384   O444    1.283   .     A
C384   O446    1.276   .     A
C385   C400    1.421   .     A
C385   C397    1.416   .     A
C385   C394    1.493   .     S
C386   C235    1.349   1_655 S
C386   O290    1.387   1_655 S
C388   C391    1.460   .     S
C388   C617    1.353   .     S
C388   S678    1.783   .     S
C389   C390    1.442   .     S
C390   O447    1.276   .     A
C390   O428    1.270   .     A
C391   O439    1.270   .     A
C391   O448    1.270   .     A
C392   C397    1.418   .     A
C392   C1082   1.404   .     S
C392   O1125   1.382   .     S
C393   O420    1.279   .     A
C393   O418    1.282   .     A
C393   C396    1.464   .     S
C394   O419    1.288   .     A
C394   O421    1.291   .     A
C395   C1086   1.422   1_554 S
C395   O1118   1.377   1_554 S
C397   O436    1.382   .     S
C398   S452    1.784   .     S
C398   C1076   1.404   1_554 S
C398   C1083   1.420   1_554 S
C399   C400    1.410   .     A
C399   C1082   1.420   .     S
C399   C1085   1.427   .     S
C400   C404    1.405   .     A
C401   C1083   1.427   1_554 S
C401   C1086   1.427   1_554 S
C402   C403    1.418   .     A
C402   C1085   1.427   .     S
C402   C1079   1.422   .     S
C403   C404    1.393   .     A
C403   S451    1.776   .     S
C404   H405    1.079   .     S
H406   O440    0.991   .     S
H407   O1125   0.990   .     S
H408   O442    0.990   .     S
H409   O424    0.988   .     S
H410   O425    0.992   .     S
H411   O429    0.991   .     S
H413   O433    0.990   .     S
H414   O434    0.990   .     S
H415   O435    0.989   .     S
H416   O436    0.991   .     S
O417   Zn454   1.946   .     S
O417   Zn455   1.934   .     S
O417   Zn456   1.933   .     S
O417   Zn453   1.956   .     S
O418   Zn454   1.914   .     S
O419   Zn456   1.923   .     S
O420   Zn455   1.920   .     S
O421   Zn453   1.911   .     S
O422   S449    1.502   .     D
O423   S449    1.503   .     D
O424   S449    1.682   .     S
O425   C235    1.385   1_655 S
O426   S450    1.502   .     D
O427   S450    1.504   .     D
O428   Zn453   1.940   .     S
O429   S678    1.683   .     S
O430   H640    0.993   .     S
O430   C617    1.385   .     S
O431   S451    1.503   .     D
O432   S451    1.503   .     D
O433   S451    1.682   .     S
O434   C1079   1.377   .     S
O437   S452    1.503   .     D
O438   S452    1.503   .     D
O439   Zn456   1.941   .     S
O440   S452    1.682   .     S
O441   H1091   0.990   1_554 S
O441   C1076   1.382   1_554 S
O443   Zn454   1.933   .     S
O444   Zn455   1.942   .     S
O445   Zn456   1.940   .     S
O446   Zn453   1.931   .     S
O447   Zn454   1.945   .     S
O448   Zn455   1.941   .     S
C457   O521    1.266   .     A
C457   O519    1.268   .     A
C457   C463    1.440   .     S
C458   O511    1.383   .     S
C458   C472    1.407   .     A
C458   C477    1.413   .     A
C459   C471    1.404   .     A
C459   S525    1.781   .     S
C459   C472    1.407   .     A
C460   C462    1.471   .     S
C460   O520    1.283   .     A
C460   O522    1.276   .     A
C461   C476    1.421   .     A
C461   C473    1.416   .     A
C461   C470    1.493   .     S
C462   C539    1.349   .     S
C462   O594    1.387   .     S
C463   C614    1.349   1_455 S
C463   O653    1.385   1_455 S
C464   C467    1.460   .     S
C464   C9      1.353   1_565 S
C464   S70     1.783   1_565 S
C465   C466    1.442   .     S
C466   O523    1.276   .     A
C466   O504    1.270   .     A
C467   O515    1.270   .     A
C467   O524    1.270   .     A
C468   C473    1.418   .     A
C468   C1158   1.404   .     S
C468   O1201   1.382   .     S
C469   O496    1.279   .     A
C469   O494    1.282   .     A
C469   C472    1.464   .     S
C470   O495    1.288   .     A
C470   O497    1.291   .     A
C471   C1162   1.422   1_554 S
C471   O1194   1.377   1_554 S
C473   O512    1.382   .     S
C474   S528    1.784   .     S
C474   C1152   1.404   1_554 S
C474   C1159   1.420   1_554 S
C475   C476    1.410   .     A
C475   C1158   1.420   .     S
C475   C1161   1.427   .     S
C476   C480    1.405   .     A
C477   C1159   1.427   1_554 S
C477   C1162   1.427   1_554 S
C478   C479    1.418   .     A
C478   C1161   1.427   .     S
C478   C1155   1.422   .     S
C479   C480    1.393   .     A
C479   S527    1.776   .     S
C480   H481    1.079   .     S
H482   O516    0.991   .     S
H483   O1201   0.990   .     S
H484   O518    0.990   .     S
H485   O500    0.988   .     S
H486   O501    0.992   .     S
H487   O505    0.991   .     S
H489   O509    0.990   .     S
H490   O510    0.990   .     S
H491   O511    0.989   .     S
H492   O512    0.991   .     S
O493   Zn530   1.946   .     S
O493   Zn531   1.934   .     S
O493   Zn532   1.933   .     S
O493   Zn529   1.956   .     S
O494   Zn530   1.914   .     S
O495   Zn532   1.923   .     S
O496   Zn531   1.920   .     S
O497   Zn529   1.911   .     S
O498   S525    1.502   .     D
O499   S525    1.503   .     D
O500   S525    1.682   .     S
O501   C539    1.385   .     S
O502   S526    1.502   .     D
O503   S526    1.504   .     D
O504   Zn529   1.940   .     S
O505   S70     1.683   1_565 S
O506   H32     0.993   1_565 S
O506   C9      1.385   1_565 S
O507   S527    1.503   .     D
O508   S527    1.503   .     D
O509   S527    1.682   .     S
O510   C1155   1.377   .     S
O513   S528    1.503   .     D
O514   S528    1.503   .     D
O515   Zn532   1.941   .     S
O516   S528    1.682   .     S
O517   H1167   0.990   1_554 S
O517   C1152   1.382   1_554 S
O518   C614    1.387   1_455 S
O519   Zn530   1.933   .     S
O520   Zn531   1.942   .     S
O521   Zn532   1.940   .     S
O522   Zn529   1.931   .     S
O523   Zn530   1.945   .     S
O524   Zn531   1.941   .     S
C533   O597    1.266   .     A
C533   O595    1.268   .     A
C533   C539    1.440   .     S
C534   O587    1.383   .     S
C534   C548    1.407   .     A
C534   C553    1.413   .     A
C535   C547    1.404   .     A
C535   S601    1.781   .     S
C535   C548    1.407   .     A
C536   C538    1.471   .     S
C536   O596    1.283   .     A
C536   O598    1.276   .     A
C537   C552    1.421   .     A
C537   C549    1.416   .     A
C537   C546    1.493   .     S
C538   C615    1.349   .     S
C538   O670    1.387   .     S
C540   C543    1.460   .     S
C540   C85     1.353   1_565 S
C540   S146    1.783   1_565 S
C541   C542    1.442   .     S
C542   O599    1.276   .     A
C542   O580    1.270   .     A
C543   O591    1.270   .     A
C543   O600    1.270   .     A
C544   C549    1.418   .     A
C544   C1234   1.404   .     S
C544   O1277   1.382   .     S
C545   O572    1.279   .     A
C545   O570    1.282   .     A
C545   C548    1.464   .     S
C546   O571    1.288   .     A
C546   O573    1.291   .     A
C547   C1238   1.422   1_554 S
C547   O1270   1.377   1_554 S
C549   O588    1.382   .     S
C550   S604    1.784   .     S
C550   C1228   1.404   1_554 S
C550   C1235   1.420   1_554 S
C551   C552    1.410   .     A
C551   C1234   1.420   .     S
C551   C1237   1.427   .     S
C552   C556    1.405   .     A
C553   C1235   1.427   1_554 S
C553   C1238   1.427   1_554 S
C554   C555    1.418   .     A
C554   C1237   1.427   .     S
C554   C1231   1.422   .     S
C555   C556    1.393   .     A
C555   S603    1.776   .     S
C556   H557    1.079   .     S
H558   O592    0.991   .     S
H559   O1277   0.990   .     S
H560   O594    0.990   .     S
H561   O576    0.988   .     S
H562   O577    0.992   .     S
H563   O581    0.991   .     S
H565   O585    0.990   .     S
H566   O586    0.990   .     S
H567   O587    0.989   .     S
H568   O588    0.991   .     S
O569   Zn606   1.946   .     S
O569   Zn607   1.934   .     S
O569   Zn608   1.933   .     S
O569   Zn605   1.956   .     S
O570   Zn606   1.914   .     S
O571   Zn608   1.923   .     S
O572   Zn607   1.920   .     S
O573   Zn605   1.911   .     S
O574   S601    1.502   .     D
O575   S601    1.503   .     D
O576   S601    1.682   .     S
O577   C615    1.385   .     S
O578   S602    1.502   .     D
O579   S602    1.504   .     D
O580   Zn605   1.940   .     S
O581   S146    1.683   1_565 S
O582   H108    0.993   1_565 S
O582   C85     1.385   1_565 S
O583   S603    1.503   .     D
O584   S603    1.503   .     D
O585   S603    1.682   .     S
O586   C1231   1.377   .     S
O589   S604    1.503   .     D
O590   S604    1.503   .     D
O591   Zn608   1.941   .     S
O592   S604    1.682   .     S
O593   H1243   0.990   1_554 S
O593   C1228   1.382   1_554 S
O595   Zn606   1.933   .     S
O596   Zn607   1.942   .     S
O597   Zn608   1.940   .     S
O598   Zn605   1.931   .     S
O599   Zn606   1.945   .     S
O600   Zn607   1.941   .     S
C609   O673    1.266   .     A
C609   O671    1.268   .     A
C609   C615    1.440   .     S
C610   O663    1.383   .     S
C610   C624    1.407   .     A
C610   C629    1.413   .     A
C611   C623    1.404   .     A
C611   S677    1.781   .     S
C611   C624    1.407   .     A
C612   C614    1.471   .     S
C612   O672    1.283   .     A
C612   O674    1.276   .     A
C613   C628    1.421   .     A
C613   C625    1.416   .     A
C613   C622    1.493   .     S
C614   C463    1.349   1_655 S
C614   O518    1.387   1_655 S
C616   C619    1.460   .     S
C616   C161    1.353   1_565 S
C616   S222    1.783   1_565 S
C617   C618    1.442   .     S
C618   O675    1.276   .     A
C618   O656    1.270   .     A
C619   O667    1.270   .     A
C619   O676    1.270   .     A
C620   C625    1.418   .     A
C620   C1310   1.404   .     S
C620   O1353   1.382   .     S
C621   O648    1.279   .     A
C621   O646    1.282   .     A
C621   C624    1.464   .     S
C622   O647    1.288   .     A
C622   O649    1.291   .     A
C623   C1314   1.422   1_554 S
C623   O1346   1.377   1_554 S
C625   O664    1.382   .     S
C626   S680    1.784   .     S
C626   C1304   1.404   1_554 S
C626   C1311   1.420   1_554 S
C627   C628    1.410   .     A
C627   C1310   1.420   .     S
C627   C1313   1.427   .     S
C628   C632    1.405   .     A
C629   C1311   1.427   1_554 S
C629   C1314   1.427   1_554 S
C630   C631    1.418   .     A
C630   C1313   1.427   .     S
C630   C1307   1.422   .     S
C631   C632    1.393   .     A
C631   S679    1.776   .     S
C632   H633    1.079   .     S
H634   O668    0.991   .     S
H635   O1353   0.990   .     S
H636   O670    0.990   .     S
H637   O652    0.988   .     S
H638   O653    0.992   .     S
H639   O657    0.991   .     S
H641   O661    0.990   .     S
H642   O662    0.990   .     S
H643   O663    0.989   .     S
H644   O664    0.991   .     S
O645   Zn682   1.946   .     S
O645   Zn683   1.934   .     S
O645   Zn684   1.933   .     S
O645   Zn681   1.956   .     S
O646   Zn682   1.914   .     S
O647   Zn684   1.923   .     S
O648   Zn683   1.920   .     S
O649   Zn681   1.911   .     S
O650   S677    1.502   .     D
O651   S677    1.503   .     D
O652   S677    1.682   .     S
O653   C463    1.385   1_655 S
O654   S678    1.502   .     D
O655   S678    1.504   .     D
O656   Zn681   1.940   .     S
O657   S222    1.683   1_565 S
O658   H184    0.993   1_565 S
O658   C161    1.385   1_565 S
O659   S679    1.503   .     D
O660   S679    1.503   .     D
O661   S679    1.682   .     S
O662   C1307   1.377   .     S
O665   S680    1.503   .     D
O666   S680    1.503   .     D
O667   Zn684   1.941   .     S
O668   S680    1.682   .     S
O669   H1319   0.990   1_554 S
O669   C1304   1.382   1_554 S
O671   Zn682   1.933   .     S
O672   Zn683   1.942   .     S
O673   Zn684   1.940   .     S
O674   Zn681   1.931   .     S
O675   Zn682   1.945   .     S
O676   Zn683   1.941   .     S
C685   O749    1.266   .     A
C685   O747    1.268   .     A
C685   C691    1.440   .     S
C686   O739    1.383   .     S
C686   C700    1.407   .     A
C686   C705    1.413   .     A
C687   C699    1.404   .     A
C687   S753    1.781   .     S
C687   C700    1.407   .     A
C688   C690    1.471   .     S
C688   O748    1.283   .     A
C688   O750    1.276   .     A
C689   C704    1.421   .     A
C689   C701    1.416   .     A
C689   C698    1.493   .     S
C690   C767    1.349   .     S
C690   O822    1.387   .     S
C691   C842    1.349   1_455 S
C691   O881    1.385   1_455 S
C692   C695    1.460   .     S
C692   C921    1.353   .     S
C692   S982    1.783   .     S
C693   C694    1.442   .     S
C693   C1148   1.353   1_545 S
C693   O1190   1.385   1_545 S
C694   O751    1.276   .     A
C694   O732    1.270   .     A
C695   O743    1.270   .     A
C695   O752    1.270   .     A
C696   C701    1.418   .     A
C696   C18     1.404   1_556 S
C696   O61     1.382   1_556 S
C697   O724    1.279   .     A
C697   O722    1.282   .     A
C697   C700    1.464   .     S
C698   O723    1.288   .     A
C698   O725    1.291   .     A
C701   O740    1.382   .     S
C702   S756    1.784   .     S
C703   C704    1.410   .     A
C703   C18     1.420   1_556 S
C703   C21     1.427   1_556 S
C704   C708    1.405   .     A
C706   C707    1.418   .     A
C706   C21     1.427   1_556 S
C706   C15     1.422   1_556 S
C707   C708    1.393   .     A
C707   S755    1.776   .     S
C708   H709    1.079   .     S
H710   O744    0.991   .     S
H711   O61     0.990   1_556 S
H712   O746    0.990   .     S
H713   O728    0.988   .     S
H714   O729    0.992   .     S
H715   O733    0.991   .     S
H716   O1190   0.993   1_545 S
H717   O737    0.990   .     S
H718   O738    0.990   .     S
H719   O739    0.989   .     S
H720   O740    0.991   .     S
O721   Zn758   1.946   .     S
O721   Zn759   1.934   .     S
O721   Zn760   1.933   .     S
O721   Zn757   1.956   .     S
O722   Zn758   1.914   .     S
O723   Zn760   1.923   .     S
O724   Zn759   1.920   .     S
O725   Zn757   1.911   .     S
O726   S753    1.502   .     D
O727   S753    1.503   .     D
O728   S753    1.682   .     S
O729   C767    1.385   .     S
O730   S754    1.502   .     D
O731   S754    1.504   .     D
O732   Zn757   1.940   .     S
O733   S982    1.683   .     S
O734   H944    0.993   .     S
O734   C921    1.385   .     S
O735   S755    1.503   .     D
O736   S755    1.503   .     D
O737   S755    1.682   .     S
O738   C15     1.377   1_556 S
O741   S756    1.503   .     D
O742   S756    1.503   .     D
O743   Zn760   1.941   .     S
O744   S756    1.682   .     S
O746   C842    1.387   1_455 S
O747   Zn758   1.933   .     S
O748   Zn759   1.942   .     S
O749   Zn760   1.940   .     S
O750   Zn757   1.931   .     S
O751   Zn758   1.945   .     S
O752   Zn759   1.941   .     S
S754   O1189   1.683   1_545 S
S754   C1148   1.783   1_545 S
C761   O825    1.266   .     A
C761   O823    1.268   .     A
C761   C767    1.440   .     S
C762   O815    1.383   .     S
C762   C776    1.407   .     A
C762   C781    1.413   .     A
C763   C775    1.404   .     A
C763   S829    1.781   .     S
C763   C776    1.407   .     A
C764   C766    1.471   .     S
C764   O824    1.283   .     A
C764   O826    1.276   .     A
C765   C780    1.421   .     A
C765   C777    1.416   .     A
C765   C774    1.493   .     S
C766   C843    1.349   .     S
C766   O898    1.387   .     S
C768   C771    1.460   .     S
C768   C997    1.353   .     S
C768   S1058   1.783   .     S
C769   C770    1.442   .     S
C769   C1224   1.353   1_545 S
C769   O1266   1.385   1_545 S
C770   O827    1.276   .     A
C770   O808    1.270   .     A
C771   O819    1.270   .     A
C771   O828    1.270   .     A
C772   C777    1.418   .     A
C772   C94     1.404   1_556 S
C772   O137    1.382   1_556 S
C773   O800    1.279   .     A
C773   O798    1.282   .     A
C773   C776    1.464   .     S
C774   O799    1.288   .     A
C774   O801    1.291   .     A
C777   O816    1.382   .     S
C778   S832    1.784   .     S
C779   C780    1.410   .     A
C779   C94     1.420   1_556 S
C779   C97     1.427   1_556 S
C780   C784    1.405   .     A
C782   C783    1.418   .     A
C782   C97     1.427   1_556 S
C782   C91     1.422   1_556 S
C783   C784    1.393   .     A
C783   S831    1.776   .     S
C784   H785    1.079   .     S
H786   O820    0.991   .     S
H787   O137    0.990   1_556 S
H788   O822    0.990   .     S
H789   O804    0.988   .     S
H790   O805    0.992   .     S
H791   O809    0.991   .     S
H792   O1266   0.993   1_545 S
H793   O813    0.990   .     S
H794   O814    0.990   .     S
H795   O815    0.989   .     S
H796   O816    0.991   .     S
O797   Zn834   1.946   .     S
O797   Zn835   1.934   .     S
O797   Zn836   1.933   .     S
O797   Zn833   1.956   .     S
O798   Zn834   1.914   .     S
O799   Zn836   1.923   .     S
O800   Zn835   1.920   .     S
O801   Zn833   1.911   .     S
O802   S829    1.502   .     D
O803   S829    1.503   .     D
O804   S829    1.682   .     S
O805   C843    1.385   .     S
O806   S830    1.502   .     D
O807   S830    1.504   .     D
O808   Zn833   1.940   .     S
O809   S1058   1.683   .     S
O810   H1020   0.993   .     S
O810   C997    1.385   .     S
O811   S831    1.503   .     D
O812   S831    1.503   .     D
O813   S831    1.682   .     S
O814   C91     1.377   1_556 S
O817   S832    1.503   .     D
O818   S832    1.503   .     D
O819   Zn836   1.941   .     S
O820   S832    1.682   .     S
O823   Zn834   1.933   .     S
O824   Zn835   1.942   .     S
O825   Zn836   1.940   .     S
O826   Zn833   1.931   .     S
O827   Zn834   1.945   .     S
O828   Zn835   1.941   .     S
S830   O1265   1.683   1_545 S
S830   C1224   1.783   1_545 S
C837   O901    1.266   .     A
C837   O899    1.268   .     A
C837   C843    1.440   .     S
C838   O891    1.383   .     S
C838   C852    1.407   .     A
C838   C857    1.413   .     A
C839   C851    1.404   .     A
C839   S905    1.781   .     S
C839   C852    1.407   .     A
C840   C842    1.471   .     S
C840   O900    1.283   .     A
C840   O902    1.276   .     A
C841   C856    1.421   .     A
C841   C853    1.416   .     A
C841   C850    1.493   .     S
C842   C691    1.349   1_655 S
C842   O746    1.387   1_655 S
C844   C847    1.460   .     S
C844   C1073   1.353   .     S
C844   S1134   1.783   .     S
C845   C846    1.442   .     S
C845   C1300   1.353   1_545 S
C845   O1342   1.385   1_545 S
C846   O903    1.276   .     A
C846   O884    1.270   .     A
C847   O895    1.270   .     A
C847   O904    1.270   .     A
C848   C853    1.418   .     A
C848   C170    1.404   1_556 S
C848   O213    1.382   1_556 S
C849   O876    1.279   .     A
C849   O874    1.282   .     A
C849   C852    1.464   .     S
C850   O875    1.288   .     A
C850   O877    1.291   .     A
C853   O892    1.382   .     S
C854   S908    1.784   .     S
C855   C856    1.410   .     A
C855   C170    1.420   1_556 S
C855   C173    1.427   1_556 S
C856   C860    1.405   .     A
C858   C859    1.418   .     A
C858   C173    1.427   1_556 S
C858   C167    1.422   1_556 S
C859   C860    1.393   .     A
C859   S907    1.776   .     S
C860   H861    1.079   .     S
H862   O896    0.991   .     S
H863   O213    0.990   1_556 S
H864   O898    0.990   .     S
H865   O880    0.988   .     S
H866   O881    0.992   .     S
H867   O885    0.991   .     S
H868   O1342   0.993   1_545 S
H869   O889    0.990   .     S
H870   O890    0.990   .     S
H871   O891    0.989   .     S
H872   O892    0.991   .     S
O873   Zn910   1.946   .     S
O873   Zn911   1.934   .     S
O873   Zn912   1.933   .     S
O873   Zn909   1.956   .     S
O874   Zn910   1.914   .     S
O875   Zn912   1.923   .     S
O876   Zn911   1.920   .     S
O877   Zn909   1.911   .     S
O878   S905    1.502   .     D
O879   S905    1.503   .     D
O880   S905    1.682   .     S
O881   C691    1.385   1_655 S
O882   S906    1.502   .     D
O883   S906    1.504   .     D
O884   Zn909   1.940   .     S
O885   S1134   1.683   .     S
O886   H1096   0.993   .     S
O886   C1073   1.385   .     S
O887   S907    1.503   .     D
O888   S907    1.503   .     D
O889   S907    1.682   .     S
O890   C167    1.377   1_556 S
O893   S908    1.503   .     D
O894   S908    1.503   .     D
O895   Zn912   1.941   .     S
O896   S908    1.682   .     S
O899   Zn910   1.933   .     S
O900   Zn911   1.942   .     S
O901   Zn912   1.940   .     S
O902   Zn909   1.931   .     S
O903   Zn910   1.945   .     S
O904   Zn911   1.941   .     S
S906   O1341   1.683   1_545 S
S906   C1300   1.783   1_545 S
C913   O977    1.266   .     A
C913   O975    1.268   .     A
C913   C919    1.440   .     S
C914   O967    1.383   .     S
C914   C928    1.407   .     A
C914   C933    1.413   .     A
C915   C927    1.404   .     A
C915   S981    1.781   .     S
C915   C928    1.407   .     A
C916   C918    1.471   .     S
C916   O976    1.283   .     A
C916   O978    1.276   .     A
C917   C932    1.421   .     A
C917   C929    1.416   .     A
C917   C926    1.493   .     S
C918   C995    1.349   .     S
C918   O1050   1.387   .     S
C919   C1070   1.349   1_455 S
C919   O1109   1.385   1_455 S
C920   C923    1.460   .     S
C920   C1149   1.353   .     S
C920   S1210   1.783   .     S
C921   C922    1.442   .     S
C922   O979    1.276   .     A
C922   O960    1.270   .     A
C923   O971    1.270   .     A
C923   O980    1.270   .     A
C924   C929    1.418   .     A
C924   C246    1.404   1_556 S
C924   O289    1.382   1_556 S
C925   O952    1.279   .     A
C925   O950    1.282   .     A
C925   C928    1.464   .     S
C926   O951    1.288   .     A
C926   O953    1.291   .     A
C929   O968    1.382   .     S
C930   S984    1.784   .     S
C931   C932    1.410   .     A
C931   C246    1.420   1_556 S
C931   C249    1.427   1_556 S
C932   C936    1.405   .     A
C934   C935    1.418   .     A
C934   C249    1.427   1_556 S
C934   C243    1.422   1_556 S
C935   C936    1.393   .     A
C935   S983    1.776   .     S
C936   H937    1.079   .     S
H938   O972    0.991   .     S
H939   O289    0.990   1_556 S
H940   O974    0.990   .     S
H941   O956    0.988   .     S
H942   O957    0.992   .     S
H943   O961    0.991   .     S
H945   O965    0.990   .     S
H946   O966    0.990   .     S
H947   O967    0.989   .     S
H948   O968    0.991   .     S
O949   Zn986   1.946   .     S
O949   Zn987   1.934   .     S
O949   Zn988   1.933   .     S
O949   Zn985   1.956   .     S
O950   Zn986   1.914   .     S
O951   Zn988   1.923   .     S
O952   Zn987   1.920   .     S
O953   Zn985   1.911   .     S
O954   S981    1.502   .     D
O955   S981    1.503   .     D
O956   S981    1.682   .     S
O957   C995    1.385   .     S
O958   S982    1.502   .     D
O959   S982    1.504   .     D
O960   Zn985   1.940   .     S
O961   S1210   1.683   .     S
O962   H1172   0.993   .     S
O962   C1149   1.385   .     S
O963   S983    1.503   .     D
O964   S983    1.503   .     D
O965   S983    1.682   .     S
O966   C243    1.377   1_556 S
O969   S984    1.503   .     D
O970   S984    1.503   .     D
O971   Zn988   1.941   .     S
O972   S984    1.682   .     S
O974   C1070   1.387   1_455 S
O975   Zn986   1.933   .     S
O976   Zn987   1.942   .     S
O977   Zn988   1.940   .     S
O978   Zn985   1.931   .     S
O979   Zn986   1.945   .     S
O980   Zn987   1.941   .     S
C989   O1053   1.266   .     A
C989   O1051   1.268   .     A
C989   C995    1.440   .     S
C990   O1043   1.383   .     S
C990   C1004   1.407   .     A
C990   C1009   1.413   .     A
C991   C1003   1.404   .     A
C991   S1057   1.781   .     S
C991   C1004   1.407   .     A
C992   C994    1.471   .     S
C992   O1052   1.283   .     A
C992   O1054   1.276   .     A
C993   C1008   1.421   .     A
C993   C1005   1.416   .     A
C993   C1002   1.493   .     S
C994   C1071   1.349   .     S
C994   O1126   1.387   .     S
C996   C999    1.460   .     S
C996   C1225   1.353   .     S
C996   S1286   1.783   .     S
C997   C998    1.442   .     S
C998   O1055   1.276   .     A
C998   O1036   1.270   .     A
C999   O1047   1.270   .     A
C999   O1056   1.270   .     A
C1000  C1005   1.418   .     A
C1000  C322    1.404   1_556 S
C1000  O365    1.382   1_556 S
C1001  O1028   1.279   .     A
C1001  O1026   1.282   .     A
C1001  C1004   1.464   .     S
C1002  O1027   1.288   .     A
C1002  O1029   1.291   .     A
C1005  O1044   1.382   .     S
C1006  S1060   1.784   .     S
C1007  C1008   1.410   .     A
C1007  C322    1.420   1_556 S
C1007  C325    1.427   1_556 S
C1008  C1012   1.405   .     A
C1010  C1011   1.418   .     A
C1010  C325    1.427   1_556 S
C1010  C319    1.422   1_556 S
C1011  C1012   1.393   .     A
C1011  S1059   1.776   .     S
C1012  H1013   1.079   .     S
H1014  O1048   0.991   .     S
H1015  O365    0.990   1_556 S
H1016  O1050   0.990   .     S
H1017  O1032   0.988   .     S
H1018  O1033   0.992   .     S
H1019  O1037   0.991   .     S
H1021  O1041   0.990   .     S
H1022  O1042   0.990   .     S
H1023  O1043   0.989   .     S
H1024  O1044   0.991   .     S
O1025  Zn1062  1.946   .     S
O1025  Zn1063  1.934   .     S
O1025  Zn1064  1.933   .     S
O1025  Zn1061  1.956   .     S
O1026  Zn1062  1.914   .     S
O1027  Zn1064  1.923   .     S
O1028  Zn1063  1.920   .     S
O1029  Zn1061  1.911   .     S
O1030  S1057   1.502   .     D
O1031  S1057   1.503   .     D
O1032  S1057   1.682   .     S
O1033  C1071   1.385   .     S
O1034  S1058   1.502   .     D
O1035  S1058   1.504   .     D
O1036  Zn1061  1.940   .     S
O1037  S1286   1.683   .     S
O1038  H1248   0.993   .     S
O1038  C1225   1.385   .     S
O1039  S1059   1.503   .     D
O1040  S1059   1.503   .     D
O1041  S1059   1.682   .     S
O1042  C319    1.377   1_556 S
O1045  S1060   1.503   .     D
O1046  S1060   1.503   .     D
O1047  Zn1064  1.941   .     S
O1048  S1060   1.682   .     S
O1051  Zn1062  1.933   .     S
O1052  Zn1063  1.942   .     S
O1053  Zn1064  1.940   .     S
O1054  Zn1061  1.931   .     S
O1055  Zn1062  1.945   .     S
O1056  Zn1063  1.941   .     S
C1065  O1129   1.266   .     A
C1065  O1127   1.268   .     A
C1065  C1071   1.440   .     S
C1066  O1119   1.383   .     S
C1066  C1080   1.407   .     A
C1066  C1085   1.413   .     A
C1067  C1079   1.404   .     A
C1067  S1133   1.781   .     S
C1067  C1080   1.407   .     A
C1068  C1070   1.471   .     S
C1068  O1128   1.283   .     A
C1068  O1130   1.276   .     A
C1069  C1084   1.421   .     A
C1069  C1081   1.416   .     A
C1069  C1078   1.493   .     S
C1070  C919    1.349   1_655 S
C1070  O974    1.387   1_655 S
C1072  C1075   1.460   .     S
C1072  C1301   1.353   .     S
C1072  S1362   1.783   .     S
C1073  C1074   1.442   .     S
C1074  O1131   1.276   .     A
C1074  O1112   1.270   .     A
C1075  O1123   1.270   .     A
C1075  O1132   1.270   .     A
C1076  C1081   1.418   .     A
C1076  C398    1.404   1_556 S
C1076  O441    1.382   1_556 S
C1077  O1104   1.279   .     A
C1077  O1102   1.282   .     A
C1077  C1080   1.464   .     S
C1078  O1103   1.288   .     A
C1078  O1105   1.291   .     A
C1081  O1120   1.382   .     S
C1082  S1136   1.784   .     S
C1083  C1084   1.410   .     A
C1083  C398    1.420   1_556 S
C1083  C401    1.427   1_556 S
C1084  C1088   1.405   .     A
C1086  C1087   1.418   .     A
C1086  C401    1.427   1_556 S
C1086  C395    1.422   1_556 S
C1087  C1088   1.393   .     A
C1087  S1135   1.776   .     S
C1088  H1089   1.079   .     S
H1090  O1124   0.991   .     S
H1091  O441    0.990   1_556 S
H1092  O1126   0.990   .     S
H1093  O1108   0.988   .     S
H1094  O1109   0.992   .     S
H1095  O1113   0.991   .     S
H1097  O1117   0.990   .     S
H1098  O1118   0.990   .     S
H1099  O1119   0.989   .     S
H1100  O1120   0.991   .     S
O1101  Zn1138  1.946   .     S
O1101  Zn1139  1.934   .     S
O1101  Zn1140  1.933   .     S
O1101  Zn1137  1.956   .     S
O1102  Zn1138  1.914   .     S
O1103  Zn1140  1.923   .     S
O1104  Zn1139  1.920   .     S
O1105  Zn1137  1.911   .     S
O1106  S1133   1.502   .     D
O1107  S1133   1.503   .     D
O1108  S1133   1.682   .     S
O1109  C919    1.385   1_655 S
O1110  S1134   1.502   .     D
O1111  S1134   1.504   .     D
O1112  Zn1137  1.940   .     S
O1113  S1362   1.683   .     S
O1114  H1324   0.993   .     S
O1114  C1301   1.385   .     S
O1115  S1135   1.503   .     D
O1116  S1135   1.503   .     D
O1117  S1135   1.682   .     S
O1118  C395    1.377   1_556 S
O1121  S1136   1.503   .     D
O1122  S1136   1.503   .     D
O1123  Zn1140  1.941   .     S
O1124  S1136   1.682   .     S
O1127  Zn1138  1.933   .     S
O1128  Zn1139  1.942   .     S
O1129  Zn1140  1.940   .     S
O1130  Zn1137  1.931   .     S
O1131  Zn1138  1.945   .     S
O1132  Zn1139  1.941   .     S
C1141  O1205   1.266   .     A
C1141  O1203   1.268   .     A
C1141  C1147   1.440   .     S
C1142  O1195   1.383   .     S
C1142  C1156   1.407   .     A
C1142  C1161   1.413   .     A
C1143  C1155   1.404   .     A
C1143  S1209   1.781   .     S
C1143  C1156   1.407   .     A
C1144  C1146   1.471   .     S
C1144  O1204   1.283   .     A
C1144  O1206   1.276   .     A
C1145  C1160   1.421   .     A
C1145  C1157   1.416   .     A
C1145  C1154   1.493   .     S
C1146  C1223   1.349   .     S
C1146  O1278   1.387   .     S
C1147  C1298   1.349   1_455 S
C1147  O1337   1.385   1_455 S
C1148  C1151   1.460   .     S
C1148  C693    1.353   1_565 S
C1148  S754    1.783   1_565 S
C1149  C1150   1.442   .     S
C1150  O1207   1.276   .     A
C1150  O1188   1.270   .     A
C1151  O1199   1.270   .     A
C1151  O1208   1.270   .     A
C1152  C1157   1.418   .     A
C1152  C474    1.404   1_556 S
C1152  O517    1.382   1_556 S
C1153  O1180   1.279   .     A
C1153  O1178   1.282   .     A
C1153  C1156   1.464   .     S
C1154  O1179   1.288   .     A
C1154  O1181   1.291   .     A
C1157  O1196   1.382   .     S
C1158  S1212   1.784   .     S
C1159  C1160   1.410   .     A
C1159  C474    1.420   1_556 S
C1159  C477    1.427   1_556 S
C1160  C1164   1.405   .     A
C1162  C1163   1.418   .     A
C1162  C477    1.427   1_556 S
C1162  C471    1.422   1_556 S
C1163  C1164   1.393   .     A
C1163  S1211   1.776   .     S
C1164  H1165   1.079   .     S
H1166  O1200   0.991   .     S
H1167  O517    0.990   1_556 S
H1168  O1202   0.990   .     S
H1169  O1184   0.988   .     S
H1170  O1185   0.992   .     S
H1171  O1189   0.991   .     S
H1173  O1193   0.990   .     S
H1174  O1194   0.990   .     S
H1175  O1195   0.989   .     S
H1176  O1196   0.991   .     S
O1177  Zn1214  1.946   .     S
O1177  Zn1215  1.934   .     S
O1177  Zn1216  1.933   .     S
O1177  Zn1213  1.956   .     S
O1178  Zn1214  1.914   .     S
O1179  Zn1216  1.923   .     S
O1180  Zn1215  1.920   .     S
O1181  Zn1213  1.911   .     S
O1182  S1209   1.502   .     D
O1183  S1209   1.503   .     D
O1184  S1209   1.682   .     S
O1185  C1223   1.385   .     S
O1186  S1210   1.502   .     D
O1187  S1210   1.504   .     D
O1188  Zn1213  1.940   .     S
O1189  S754    1.683   1_565 S
O1190  H716    0.993   1_565 S
O1190  C693    1.385   1_565 S
O1191  S1211   1.503   .     D
O1192  S1211   1.503   .     D
O1193  S1211   1.682   .     S
O1194  C471    1.377   1_556 S
O1197  S1212   1.503   .     D
O1198  S1212   1.503   .     D
O1199  Zn1216  1.941   .     S
O1200  S1212   1.682   .     S
O1202  C1298   1.387   1_455 S
O1203  Zn1214  1.933   .     S
O1204  Zn1215  1.942   .     S
O1205  Zn1216  1.940   .     S
O1206  Zn1213  1.931   .     S
O1207  Zn1214  1.945   .     S
O1208  Zn1215  1.941   .     S
C1217  O1281   1.266   .     A
C1217  O1279   1.268   .     A
C1217  C1223   1.440   .     S
C1218  O1271   1.383   .     S
C1218  C1232   1.407   .     A
C1218  C1237   1.413   .     A
C1219  C1231   1.404   .     A
C1219  S1285   1.781   .     S
C1219  C1232   1.407   .     A
C1220  C1222   1.471   .     S
C1220  O1280   1.283   .     A
C1220  O1282   1.276   .     A
C1221  C1236   1.421   .     A
C1221  C1233   1.416   .     A
C1221  C1230   1.493   .     S
C1222  C1299   1.349   .     S
C1222  O1354   1.387   .     S
C1224  C1227   1.460   .     S
C1224  C769    1.353   1_565 S
C1224  S830    1.783   1_565 S
C1225  C1226   1.442   .     S
C1226  O1283   1.276   .     A
C1226  O1264   1.270   .     A
C1227  O1275   1.270   .     A
C1227  O1284   1.270   .     A
C1228  C1233   1.418   .     A
C1228  C550    1.404   1_556 S
C1228  O593    1.382   1_556 S
C1229  O1256   1.279   .     A
C1229  O1254   1.282   .     A
C1229  C1232   1.464   .     S
C1230  O1255   1.288   .     A
C1230  O1257   1.291   .     A
C1233  O1272   1.382   .     S
C1234  S1288   1.784   .     S
C1235  C1236   1.410   .     A
C1235  C550    1.420   1_556 S
C1235  C553    1.427   1_556 S
C1236  C1240   1.405   .     A
C1238  C1239   1.418   .     A
C1238  C553    1.427   1_556 S
C1238  C547    1.422   1_556 S
C1239  C1240   1.393   .     A
C1239  S1287   1.776   .     S
C1240  H1241   1.079   .     S
H1242  O1276   0.991   .     S
H1243  O593    0.990   1_556 S
H1244  O1278   0.990   .     S
H1245  O1260   0.988   .     S
H1246  O1261   0.992   .     S
H1247  O1265   0.991   .     S
H1249  O1269   0.990   .     S
H1250  O1270   0.990   .     S
H1251  O1271   0.989   .     S
H1252  O1272   0.991   .     S
O1253  Zn1290  1.946   .     S
O1253  Zn1291  1.934   .     S
O1253  Zn1292  1.933   .     S
O1253  Zn1289  1.956   .     S
O1254  Zn1290  1.914   .     S
O1255  Zn1292  1.923   .     S
O1256  Zn1291  1.920   .     S
O1257  Zn1289  1.911   .     S
O1258  S1285   1.502   .     D
O1259  S1285   1.503   .     D
O1260  S1285   1.682   .     S
O1261  C1299   1.385   .     S
O1262  S1286   1.502   .     D
O1263  S1286   1.504   .     D
O1264  Zn1289  1.940   .     S
O1265  S830    1.683   1_565 S
O1266  H792    0.993   1_565 S
O1266  C769    1.385   1_565 S
O1267  S1287   1.503   .     D
O1268  S1287   1.503   .     D
O1269  S1287   1.682   .     S
O1270  C547    1.377   1_556 S
O1273  S1288   1.503   .     D
O1274  S1288   1.503   .     D
O1275  Zn1292  1.941   .     S
O1276  S1288   1.682   .     S
O1279  Zn1290  1.933   .     S
O1280  Zn1291  1.942   .     S
O1281  Zn1292  1.940   .     S
O1282  Zn1289  1.931   .     S
O1283  Zn1290  1.945   .     S
O1284  Zn1291  1.941   .     S
C1293  O1357   1.266   .     A
C1293  O1355   1.268   .     A
C1293  C1299   1.440   .     S
C1294  O1347   1.383   .     S
C1294  C1308   1.407   .     A
C1294  C1313   1.413   .     A
C1295  C1307   1.404   .     A
C1295  S1361   1.781   .     S
C1295  C1308   1.407   .     A
C1296  C1298   1.471   .     S
C1296  O1356   1.283   .     A
C1296  O1358   1.276   .     A
C1297  C1312   1.421   .     A
C1297  C1309   1.416   .     A
C1297  C1306   1.493   .     S
C1298  C1147   1.349   1_655 S
C1298  O1202   1.387   1_655 S
C1300  C1303   1.460   .     S
C1300  C845    1.353   1_565 S
C1300  S906    1.783   1_565 S
C1301  C1302   1.442   .     S
C1302  O1359   1.276   .     A
C1302  O1340   1.270   .     A
C1303  O1351   1.270   .     A
C1303  O1360   1.270   .     A
C1304  C1309   1.418   .     A
C1304  C626    1.404   1_556 S
C1304  O669    1.382   1_556 S
C1305  O1332   1.279   .     A
C1305  O1330   1.282   .     A
C1305  C1308   1.464   .     S
C1306  O1331   1.288   .     A
C1306  O1333   1.291   .     A
C1309  O1348   1.382   .     S
C1310  S1364   1.784   .     S
C1311  C1312   1.410   .     A
C1311  C626    1.420   1_556 S
C1311  C629    1.427   1_556 S
C1312  C1316   1.405   .     A
C1314  C1315   1.418   .     A
C1314  C629    1.427   1_556 S
C1314  C623    1.422   1_556 S
C1315  C1316   1.393   .     A
C1315  S1363   1.776   .     S
C1316  H1317   1.079   .     S
H1318  O1352   0.991   .     S
H1319  O669    0.990   1_556 S
H1320  O1354   0.990   .     S
H1321  O1336   0.988   .     S
H1322  O1337   0.992   .     S
H1323  O1341   0.991   .     S
H1325  O1345   0.990   .     S
H1326  O1346   0.990   .     S
H1327  O1347   0.989   .     S
H1328  O1348   0.991   .     S
O1329  Zn1366  1.946   .     S
O1329  Zn1367  1.934   .     S
O1329  Zn1368  1.933   .     S
O1329  Zn1365  1.956   .     S
O1330  Zn1366  1.914   .     S
O1331  Zn1368  1.923   .     S
O1332  Zn1367  1.920   .     S
O1333  Zn1365  1.911   .     S
O1334  S1361   1.502   .     D
O1335  S1361   1.503   .     D
O1336  S1361   1.682   .     S
O1337  C1147   1.385   1_655 S
O1338  S1362   1.502   .     D
O1339  S1362   1.504   .     D
O1340  Zn1365  1.940   .     S
O1341  S906    1.683   1_565 S
O1342  H868    0.993   1_565 S
O1342  C845    1.385   1_565 S
O1343  S1363   1.503   .     D
O1344  S1363   1.503   .     D
O1345  S1363   1.682   .     S
O1346  C623    1.377   1_556 S
O1349  S1364   1.503   .     D
O1350  S1364   1.503   .     D
O1351  Zn1368  1.941   .     S
O1352  S1364   1.682   .     S
O1355  Zn1366  1.933   .     S
O1356  Zn1367  1.942   .     S
O1357  Zn1368  1.940   .     S
O1358  Zn1365  1.931   .     S
O1359  Zn1366  1.945   .     S
O1360  Zn1367  1.941   .     S
