data_str_m1_o1_o1_pcu_sym.6
_audit_creation_date              2020-01-03
_audit_creation_method            'Materials Studio'
_symmetry_space_group_name_H-M    'P1'
_symmetry_Int_Tables_number       1
_symmetry_cell_setting            triclinic
loop_
_symmetry_equiv_pos_as_xyz
  x,y,z
_cell_length_a                    25.9641
_cell_length_b                    25.9643
_cell_length_c                    25.9653
_cell_angle_alpha                 89.9990
_cell_angle_beta                  90.0000
_cell_angle_gamma                 90.0000
loop_
_atom_site_label
_atom_site_type_symbol
_atom_site_fract_x
_atom_site_fract_y
_atom_site_fract_z
_atom_site_U_iso_or_equiv
_atom_site_adp_type
_atom_site_occupancy
C1     C     0.39012   0.25000   0.25000   0.00000  Uiso   1.00
C2     C     0.60988   0.25000   0.25000   0.00000  Uiso   1.00
C3     C     0.97329   0.73245   0.20656   0.00000  Uiso   1.00
C4     C     0.02671   0.76755   0.70656   0.00000  Uiso   1.00
C5     C     0.97329   0.23245   0.29343   0.00000  Uiso   1.00
C6     C     0.02671   0.73245   0.20656   0.00000  Uiso   1.00
C7     C     0.97329   0.26755   0.79343   0.00000  Uiso   1.00
C8     C     0.76755   0.70656   0.02671   0.00000  Uiso   1.00
C9     C     0.23245   0.29344   0.97329   0.00000  Uiso   1.00
C10    C     0.73247   0.20655   0.02671   0.00000  Uiso   1.00
C11    C     0.26753   0.79345   0.97329   0.00000  Uiso   1.00
C12    C     0.23245   0.29344   0.02671   0.00000  Uiso   1.00
C13    C     0.25000   0.75000   0.39012   0.00000  Uiso   1.00
C14    C     0.76755   0.70656   0.97329   0.00000  Uiso   1.00
C15    C     0.26753   0.79345   0.02671   0.00000  Uiso   1.00
C16    C     0.73247   0.20655   0.97329   0.00000  Uiso   1.00
C17    C     0.23245   0.70656   0.97329   0.00000  Uiso   1.00
C18    C     0.76755   0.29344   0.02671   0.00000  Uiso   1.00
C19    C     0.26753   0.20655   0.97329   0.00000  Uiso   1.00
C20    C     0.73247   0.79345   0.02671   0.00000  Uiso   1.00
C21    C     0.76755   0.29344   0.97329   0.00000  Uiso   1.00
C22    C     0.23245   0.70656   0.02671   0.00000  Uiso   1.00
C23    C     0.73247   0.79345   0.97329   0.00000  Uiso   1.00
C24    C     0.75000   0.25000   0.60988   0.00000  Uiso   1.00
C25    C     0.26753   0.20655   0.02671   0.00000  Uiso   1.00
C26    C     0.70652   0.47329   0.73253   0.00000  Uiso   1.00
C27    C     0.29347   0.52671   0.26747   0.00000  Uiso   1.00
C28    C     0.70652   0.47329   0.26747   0.00000  Uiso   1.00
C29    C     0.29348   0.52671   0.73253   0.00000  Uiso   1.00
C30    C     0.29348   0.47329   0.26747   0.00000  Uiso   1.00
C31    C     0.70652   0.52671   0.73253   0.00000  Uiso   1.00
C32    C     0.29347   0.47329   0.73253   0.00000  Uiso   1.00
C33    C     0.70652   0.52671   0.26747   0.00000  Uiso   1.00
C34    C     0.47329   0.29360   0.26714   0.00000  Uiso   1.00
C35    C     0.60988   0.75000   0.25000   0.00000  Uiso   1.00
C36    C     0.52671   0.70640   0.73285   0.00000  Uiso   1.00
C37    C     0.47329   0.73244   0.29343   0.00000  Uiso   1.00
C38    C     0.52671   0.26756   0.70657   0.00000  Uiso   1.00
C39    C     0.47329   0.70640   0.73285   0.00000  Uiso   1.00
C40    C     0.52671   0.29360   0.26714   0.00000  Uiso   1.00
C41    C     0.47329   0.26756   0.70657   0.00000  Uiso   1.00
C42    C     0.52671   0.73244   0.29343   0.00000  Uiso   1.00
C43    C     0.26753   0.70655   0.52671   0.00000  Uiso   1.00
C44    C     0.73247   0.29345   0.47329   0.00000  Uiso   1.00
C45    C     0.73247   0.70655   0.52671   0.00000  Uiso   1.00
C46    C     0.39012   0.25000   0.75000   0.00000  Uiso   1.00
C47    C     0.26753   0.29345   0.47329   0.00000  Uiso   1.00
C48    C     0.73247   0.29345   0.52671   0.00000  Uiso   1.00
C49    C     0.26753   0.70655   0.47329   0.00000  Uiso   1.00
C50    C     0.26753   0.29345   0.52671   0.00000  Uiso   1.00
C51    C     0.73247   0.70655   0.47329   0.00000  Uiso   1.00
C52    C     0.25001   0.55376   0.24999   0.00000  Uiso   1.00
C53    C     0.74999   0.44624   0.75001   0.00000  Uiso   1.00
C54    C     0.25001   0.55376   0.75001   0.00000  Uiso   1.00
C55    C     0.74999   0.44624   0.24999   0.00000  Uiso   1.00
C56    C     0.74999   0.55376   0.75001   0.00000  Uiso   1.00
C57    C     0.75000   0.75000   0.60988   0.00000  Uiso   1.00
C58    C     0.25001   0.44624   0.24999   0.00000  Uiso   1.00
C59    C     0.74999   0.55376   0.24999   0.00000  Uiso   1.00
C60    C     0.25001   0.44624   0.75001   0.00000  Uiso   1.00
C61    C     0.55376   0.75000   0.75000   0.00000  Uiso   1.00
C62    C     0.44624   0.25000   0.25000   0.00000  Uiso   1.00
C63    C     0.55376   0.25000   0.75000   0.00000  Uiso   1.00
C64    C     0.44624   0.75000   0.25000   0.00000  Uiso   1.00
C65    C     0.55376   0.25000   0.25000   0.00000  Uiso   1.00
C66    C     0.44624   0.75000   0.75000   0.00000  Uiso   1.00
C67    C     0.55376   0.75000   0.25000   0.00000  Uiso   1.00
C68    C     0.25000   0.25000   0.39012   0.00000  Uiso   1.00
C69    C     0.44624   0.25000   0.75000   0.00000  Uiso   1.00
C70    C     0.75001   0.25001   0.44624   0.00000  Uiso   1.00
C71    C     0.24999   0.75000   0.55376   0.00000  Uiso   1.00
C72    C     0.24999   0.25001   0.44624   0.00000  Uiso   1.00
C73    C     0.75001   0.75000   0.55376   0.00000  Uiso   1.00
C74    C     0.24999   0.75000   0.44624   0.00000  Uiso   1.00
C75    C     0.75000   0.25000   0.55376   0.00000  Uiso   1.00
C76    C     0.75000   0.75000   0.44624   0.00000  Uiso   1.00
C77    C     0.24999   0.25000   0.55376   0.00000  Uiso   1.00
C78    C     0.74999   0.05376   0.25001   0.00000  Uiso   1.00
C79    C     0.25000   0.39012   0.75000   0.00000  Uiso   1.00
C80    C     0.25001   0.94624   0.74999   0.00000  Uiso   1.00
C81    C     0.25001   0.05376   0.25001   0.00000  Uiso   1.00
C82    C     0.74999   0.94624   0.74999   0.00000  Uiso   1.00
C83    C     0.25001   0.05376   0.74999   0.00000  Uiso   1.00
C84    C     0.74999   0.94624   0.25001   0.00000  Uiso   1.00
C85    C     0.74999   0.05376   0.74999   0.00000  Uiso   1.00
C86    C     0.25001   0.94624   0.25001   0.00000  Uiso   1.00
C87    C     0.05376   0.75000   0.25000   0.00000  Uiso   1.00
C88    C     0.94624   0.25000   0.75000   0.00000  Uiso   1.00
C89    C     0.05376   0.75000   0.75000   0.00000  Uiso   1.00
C90    C     0.75000   0.60988   0.25000   0.00000  Uiso   1.00
C91    C     0.94624   0.25000   0.25000   0.00000  Uiso   1.00
C92    C     0.05376   0.25000   0.75000   0.00000  Uiso   1.00
C93    C     0.94624   0.75000   0.25000   0.00000  Uiso   1.00
C94    C     0.05376   0.25000   0.25000   0.00000  Uiso   1.00
C95    C     0.94624   0.75000   0.75000   0.00000  Uiso   1.00
C96    C     0.75001   0.75001   0.94624   0.00000  Uiso   1.00
C97    C     0.24999   0.25000   0.05376   0.00000  Uiso   1.00
C98    C     0.75000   0.25000   0.94624   0.00000  Uiso   1.00
C99    C     0.24999   0.75000   0.05376   0.00000  Uiso   1.00
C100   C     0.24999   0.25000   0.94624   0.00000  Uiso   1.00
C101   C     0.25000   0.60988   0.25000   0.00000  Uiso   1.00
C102   C     0.75000   0.75000   0.05376   0.00000  Uiso   1.00
C103   C     0.24999   0.75001   0.94624   0.00000  Uiso   1.00
C104   C     0.75001   0.25000   0.05376   0.00000  Uiso   1.00
C105   C     0.60988   0.75000   0.75000   0.00000  Uiso   1.00
C106   C     0.75000   0.39012   0.75000   0.00000  Uiso   1.00
C107   C     0.75000   0.60988   0.75000   0.00000  Uiso   1.00
C108   C     0.25000   0.39012   0.25000   0.00000  Uiso   1.00
C109   C     0.75000   0.39012   0.25000   0.00000  Uiso   1.00
C110   C     0.25000   0.60988   0.75000   0.00000  Uiso   1.00
C111   C     0.89012   0.75000   0.25000   0.00000  Uiso   1.00
C112   C     0.10988   0.25000   0.75000   0.00000  Uiso   1.00
C113   C     0.25000   0.75000   0.10988   0.00000  Uiso   1.00
C114   C     0.75000   0.25000   0.89012   0.00000  Uiso   1.00
C115   C     0.10988   0.75000   0.75000   0.00000  Uiso   1.00
C116   C     0.25000   0.25000   0.60988   0.00000  Uiso   1.00
C117   C     0.89012   0.25000   0.25000   0.00000  Uiso   1.00
C118   C     0.75000   0.75000   0.89012   0.00000  Uiso   1.00
C119   C     0.25000   0.25000   0.10988   0.00000  Uiso   1.00
C120   C     0.89012   0.25000   0.75000   0.00000  Uiso   1.00
C121   C     0.10988   0.75000   0.25000   0.00000  Uiso   1.00
C122   C     0.25000   0.25000   0.89012   0.00000  Uiso   1.00
C123   C     0.75000   0.75000   0.10988   0.00000  Uiso   1.00
C124   C     0.10988   0.25000   0.25000   0.00000  Uiso   1.00
C125   C     0.89012   0.75000   0.75000   0.00000  Uiso   1.00
C126   C     0.75000   0.25000   0.10988   0.00000  Uiso   1.00
C127   C     0.75000   0.75000   0.39012   0.00000  Uiso   1.00
C128   C     0.25000   0.75000   0.89012   0.00000  Uiso   1.00
C129   C     0.75000   0.89012   0.75000   0.00000  Uiso   1.00
C130   C     0.25000   0.10988   0.25000   0.00000  Uiso   1.00
C131   C     0.75000   0.10988   0.25000   0.00000  Uiso   1.00
C132   C     0.25000   0.89012   0.75000   0.00000  Uiso   1.00
C133   C     0.25000   0.10988   0.75000   0.00000  Uiso   1.00
C134   C     0.75000   0.89012   0.25000   0.00000  Uiso   1.00
C135   C     0.25000   0.89012   0.25000   0.00000  Uiso   1.00
C136   C     0.75000   0.10988   0.75000   0.00000  Uiso   1.00
C137   C     0.20655   0.47329   0.23250   0.00000  Uiso   1.00
C138   C     0.60988   0.25000   0.75000   0.00000  Uiso   1.00
C139   C     0.79345   0.52671   0.76749   0.00000  Uiso   1.00
C140   C     0.20655   0.47329   0.76749   0.00000  Uiso   1.00
C141   C     0.79345   0.52671   0.23251   0.00000  Uiso   1.00
C142   C     0.79345   0.47329   0.76749   0.00000  Uiso   1.00
C143   C     0.20655   0.52671   0.23251   0.00000  Uiso   1.00
C144   C     0.79345   0.47329   0.23250   0.00000  Uiso   1.00
C145   C     0.20655   0.52671   0.76749   0.00000  Uiso   1.00
C146   C     0.47329   0.79360   0.76714   0.00000  Uiso   1.00
C147   C     0.52671   0.20640   0.23286   0.00000  Uiso   1.00
C148   C     0.47329   0.23244   0.79343   0.00000  Uiso   1.00
C149   C     0.39012   0.75000   0.25000   0.00000  Uiso   1.00
C150   C     0.52671   0.76756   0.20657   0.00000  Uiso   1.00
C151   C     0.47329   0.20640   0.23286   0.00000  Uiso   1.00
C152   C     0.52671   0.79360   0.76714   0.00000  Uiso   1.00
C153   C     0.47329   0.76756   0.20657   0.00000  Uiso   1.00
C154   C     0.52671   0.23244   0.79343   0.00000  Uiso   1.00
C155   C     0.76755   0.20656   0.52671   0.00000  Uiso   1.00
C156   C     0.23245   0.79344   0.47329   0.00000  Uiso   1.00
C157   C     0.23245   0.20656   0.52671   0.00000  Uiso   1.00
C158   C     0.76755   0.79344   0.47329   0.00000  Uiso   1.00
C159   C     0.23245   0.79344   0.52671   0.00000  Uiso   1.00
C160   C     0.75000   0.25000   0.39012   0.00000  Uiso   1.00
C161   C     0.76755   0.20656   0.47329   0.00000  Uiso   1.00
C162   C     0.76755   0.79344   0.52671   0.00000  Uiso   1.00
C163   C     0.23245   0.20656   0.47329   0.00000  Uiso   1.00
C164   C     0.70652   0.97329   0.23253   0.00000  Uiso   1.00
C165   C     0.29347   0.02671   0.76747   0.00000  Uiso   1.00
C166   C     0.20655   0.97329   0.26749   0.00000  Uiso   1.00
C167   C     0.79345   0.02671   0.73251   0.00000  Uiso   1.00
C168   C     0.29348   0.97329   0.76747   0.00000  Uiso   1.00
C169   C     0.70652   0.02671   0.23253   0.00000  Uiso   1.00
C170   C     0.79345   0.97329   0.73250   0.00000  Uiso   1.00
C171   C     0.25000   0.75000   0.60988   0.00000  Uiso   1.00
C172   C     0.20655   0.02671   0.26749   0.00000  Uiso   1.00
C173   C     0.70652   0.02671   0.76747   0.00000  Uiso   1.00
C174   C     0.29347   0.97329   0.23253   0.00000  Uiso   1.00
C175   C     0.20655   0.02671   0.73251   0.00000  Uiso   1.00
C176   C     0.79345   0.97329   0.26749   0.00000  Uiso   1.00
C177   C     0.29348   0.02671   0.23253   0.00000  Uiso   1.00
C178   C     0.70652   0.97329   0.76747   0.00000  Uiso   1.00
C179   C     0.79345   0.02671   0.26749   0.00000  Uiso   1.00
C180   C     0.20655   0.97329   0.73250   0.00000  Uiso   1.00
C181   C     0.97329   0.76755   0.29343   0.00000  Uiso   1.00
C182   C     0.39012   0.75000   0.75000   0.00000  Uiso   1.00
C183   C     0.02671   0.23245   0.70656   0.00000  Uiso   1.00
C184   C     0.97329   0.73245   0.79343   0.00000  Uiso   1.00
C185   C     0.02671   0.26755   0.20657   0.00000  Uiso   1.00
C186   C     0.97329   0.23245   0.70656   0.00000  Uiso   1.00
C187   C     0.02671   0.76755   0.29343   0.00000  Uiso   1.00
C188   C     0.97329   0.26755   0.20657   0.00000  Uiso   1.00
C189   C     0.02671   0.73245   0.79343   0.00000  Uiso   1.00
C190   C     0.02671   0.23245   0.29343   0.00000  Uiso   1.00
C191   C     0.97329   0.76755   0.70656   0.00000  Uiso   1.00
C192   C     0.02671   0.26755   0.79343   0.00000  Uiso   1.00
F1     F     0.16351   0.44820   0.21652   0.00000  Uiso   1.00
F2     F     0.55181   0.16324   0.21723   0.00000  Uiso   1.00
F3     F     0.44820   0.21637   0.83644   0.00000  Uiso   1.00
F4     F     0.55179   0.78363   0.16356   0.00000  Uiso   1.00
F5     F     0.44818   0.16324   0.21723   0.00000  Uiso   1.00
F6     F     0.55181   0.83676   0.78278   0.00000  Uiso   1.00
F7     F     0.44820   0.78363   0.16356   0.00000  Uiso   1.00
F8     F     0.55179   0.21637   0.83644   0.00000  Uiso   1.00
F9     F     0.78359   0.16354   0.55179   0.00000  Uiso   1.00
F10    F     0.21641   0.83646   0.44820   0.00000  Uiso   1.00
F11    F     0.21641   0.16354   0.55179   0.00000  Uiso   1.00
F12    F     0.83649   0.55180   0.78348   0.00000  Uiso   1.00
F13    F     0.78359   0.83646   0.44820   0.00000  Uiso   1.00
F14    F     0.21641   0.83646   0.55179   0.00000  Uiso   1.00
F15    F     0.78359   0.16355   0.44821   0.00000  Uiso   1.00
F16    F     0.78359   0.83646   0.55179   0.00000  Uiso   1.00
F17    F     0.21641   0.16355   0.44821   0.00000  Uiso   1.00
F18    F     0.66349   0.94820   0.21654   0.00000  Uiso   1.00
F19    F     0.33651   0.05180   0.78346   0.00000  Uiso   1.00
F20    F     0.16351   0.94820   0.28348   0.00000  Uiso   1.00
F21    F     0.83649   0.05180   0.71652   0.00000  Uiso   1.00
F22    F     0.33652   0.94820   0.78344   0.00000  Uiso   1.00
F23    F     0.16351   0.44820   0.78348   0.00000  Uiso   1.00
F24    F     0.66348   0.05180   0.21656   0.00000  Uiso   1.00
F25    F     0.83649   0.94820   0.71652   0.00000  Uiso   1.00
F26    F     0.16351   0.05180   0.28348   0.00000  Uiso   1.00
F27    F     0.66349   0.05180   0.78346   0.00000  Uiso   1.00
F28    F     0.33651   0.94820   0.21654   0.00000  Uiso   1.00
F29    F     0.16351   0.05180   0.71652   0.00000  Uiso   1.00
F30    F     0.83649   0.94820   0.28348   0.00000  Uiso   1.00
F31    F     0.33652   0.05180   0.21656   0.00000  Uiso   1.00
F32    F     0.66348   0.94820   0.78344   0.00000  Uiso   1.00
F33    F     0.83649   0.05180   0.28348   0.00000  Uiso   1.00
F34    F     0.83649   0.55180   0.21652   0.00000  Uiso   1.00
F35    F     0.16351   0.94820   0.71652   0.00000  Uiso   1.00
F36    F     0.94820   0.78361   0.33645   0.00000  Uiso   1.00
F37    F     0.05179   0.21640   0.66355   0.00000  Uiso   1.00
F38    F     0.94820   0.71639   0.83645   0.00000  Uiso   1.00
F39    F     0.05179   0.28361   0.16355   0.00000  Uiso   1.00
F40    F     0.94820   0.21640   0.66355   0.00000  Uiso   1.00
F41    F     0.05179   0.78361   0.33645   0.00000  Uiso   1.00
F42    F     0.94820   0.28361   0.16355   0.00000  Uiso   1.00
F43    F     0.05179   0.71639   0.83645   0.00000  Uiso   1.00
F44    F     0.05179   0.21639   0.33645   0.00000  Uiso   1.00
F45    F     0.83649   0.44820   0.78348   0.00000  Uiso   1.00
F46    F     0.94820   0.78361   0.66355   0.00000  Uiso   1.00
F47    F     0.05179   0.28360   0.83645   0.00000  Uiso   1.00
F48    F     0.94820   0.71639   0.16355   0.00000  Uiso   1.00
F49    F     0.05179   0.78361   0.66355   0.00000  Uiso   1.00
F50    F     0.94820   0.21639   0.33645   0.00000  Uiso   1.00
F51    F     0.05179   0.71639   0.16355   0.00000  Uiso   1.00
F52    F     0.94820   0.28360   0.83645   0.00000  Uiso   1.00
F53    F     0.78359   0.66354   0.05179   0.00000  Uiso   1.00
F54    F     0.21641   0.33646   0.94820   0.00000  Uiso   1.00
F55    F     0.71644   0.16353   0.05179   0.00000  Uiso   1.00
F56    F     0.16351   0.55180   0.21652   0.00000  Uiso   1.00
F57    F     0.28356   0.83647   0.94820   0.00000  Uiso   1.00
F58    F     0.21641   0.33646   0.05179   0.00000  Uiso   1.00
F59    F     0.78359   0.66355   0.94821   0.00000  Uiso   1.00
F60    F     0.28357   0.83647   0.05179   0.00000  Uiso   1.00
F61    F     0.71643   0.16354   0.94821   0.00000  Uiso   1.00
F62    F     0.21641   0.66355   0.94821   0.00000  Uiso   1.00
F63    F     0.78359   0.33646   0.05179   0.00000  Uiso   1.00
F64    F     0.28357   0.16354   0.94821   0.00000  Uiso   1.00
F65    F     0.71643   0.83647   0.05179   0.00000  Uiso   1.00
F66    F     0.78359   0.33646   0.94820   0.00000  Uiso   1.00
F67    F     0.83649   0.44820   0.21652   0.00000  Uiso   1.00
F68    F     0.21641   0.66354   0.05179   0.00000  Uiso   1.00
F69    F     0.71643   0.83647   0.94820   0.00000  Uiso   1.00
F70    F     0.28356   0.16353   0.05179   0.00000  Uiso   1.00
F71    F     0.66349   0.44820   0.71654   0.00000  Uiso   1.00
F72    F     0.33651   0.55180   0.28346   0.00000  Uiso   1.00
F73    F     0.66348   0.44820   0.28344   0.00000  Uiso   1.00
F74    F     0.33652   0.55180   0.71656   0.00000  Uiso   1.00
F75    F     0.33652   0.44820   0.28344   0.00000  Uiso   1.00
F76    F     0.66348   0.55180   0.71656   0.00000  Uiso   1.00
F77    F     0.33651   0.44820   0.71654   0.00000  Uiso   1.00
F78    F     0.16351   0.55180   0.78348   0.00000  Uiso   1.00
F79    F     0.66349   0.55180   0.28346   0.00000  Uiso   1.00
F80    F     0.44818   0.33676   0.28277   0.00000  Uiso   1.00
F81    F     0.55181   0.66324   0.71722   0.00000  Uiso   1.00
F82    F     0.44820   0.71637   0.33644   0.00000  Uiso   1.00
F83    F     0.55179   0.28363   0.66356   0.00000  Uiso   1.00
F84    F     0.44818   0.66324   0.71722   0.00000  Uiso   1.00
F85    F     0.55181   0.33676   0.28277   0.00000  Uiso   1.00
F86    F     0.44820   0.28363   0.66356   0.00000  Uiso   1.00
F87    F     0.55179   0.71637   0.33644   0.00000  Uiso   1.00
F88    F     0.28356   0.66353   0.55179   0.00000  Uiso   1.00
F89    F     0.44818   0.83676   0.78278   0.00000  Uiso   1.00
F90    F     0.71644   0.33647   0.44820   0.00000  Uiso   1.00
F91    F     0.71644   0.66353   0.55179   0.00000  Uiso   1.00
F92    F     0.28356   0.33647   0.44820   0.00000  Uiso   1.00
F93    F     0.71643   0.33647   0.55179   0.00000  Uiso   1.00
F94    F     0.28357   0.66354   0.44821   0.00000  Uiso   1.00
F95    F     0.28357   0.33647   0.55179   0.00000  Uiso   1.00
F96    F     0.71643   0.66354   0.44821   0.00000  Uiso   1.00
O1     O     0.25000   0.25000   0.25000   0.00000  Uiso   1.00
O2     O     0.63420   0.71971   0.71971   0.00000  Uiso   1.00
O3     O     0.21971   0.36580   0.21971   0.00000  Uiso   1.00
O4     O     0.21971   0.63420   0.21971   0.00000  Uiso   1.00
O5     O     0.78029   0.36580   0.78029   0.00000  Uiso   1.00
O6     O     0.21971   0.36580   0.78029   0.00000  Uiso   1.00
O7     O     0.78029   0.63420   0.21971   0.00000  Uiso   1.00
O8     O     0.28029   0.28029   0.63420   0.00000  Uiso   1.00
O9     O     0.71971   0.71971   0.36580   0.00000  Uiso   1.00
O10    O     0.63420   0.28029   0.71971   0.00000  Uiso   1.00
O11    O     0.36580   0.71971   0.28029   0.00000  Uiso   1.00
O12    O     0.71971   0.28029   0.36580   0.00000  Uiso   1.00
O13    O     0.28029   0.71971   0.63420   0.00000  Uiso   1.00
O14    O     0.36580   0.71971   0.71971   0.00000  Uiso   1.00
O15    O     0.63420   0.28029   0.28029   0.00000  Uiso   1.00
O16    O     0.28029   0.71971   0.36580   0.00000  Uiso   1.00
O17    O     0.75000   0.75000   0.75000   0.00000  Uiso   1.00
O18    O     0.71971   0.28029   0.63420   0.00000  Uiso   1.00
O19    O     0.63420   0.71971   0.28029   0.00000  Uiso   1.00
O20    O     0.36580   0.28029   0.71971   0.00000  Uiso   1.00
O21    O     0.71971   0.71971   0.63420   0.00000  Uiso   1.00
O22    O     0.28029   0.28029   0.36580   0.00000  Uiso   1.00
O23    O     0.28029   0.36580   0.71971   0.00000  Uiso   1.00
O24    O     0.71971   0.63420   0.28029   0.00000  Uiso   1.00
O25    O     0.28029   0.63420   0.28029   0.00000  Uiso   1.00
O26    O     0.71971   0.36580   0.71971   0.00000  Uiso   1.00
O27    O     0.71971   0.63420   0.71971   0.00000  Uiso   1.00
O28    O     0.25000   0.25000   0.75000   0.00000  Uiso   1.00
O29    O     0.28029   0.36580   0.28029   0.00000  Uiso   1.00
O30    O     0.71971   0.36580   0.28029   0.00000  Uiso   1.00
O31    O     0.28029   0.63420   0.71971   0.00000  Uiso   1.00
O32    O     0.86580   0.78029   0.28029   0.00000  Uiso   1.00
O33    O     0.13420   0.21971   0.71971   0.00000  Uiso   1.00
O34    O     0.28029   0.78029   0.13420   0.00000  Uiso   1.00
O35    O     0.71971   0.21971   0.86580   0.00000  Uiso   1.00
O36    O     0.13420   0.78029   0.71971   0.00000  Uiso   1.00
O37    O     0.86580   0.21971   0.28029   0.00000  Uiso   1.00
O38    O     0.71971   0.78029   0.86580   0.00000  Uiso   1.00
O39    O     0.75000   0.75000   0.25000   0.00000  Uiso   1.00
O40    O     0.28029   0.21971   0.13420   0.00000  Uiso   1.00
O41    O     0.86580   0.21971   0.71971   0.00000  Uiso   1.00
O42    O     0.13420   0.78029   0.28029   0.00000  Uiso   1.00
O43    O     0.28029   0.21971   0.86580   0.00000  Uiso   1.00
O44    O     0.71971   0.78029   0.13420   0.00000  Uiso   1.00
O45    O     0.13420   0.21971   0.28029   0.00000  Uiso   1.00
O46    O     0.86580   0.78029   0.71971   0.00000  Uiso   1.00
O47    O     0.71971   0.21971   0.13420   0.00000  Uiso   1.00
O48    O     0.28029   0.78029   0.86580   0.00000  Uiso   1.00
O49    O     0.78029   0.71971   0.13420   0.00000  Uiso   1.00
O50    O     0.75000   0.25000   0.75000   0.00000  Uiso   1.00
O51    O     0.21971   0.28029   0.86580   0.00000  Uiso   1.00
O52    O     0.78029   0.86580   0.71971   0.00000  Uiso   1.00
O53    O     0.21971   0.13420   0.28029   0.00000  Uiso   1.00
O54    O     0.78029   0.28029   0.86580   0.00000  Uiso   1.00
O55    O     0.21971   0.71971   0.13420   0.00000  Uiso   1.00
O56    O     0.78029   0.13420   0.28029   0.00000  Uiso   1.00
O57    O     0.21971   0.86580   0.71971   0.00000  Uiso   1.00
O58    O     0.21971   0.28029   0.13420   0.00000  Uiso   1.00
O59    O     0.78029   0.71971   0.86580   0.00000  Uiso   1.00
O60    O     0.21971   0.13420   0.71971   0.00000  Uiso   1.00
O61    O     0.25000   0.75000   0.25000   0.00000  Uiso   1.00
O62    O     0.78029   0.86580   0.28029   0.00000  Uiso   1.00
O63    O     0.21971   0.71971   0.86580   0.00000  Uiso   1.00
O64    O     0.78029   0.28029   0.13420   0.00000  Uiso   1.00
O65    O     0.21971   0.86580   0.28029   0.00000  Uiso   1.00
O66    O     0.78029   0.13420   0.71971   0.00000  Uiso   1.00
O67    O     0.71971   0.86580   0.21971   0.00000  Uiso   1.00
O68    O     0.28029   0.13420   0.78029   0.00000  Uiso   1.00
O69    O     0.86580   0.28029   0.21971   0.00000  Uiso   1.00
O70    O     0.13420   0.71971   0.78029   0.00000  Uiso   1.00
O71    O     0.28029   0.13420   0.21971   0.00000  Uiso   1.00
O72    O     0.75000   0.25000   0.25000   0.00000  Uiso   1.00
O73    O     0.71971   0.86580   0.78029   0.00000  Uiso   1.00
O74    O     0.13420   0.71971   0.21971   0.00000  Uiso   1.00
O75    O     0.86580   0.28029   0.78029   0.00000  Uiso   1.00
O76    O     0.28029   0.86580   0.78029   0.00000  Uiso   1.00
O77    O     0.71971   0.13420   0.21971   0.00000  Uiso   1.00
O78    O     0.13420   0.28029   0.78029   0.00000  Uiso   1.00
O79    O     0.86580   0.71971   0.21971   0.00000  Uiso   1.00
O80    O     0.71971   0.13420   0.78029   0.00000  Uiso   1.00
O81    O     0.28029   0.86580   0.21971   0.00000  Uiso   1.00
O82    O     0.86580   0.71971   0.78029   0.00000  Uiso   1.00
O83    O     0.25000   0.75000   0.75000   0.00000  Uiso   1.00
O84    O     0.13420   0.28029   0.21971   0.00000  Uiso   1.00
O85    O     0.36580   0.78029   0.78029   0.00000  Uiso   1.00
O86    O     0.63420   0.21971   0.21971   0.00000  Uiso   1.00
O87    O     0.78029   0.78029   0.63420   0.00000  Uiso   1.00
O88    O     0.21971   0.21971   0.36580   0.00000  Uiso   1.00
O89    O     0.63420   0.78029   0.21971   0.00000  Uiso   1.00
O90    O     0.36580   0.21971   0.78029   0.00000  Uiso   1.00
O91    O     0.21971   0.78029   0.36580   0.00000  Uiso   1.00
O92    O     0.78029   0.21971   0.63420   0.00000  Uiso   1.00
O93    O     0.36580   0.21971   0.21971   0.00000  Uiso   1.00
O94    O     0.36580   0.28029   0.28029   0.00000  Uiso   1.00
O95    O     0.63420   0.78029   0.78029   0.00000  Uiso   1.00
O96    O     0.78029   0.21971   0.36580   0.00000  Uiso   1.00
O97    O     0.21971   0.78029   0.63420   0.00000  Uiso   1.00
O98    O     0.63420   0.21971   0.78029   0.00000  Uiso   1.00
O99    O     0.36580   0.78029   0.21971   0.00000  Uiso   1.00
O100   O     0.21971   0.21971   0.63420   0.00000  Uiso   1.00
O101   O     0.78029   0.78029   0.36580   0.00000  Uiso   1.00
O102   O     0.78029   0.36580   0.21971   0.00000  Uiso   1.00
O103   O     0.21971   0.63420   0.78029   0.00000  Uiso   1.00
O104   O     0.78029   0.63420   0.78029   0.00000  Uiso   1.00
Zn1    Zn    0.20660   0.29340   0.20660   0.00000  Uiso   1.00
Zn2    Zn    0.70660   0.20660   0.20660   0.00000  Uiso   1.00
Zn3    Zn    0.29340   0.20660   0.79340   0.00000  Uiso   1.00
Zn4    Zn    0.70660   0.79340   0.20660   0.00000  Uiso   1.00
Zn5    Zn    0.29340   0.20660   0.20660   0.00000  Uiso   1.00
Zn6    Zn    0.70660   0.79340   0.79340   0.00000  Uiso   1.00
Zn7    Zn    0.29340   0.79340   0.20660   0.00000  Uiso   1.00
Zn8    Zn    0.70660   0.20660   0.79340   0.00000  Uiso   1.00
Zn9    Zn    0.79340   0.20660   0.70660   0.00000  Uiso   1.00
Zn10   Zn    0.20660   0.79340   0.29340   0.00000  Uiso   1.00
Zn11   Zn    0.20660   0.20660   0.70660   0.00000  Uiso   1.00
Zn12   Zn    0.79340   0.70660   0.79340   0.00000  Uiso   1.00
Zn13   Zn    0.79340   0.79340   0.29340   0.00000  Uiso   1.00
Zn14   Zn    0.20660   0.79340   0.70660   0.00000  Uiso   1.00
Zn15   Zn    0.79340   0.20660   0.29340   0.00000  Uiso   1.00
Zn16   Zn    0.79340   0.79340   0.70660   0.00000  Uiso   1.00
Zn17   Zn    0.20660   0.20660   0.29340   0.00000  Uiso   1.00
Zn18   Zn    0.70660   0.29340   0.70660   0.00000  Uiso   1.00
Zn19   Zn    0.29340   0.70660   0.29340   0.00000  Uiso   1.00
Zn20   Zn    0.70660   0.29340   0.29340   0.00000  Uiso   1.00
Zn21   Zn    0.29340   0.70660   0.70660   0.00000  Uiso   1.00
Zn22   Zn    0.29340   0.29340   0.29340   0.00000  Uiso   1.00
Zn23   Zn    0.20660   0.29340   0.79340   0.00000  Uiso   1.00
Zn24   Zn    0.70660   0.70660   0.70660   0.00000  Uiso   1.00
Zn25   Zn    0.29340   0.29340   0.70660   0.00000  Uiso   1.00
Zn26   Zn    0.70660   0.70660   0.29340   0.00000  Uiso   1.00
Zn27   Zn    0.79340   0.70660   0.20660   0.00000  Uiso   1.00
Zn28   Zn    0.79340   0.29340   0.79340   0.00000  Uiso   1.00
Zn29   Zn    0.20660   0.70660   0.20660   0.00000  Uiso   1.00
Zn30   Zn    0.79340   0.29340   0.20660   0.00000  Uiso   1.00
Zn31   Zn    0.20660   0.70660   0.79340   0.00000  Uiso   1.00
Zn32   Zn    0.29340   0.79340   0.79340   0.00000  Uiso   1.00
loop_
_geom_bond_atom_site_label_1
_geom_bond_atom_site_label_2
_geom_bond_distance
_geom_bond_site_symmetry_2
_ccdc_geom_bond_type
C1     O93     1.279   .     A
C1     C62     1.457   .     S
C1     O94     1.279   .     A
C2     C65     1.457   .     S
C2     O15     1.279   .     A
C2     O86     1.279   .     A
C3     C93     1.405   .     A
C3     F48     1.358   .     S
C3     C6      1.387   1_655 S
C4     C89     1.405   .     A
C4     F49     1.358   .     S
C4     C191    1.387   1_455 S
C5     C91     1.405   .     A
C5     F50     1.358   .     S
C5     C190    1.387   1_655 S
C6     C87     1.405   .     A
C6     F51     1.358   .     S
C6     C3      1.387   1_455 S
C7     C88     1.405   .     A
C7     F52     1.358   .     S
C7     C192    1.387   1_655 S
C8     F53     1.358   .     S
C8     C102    1.405   .     A
C8     C14     1.387   1_554 S
C9     F54     1.358   .     S
C9     C100    1.405   .     A
C9     C12     1.387   1_556 S
C10    F55     1.358   .     S
C10    C104    1.405   .     A
C10    C16     1.387   1_554 S
C11    F57     1.358   .     S
C11    C103    1.405   .     A
C11    C15     1.387   1_556 S
C12    C97     1.405   .     A
C12    F58     1.358   .     S
C12    C9      1.387   1_554 S
C13    O91     1.279   .     A
C13    C74     1.457   .     S
C13    O16     1.279   .     A
C14    F59     1.358   .     S
C14    C96     1.405   .     A
C14    C8      1.387   1_556 S
C15    F60     1.358   .     S
C15    C99     1.405   .     A
C15    C11     1.387   1_554 S
C16    C98     1.405   .     A
C16    F61     1.358   .     S
C16    C10     1.387   1_556 S
C17    F62     1.358   .     S
C17    C103    1.405   .     A
C17    C22     1.387   1_556 S
C18    C104    1.405   .     A
C18    F63     1.358   .     S
C18    C21     1.387   1_554 S
C19    C100    1.405   .     A
C19    F64     1.358   .     S
C19    C25     1.387   1_556 S
C20    F65     1.358   .     S
C20    C102    1.405   .     A
C20    C23     1.387   1_554 S
C21    C98     1.405   .     A
C21    F66     1.358   .     S
C21    C18     1.387   1_556 S
C22    F68     1.358   .     S
C22    C99     1.405   .     A
C22    C17     1.387   1_554 S
C23    F69     1.358   .     S
C23    C96     1.405   .     A
C23    C20     1.387   1_556 S
C24    O92     1.279   .     A
C24    C75     1.457   .     S
C24    O18     1.279   .     A
C25    F70     1.358   .     S
C25    C97     1.405   .     A
C25    C19     1.387   1_554 S
C26    F71     1.358   .     S
C26    C31     1.387   .     A
C26    C53     1.405   .     A
C27    F72     1.358   .     S
C27    C30     1.387   .     A
C27    C52     1.405   .     A
C28    F73     1.358   .     S
C28    C33     1.387   .     A
C28    C55     1.405   .     A
C29    F74     1.358   .     S
C29    C32     1.387   .     A
C29    C54     1.405   .     A
C30    F75     1.358   .     S
C30    C58     1.405   .     A
C31    C56     1.405   .     A
C31    F76     1.358   .     S
C32    F77     1.358   .     S
C32    C60     1.405   .     A
C33    C59     1.405   .     A
C33    F79     1.358   .     S
C34    F80     1.358   .     S
C34    C62     1.405   .     A
C34    C40     1.387   .     A
C35    C67     1.457   .     S
C35    O19     1.279   .     A
C35    O89     1.279   .     A
C36    C39     1.387   .     A
C36    C61     1.405   .     A
C36    F81     1.358   .     S
C37    C42     1.387   .     A
C37    F82     1.358   .     S
C37    C64     1.405   .     A
C38    C41     1.387   .     A
C38    F83     1.358   .     S
C38    C63     1.405   .     A
C39    F84     1.358   .     S
C39    C66     1.405   .     A
C40    C65     1.405   .     A
C40    F85     1.358   .     S
C41    F86     1.358   .     S
C41    C69     1.405   .     A
C42    C67     1.405   .     A
C42    F87     1.358   .     S
C43    C71     1.405   .     A
C43    C49     1.387   .     A
C43    F88     1.358   .     S
C44    C70     1.405   .     A
C44    C48     1.387   .     A
C44    F90     1.358   .     S
C45    F91     1.358   .     S
C45    C51     1.387   .     A
C45    C73     1.405   .     A
C46    O20     1.279   .     A
C46    C69     1.457   .     S
C46    O90     1.279   .     A
C47    C50     1.387   .     A
C47    C72     1.405   .     A
C47    F92     1.358   .     S
C48    F93     1.358   .     S
C48    C75     1.405   .     A
C49    F94     1.358   .     S
C49    C74     1.405   .     A
C50    C77     1.405   .     A
C50    F95     1.358   .     S
C51    C76     1.405   .     A
C51    F96     1.358   .     S
C52    C101    1.457   .     S
C52    C143    1.405   .     A
C53    C106    1.457   .     S
C53    C142    1.405   .     A
C54    C145    1.405   .     A
C54    C110    1.457   .     S
C55    C109    1.457   .     S
C55    C144    1.405   .     A
C56    C139    1.405   .     A
C56    C107    1.457   .     S
C57    O21     1.279   .     A
C57    O87     1.279   .     A
C57    C73     1.457   .     S
C58    C108    1.457   .     S
C58    C137    1.405   .     A
C59    C141    1.405   .     A
C59    C90     1.457   .     S
C60    C79     1.457   .     S
C60    C140    1.405   .     A
C61    C105    1.457   .     S
C61    C152    1.405   .     A
C62    C151    1.405   .     A
C63    C154    1.405   .     A
C63    C138    1.457   .     S
C64    C153    1.405   .     A
C64    C149    1.457   .     S
C65    C147    1.405   .     A
C66    C182    1.457   .     S
C66    C146    1.405   .     A
C67    C150    1.405   .     A
C68    C72     1.457   .     S
C68    O22     1.279   .     A
C68    O88     1.279   .     A
C69    C148    1.405   .     A
C70    C160    1.457   .     S
C70    C161    1.405   .     A
C71    C171    1.457   .     S
C71    C159    1.405   .     A
C72    C163    1.405   .     A
C73    C162    1.405   .     A
C74    C156    1.405   .     A
C75    C155    1.405   .     A
C76    C127    1.457   .     S
C76    C158    1.405   .     A
C77    C116    1.457   .     S
C77    C157    1.405   .     A
C78    C179    1.405   .     A
C78    C169    1.405   .     A
C78    C131    1.457   .     S
C79    O23     1.279   .     A
C79    O6      1.279   .     A
C80    C132    1.457   .     S
C80    C168    1.405   .     A
C80    C180    1.405   .     A
C81    C177    1.405   .     A
C81    C130    1.457   .     S
C81    C172    1.405   .     A
C82    C178    1.405   .     A
C82    C129    1.457   .     S
C82    C170    1.405   .     A
C83    C165    1.405   .     A
C83    C175    1.405   .     A
C83    C133    1.457   .     S
C84    C176    1.405   .     A
C84    C134    1.457   .     S
C84    C164    1.405   .     A
C85    C167    1.405   .     A
C85    C173    1.405   .     A
C85    C136    1.457   .     S
C86    C174    1.405   .     A
C86    C135    1.457   .     S
C86    C166    1.405   .     A
C87    C187    1.405   .     A
C87    C121    1.457   .     S
C88    C120    1.457   .     S
C88    C186    1.405   .     A
C89    C115    1.457   .     S
C89    C189    1.405   .     A
C90    O24     1.279   .     A
C90    O7      1.279   .     A
C91    C188    1.405   .     A
C91    C117    1.457   .     S
C92    C112    1.457   .     S
C92    C192    1.405   .     A
C92    C183    1.405   .     A
C93    C181    1.405   .     A
C93    C111    1.457   .     S
C94    C190    1.405   .     A
C94    C185    1.405   .     A
C94    C124    1.457   .     S
C95    C184    1.405   .     A
C95    C191    1.405   .     A
C95    C125    1.457   .     S
C96    C118    1.457   .     S
C97    C119    1.457   .     S
C98    C114    1.457   .     S
C99    C113    1.457   .     S
C100   C122    1.457   .     S
C101   O25     1.279   .     A
C101   O4      1.279   .     A
C102   C123    1.457   .     S
C103   C128    1.457   .     S
C104   C126    1.457   .     S
C105   O2      1.279   .     A
C105   O95     1.279   .     A
C106   O5      1.279   .     A
C106   O26     1.279   .     A
C107   O27     1.279   .     A
C107   O104    1.279   .     A
C108   O3      1.279   .     A
C108   O29     1.279   .     A
C109   O102    1.279   .     A
C109   O30     1.279   .     A
C110   O31     1.279   .     A
C110   O103    1.279   .     A
C111   O79     1.279   .     A
C111   O32     1.279   .     A
C112   O78     1.279   .     A
C112   O33     1.279   .     A
C113   O34     1.279   .     A
C113   O55     1.279   .     A
C114   O54     1.279   .     A
C114   O35     1.279   .     A
C115   O36     1.279   .     A
C115   O70     1.279   .     A
C116   O100    1.279   .     A
C116   O8      1.279   .     A
C117   O69     1.279   .     A
C117   O37     1.279   .     A
C118   O59     1.279   .     A
C118   O38     1.279   .     A
C119   O40     1.279   .     A
C119   O58     1.279   .     A
C120   O41     1.279   .     A
C120   O75     1.279   .     A
C121   O74     1.279   .     A
C121   O42     1.279   .     A
C122   O51     1.279   .     A
C122   O43     1.279   .     A
C123   O44     1.279   .     A
C123   O49     1.279   .     A
C124   O84     1.279   .     A
C124   O45     1.279   .     A
C125   O46     1.279   .     A
C125   O82     1.279   .     A
C126   O64     1.279   .     A
C126   O47     1.279   .     A
C127   O101    1.279   .     A
C127   O9      1.279   .     A
C128   O48     1.279   .     A
C128   O63     1.279   .     A
C129   O73     1.279   .     A
C129   O52     1.279   .     A
C130   O53     1.279   .     A
C130   O71     1.279   .     A
C131   O56     1.279   .     A
C131   O77     1.279   .     A
C132   O76     1.279   .     A
C132   O57     1.279   .     A
C133   O60     1.279   .     A
C133   O68     1.279   .     A
C134   O67     1.279   .     A
C134   O62     1.279   .     A
C135   O81     1.279   .     A
C135   O65     1.279   .     A
C136   O66     1.279   .     A
C136   O80     1.279   .     A
C137   C143    1.387   .     A
C137   F1      1.358   .     S
C138   O98     1.279   .     A
C138   O10     1.279   .     A
C139   C142    1.387   .     A
C139   F12     1.358   .     S
C140   C145    1.387   .     A
C140   F23     1.358   .     S
C141   C144    1.387   .     A
C141   F34     1.358   .     S
C142   F45     1.358   .     S
C143   F56     1.358   .     S
C144   F67     1.358   .     S
C145   F78     1.358   .     S
C146   F89     1.358   .     S
C146   C152    1.387   .     A
C147   C151    1.387   .     A
C147   F2      1.358   .     S
C148   F3      1.358   .     S
C148   C154    1.387   .     A
C149   O11     1.279   .     A
C149   O99     1.279   .     A
C150   C153    1.387   .     A
C150   F4      1.358   .     S
C151   F5      1.358   .     S
C152   F6      1.359   .     S
C153   F7      1.358   .     S
C154   F8      1.358   .     S
C155   F9      1.358   .     S
C155   C161    1.387   .     A
C156   F10     1.358   .     S
C156   C159    1.387   .     A
C157   F11     1.358   .     S
C157   C163    1.387   .     A
C158   F13     1.358   .     S
C158   C162    1.387   .     A
C159   F14     1.358   .     S
C160   O96     1.279   .     A
C160   O12     1.279   .     A
C161   F15     1.358   .     S
C162   F16     1.358   .     S
C163   F17     1.358   .     S
C164   F18     1.358   .     S
C164   C169    1.387   1_565 S
C165   F19     1.358   .     S
C165   C168    1.387   1_545 S
C166   F20     1.358   .     S
C166   C172    1.387   1_565 S
C167   F21     1.358   .     S
C167   C170    1.387   1_545 S
C168   F22     1.358   .     S
C168   C165    1.387   1_565 S
C169   F24     1.358   .     S
C169   C164    1.387   1_545 S
C170   F25     1.358   .     S
C170   C167    1.387   1_565 S
C171   O13     1.279   .     A
C171   O97     1.279   .     A
C172   F26     1.358   .     S
C172   C166    1.387   1_545 S
C173   F27     1.358   .     S
C173   C178    1.387   1_545 S
C174   F28     1.358   .     S
C174   C177    1.387   1_565 S
C175   F29     1.358   .     S
C175   C180    1.387   1_545 S
C176   F30     1.358   .     S
C176   C179    1.387   1_565 S
C177   F31     1.359   .     S
C177   C174    1.387   1_545 S
C178   F32     1.358   .     S
C178   C173    1.387   1_565 S
C179   F33     1.358   .     S
C179   C176    1.387   1_545 S
C180   F35     1.358   .     S
C180   C175    1.387   1_565 S
C181   F36     1.358   .     S
C181   C187    1.387   1_655 S
C182   O14     1.279   .     A
C182   O85     1.279   .     A
C183   F37     1.358   .     S
C183   C186    1.387   1_455 S
C184   F38     1.358   .     S
C184   C189    1.387   1_655 S
C185   F39     1.358   .     S
C185   C188    1.387   1_455 S
C186   F40     1.358   .     S
C186   C183    1.387   1_655 S
C187   F41     1.358   .     S
C187   C181    1.387   1_455 S
C188   F42     1.358   .     S
C188   C185    1.387   1_655 S
C189   F43     1.358   .     S
C189   C184    1.387   1_455 S
C190   F44     1.358   .     S
C190   C5      1.387   1_455 S
C191   F46     1.358   .     S
C191   C4      1.387   1_655 S
C192   F47     1.358   .     S
C192   C7      1.387   1_455 S
O1     Zn1     1.952   .     S
O1     Zn22    1.952   .     S
O1     Zn17    1.952   .     S
O1     Zn5     1.952   .     S
O2     Zn24    1.940   .     S
O3     Zn1     1.940   .     S
O4     Zn29    1.940   .     S
O5     Zn28    1.940   .     S
O6     Zn23    1.940   .     S
O7     Zn27    1.940   .     S
O8     Zn25    1.941   .     S
O9     Zn26    1.941   .     S
O10    Zn18    1.940   .     S
O11    Zn19    1.940   .     S
O12    Zn20    1.941   .     S
O13    Zn21    1.941   .     S
O14    Zn21    1.940   .     S
O15    Zn20    1.940   .     S
O16    Zn19    1.941   .     S
O17    Zn24    1.952   .     S
O17    Zn6     1.952   .     S
O17    Zn12    1.952   .     S
O17    Zn16    1.952   .     S
O18    Zn18    1.941   .     S
O19    Zn26    1.940   .     S
O20    Zn25    1.940   .     S
O21    Zn24    1.941   .     S
O22    Zn22    1.941   .     S
O23    Zn25    1.940   .     S
O24    Zn26    1.940   .     S
O25    Zn19    1.940   .     S
O26    Zn18    1.940   .     S
O27    Zn24    1.940   .     S
O28    Zn23    1.952   .     S
O28    Zn11    1.952   .     S
O28    Zn25    1.952   .     S
O28    Zn3     1.952   .     S
O29    Zn22    1.940   .     S
O30    Zn20    1.940   .     S
O31    Zn21    1.940   .     S
O32    Zn13    1.940   .     S
O33    Zn11    1.940   .     S
O34    Zn7     1.941   .     S
O35    Zn8     1.941   .     S
O36    Zn14    1.940   .     S
O37    Zn15    1.940   .     S
O38    Zn6     1.941   .     S
O39    Zn26    1.952   .     S
O39    Zn27    1.952   .     S
O39    Zn4     1.952   .     S
O39    Zn13    1.952   .     S
O40    Zn5     1.941   .     S
O41    Zn9     1.940   .     S
O42    Zn10    1.940   .     S
O43    Zn3     1.941   .     S
O44    Zn4     1.941   .     S
O45    Zn17    1.940   .     S
O46    Zn16    1.940   .     S
O47    Zn2     1.941   .     S
O48    Zn32    1.941   .     S
O49    Zn27    1.941   .     S
O50    Zn18    1.952   .     S
O50    Zn9     1.952   .     S
O50    Zn28    1.952   .     S
O50    Zn8     1.952   .     S
O51    Zn23    1.941   .     S
O52    Zn16    1.940   .     S
O53    Zn17    1.940   .     S
O54    Zn28    1.941   .     S
O55    Zn29    1.941   .     S
O56    Zn15    1.940   .     S
O57    Zn14    1.940   .     S
O58    Zn1     1.941   .     S
O59    Zn12    1.941   .     S
O60    Zn11    1.940   .     S
O61    Zn7     1.952   .     S
O61    Zn29    1.952   .     S
O61    Zn19    1.952   .     S
O61    Zn10    1.952   .     S
O62    Zn13    1.940   .     S
O63    Zn31    1.941   .     S
O64    Zn30    1.941   .     S
O65    Zn10    1.940   .     S
O66    Zn9     1.940   .     S
O67    Zn4     1.940   .     S
O68    Zn3     1.940   .     S
O69    Zn30    1.940   .     S
O70    Zn31    1.940   .     S
O71    Zn5     1.940   .     S
O72    Zn15    1.952   .     S
O72    Zn20    1.952   .     S
O72    Zn2     1.952   .     S
O72    Zn30    1.952   .     S
O73    Zn6     1.940   .     S
O74    Zn29    1.940   .     S
O75    Zn28    1.940   .     S
O76    Zn32    1.940   .     S
O77    Zn2     1.940   .     S
O78    Zn23    1.940   .     S
O79    Zn27    1.940   .     S
O80    Zn8     1.940   .     S
O81    Zn7     1.940   .     S
O82    Zn12    1.940   .     S
O83    Zn21    1.952   .     S
O83    Zn31    1.952   .     S
O83    Zn14    1.952   .     S
O83    Zn32    1.952   .     S
O84    Zn1     1.940   .     S
O85    Zn32    1.940   .     S
O86    Zn2     1.940   .     S
O87    Zn16    1.941   .     S
O88    Zn17    1.941   .     S
O89    Zn4     1.940   .     S
O90    Zn3     1.940   .     S
O91    Zn10    1.941   .     S
O92    Zn9     1.941   .     S
O93    Zn5     1.940   .     S
O94    Zn22    1.940   .     S
O95    Zn6     1.940   .     S
O96    Zn15    1.941   .     S
O97    Zn14    1.941   .     S
O98    Zn8     1.940   .     S
O99    Zn7     1.940   .     S
O100   Zn11    1.941   .     S
O101   Zn13    1.941   .     S
O102   Zn30    1.940   .     S
O103   Zn31    1.940   .     S
O104   Zn12    1.940   .     S
