data_str_m1_o10_o18_pcu_sym.65
_audit_creation_date              2020-01-03
_audit_creation_method            'Materials Studio'
_symmetry_space_group_name_H-M    'P1'
_symmetry_Int_Tables_number       1
_symmetry_cell_setting            triclinic
loop_
_symmetry_equiv_pos_as_xyz
  x,y,z
_cell_length_a                    32.6757
_cell_length_b                    32.5186
_cell_length_c                    35.5862
_cell_angle_alpha                 98.6241
_cell_angle_beta                  73.7269
_cell_angle_gamma                 99.3238
loop_
_atom_site_label
_atom_site_type_symbol
_atom_site_fract_x
_atom_site_fract_y
_atom_site_fract_z
_atom_site_U_iso_or_equiv
_atom_site_adp_type
_atom_site_occupancy
Zn1    Zn    0.19244   0.14090   0.28278   0.00000  Uiso   1.00
Zn2    Zn    0.13459   0.12378   0.22258   0.00000  Uiso   1.00
Zn3    Zn    0.21166   0.19664   0.21188   0.00000  Uiso   1.00
Zn4    Zn    0.12798   0.20535   0.28277   0.00000  Uiso   1.00
O5     O     0.16667   0.16667   0.25000   0.00000  Uiso   1.00
O6     O     0.06990   0.18960   0.27820   0.00000  Uiso   1.00
O7     O     0.25440   0.15277   0.26768   0.00000  Uiso   1.00
O8     O     0.13800   0.06903   0.23607   0.00000  Uiso   1.00
O9     O     0.20437   0.25527   0.21806   0.00000  Uiso   1.00
O10    O     0.15693   0.12393   0.16625   0.00000  Uiso   1.00
O11    O     0.12687   0.20646   0.33749   0.00000  Uiso   1.00
O12    O     0.21088   0.17493   0.15877   0.00000  Uiso   1.00
O13    O     0.17198   0.16135   0.33749   0.00000  Uiso   1.00
O14    O     0.17849   0.08101   0.27821   0.00000  Uiso   1.00
O15    O     0.14581   0.26136   0.26767   0.00000  Uiso   1.00
O16    O     0.07452   0.13251   0.23607   0.00000  Uiso   1.00
O17    O     0.26785   0.19179   0.21806   0.00000  Uiso   1.00
C18    C     0.05259   0.15906   0.25868   0.00000  Uiso   1.00
C19    C     0.28093   0.17404   0.24170   0.00000  Uiso   1.00
C20    C     0.15524   0.05602   0.25906   0.00000  Uiso   1.00
C21    C     0.17768   0.27779   0.24193   0.00000  Uiso   1.00
C22    C     0.18787   0.14485   0.14393   0.00000  Uiso   1.00
C23    C     0.14607   0.18817   0.35642   0.00000  Uiso   1.00
C24    C     0.13664   0.19646   0.40036   0.00000  Uiso   1.00
C25    C     0.19601   0.13241   0.10153   0.00000  Uiso   1.00
C26    C     0.09902   0.23325   0.46273   0.00000  Uiso   1.00
C27    C     0.10880   0.22633   0.42144   0.00000  Uiso   1.00
C28    C     0.15465   0.17394   0.42180   0.00000  Uiso   1.00
C29    C     0.14006   0.17703   0.46361   0.00000  Uiso   1.00
C30    C     0.11548   0.20939   0.48375   0.00000  Uiso   1.00
C31    C     0.15140   0.15000   0.48603   0.00000  Uiso   1.00
C32    C     0.14955   0.16210   0.02627   0.00000  Uiso   1.00
C33    C     0.12456   0.19495   0.04622   0.00000  Uiso   1.00
C34    C     0.10822   0.21784   0.02470   0.00000  Uiso   1.00
C35    C     0.16160   0.10980   0.46968   0.00000  Uiso   1.00
C36    C     0.17852   0.08497   0.48871   0.00000  Uiso   1.00
C37    C     0.18277   0.09905   0.02735   0.00000  Uiso   1.00
C38    C     0.17120   0.13953   0.04476   0.00000  Uiso   1.00
C39    C     0.19696   0.07405   0.04981   0.00000  Uiso   1.00
C40    C     0.20328   0.09094   0.08687   0.00000  Uiso   1.00
C41    C     0.18287   0.15695   0.07948   0.00000  Uiso   1.00
H42    H     0.08924   0.24244   0.04055   0.00000  Uiso   1.00
H43    H     0.17975   0.18928   0.09107   0.00000  Uiso   1.00
H44    H     0.15530   0.09674   0.44189   0.00000  Uiso   1.00
C45    C     0.32659   0.17946   0.24056   0.00000  Uiso   1.00
C46    C     0.00787   0.15410   0.25959   0.00000  Uiso   1.00
C47    C     0.18447   0.32304   0.24049   0.00000  Uiso   1.00
C48    C     0.15182   0.01152   0.25961   0.00000  Uiso   1.00
H49    H     0.12045   0.32920   0.27371   0.00000  Uiso   1.00
N50    N     0.20051   0.03037   0.03765   0.00000  Uiso   1.00
O51    O     0.23630   0.01578   0.03442   0.00000  Uiso   1.00
O52    O     0.16629   0.00432   0.03560   0.00000  Uiso   1.00
N53    N     0.02125   0.21331   0.22076   0.00000  Uiso   1.00
O54    O     0.00656   0.24815   0.22058   0.00000  Uiso   1.00
O55    O     0.06013   0.20824   0.19997   0.00000  Uiso   1.00
N56    N     0.31621   0.11609   0.27361   0.00000  Uiso   1.00
O57    O     0.30091   0.08779   0.24937   0.00000  Uiso   1.00
O58    O     0.31751   0.10575   0.30716   0.00000  Uiso   1.00
N59    N     0.22575   0.00948   0.21942   0.00000  Uiso   1.00
O60    O     0.26066   0.32717   0.21729   0.00000  Uiso   1.00
O61    O     0.22855   0.04110   0.19996   0.00000  Uiso   1.00
N62    N     0.21548   0.06538   0.11058   0.00000  Uiso   1.00
O63    O     0.24655   0.07984   0.12707   0.00000  Uiso   1.00
O64    O     0.19374   0.02897   0.11804   0.00000  Uiso   1.00
C65    C     0.19583   0.04739   0.46440   0.00000  Uiso   1.00
O66    O     0.23339   0.04272   0.45971   0.00000  Uiso   1.00
O67    O     0.16984   0.01868   0.44489   0.00000  Uiso   1.00
H68    H     0.18531   0.32792   0.42881   0.00000  Uiso   1.00
N69    N     0.07159   0.26437   0.48317   0.00000  Uiso   1.00
O70    O     0.08200   0.30316   0.47555   0.00000  Uiso   1.00
O71    O     0.03427   0.25320   0.00664   0.00000  Uiso   1.00
N72    N     0.09136   0.25132   0.40126   0.00000  Uiso   1.00
O73    O     0.11588   0.28212   0.38342   0.00000  Uiso   1.00
O74    O     0.05005   0.24752   0.40583   0.00000  Uiso   1.00
N75    N     0.19392   0.15613   0.40261   0.00000  Uiso   1.00
O76    O     0.22947   0.17376   0.41094   0.00000  Uiso   1.00
O77    O     0.19361   0.11991   0.38126   0.00000  Uiso   1.00
C78    C     0.10816   0.20261   0.08962   0.00000  Uiso   1.00
O79    O     0.09472   0.17316   0.10937   0.00000  Uiso   1.00
O80    O     0.10666   0.24382   0.10766   0.00000  Uiso   1.00
H81    H     0.09465   0.24542   0.13726   0.00000  Uiso   1.00
Zn82   Zn    0.52577   0.14090   0.28278   0.00000  Uiso   1.00
Zn83   Zn    0.46792   0.12378   0.22258   0.00000  Uiso   1.00
Zn84   Zn    0.54500   0.19664   0.21188   0.00000  Uiso   1.00
Zn85   Zn    0.46131   0.20535   0.28277   0.00000  Uiso   1.00
O86    O     0.50000   0.16667   0.25000   0.00000  Uiso   1.00
O87    O     0.40323   0.18960   0.27820   0.00000  Uiso   1.00
O88    O     0.58773   0.15277   0.26768   0.00000  Uiso   1.00
O89    O     0.47133   0.06903   0.23607   0.00000  Uiso   1.00
O90    O     0.53771   0.25527   0.21806   0.00000  Uiso   1.00
O91    O     0.49027   0.12393   0.16625   0.00000  Uiso   1.00
O92    O     0.46020   0.20646   0.33749   0.00000  Uiso   1.00
O93    O     0.54421   0.17493   0.15877   0.00000  Uiso   1.00
O94    O     0.50532   0.16135   0.33749   0.00000  Uiso   1.00
O95    O     0.51182   0.08101   0.27821   0.00000  Uiso   1.00
O96    O     0.47914   0.26136   0.26767   0.00000  Uiso   1.00
O97    O     0.40785   0.13251   0.23607   0.00000  Uiso   1.00
O98    O     0.60119   0.19179   0.21806   0.00000  Uiso   1.00
C99    C     0.38593   0.15906   0.25868   0.00000  Uiso   1.00
C100   C     0.61426   0.17404   0.24170   0.00000  Uiso   1.00
C101   C     0.48857   0.05602   0.25906   0.00000  Uiso   1.00
C102   C     0.51101   0.27779   0.24193   0.00000  Uiso   1.00
C103   C     0.52121   0.14485   0.14393   0.00000  Uiso   1.00
C104   C     0.47941   0.18817   0.35642   0.00000  Uiso   1.00
C105   C     0.46998   0.19646   0.40036   0.00000  Uiso   1.00
C106   C     0.52935   0.13241   0.10153   0.00000  Uiso   1.00
C107   C     0.43236   0.23325   0.46273   0.00000  Uiso   1.00
C108   C     0.44213   0.22633   0.42144   0.00000  Uiso   1.00
C109   C     0.48798   0.17394   0.42180   0.00000  Uiso   1.00
C110   C     0.47339   0.17703   0.46361   0.00000  Uiso   1.00
C111   C     0.44882   0.20939   0.48375   0.00000  Uiso   1.00
C112   C     0.48473   0.15000   0.48603   0.00000  Uiso   1.00
C113   C     0.48289   0.16210   0.02627   0.00000  Uiso   1.00
C114   C     0.45789   0.19495   0.04622   0.00000  Uiso   1.00
C115   C     0.44155   0.21784   0.02470   0.00000  Uiso   1.00
C116   C     0.49493   0.10980   0.46968   0.00000  Uiso   1.00
C117   C     0.51186   0.08497   0.48871   0.00000  Uiso   1.00
C118   C     0.51610   0.09905   0.02735   0.00000  Uiso   1.00
C119   C     0.50454   0.13953   0.04476   0.00000  Uiso   1.00
C120   C     0.53029   0.07405   0.04981   0.00000  Uiso   1.00
C121   C     0.53662   0.09094   0.08687   0.00000  Uiso   1.00
C122   C     0.51620   0.15695   0.07948   0.00000  Uiso   1.00
H123   H     0.42257   0.24244   0.04055   0.00000  Uiso   1.00
H124   H     0.51309   0.18928   0.09107   0.00000  Uiso   1.00
H125   H     0.48864   0.09674   0.44189   0.00000  Uiso   1.00
C126   C     0.65992   0.17946   0.24056   0.00000  Uiso   1.00
C127   C     0.34120   0.15410   0.25959   0.00000  Uiso   1.00
C128   C     0.51780   0.32304   0.24049   0.00000  Uiso   1.00
C129   C     0.48516   0.01152   0.25961   0.00000  Uiso   1.00
H130   H     0.45378   0.32920   0.27371   0.00000  Uiso   1.00
N131   N     0.53384   0.03037   0.03765   0.00000  Uiso   1.00
O132   O     0.56963   0.01578   0.03442   0.00000  Uiso   1.00
O133   O     0.49962   0.00432   0.03560   0.00000  Uiso   1.00
N134   N     0.35458   0.21331   0.22076   0.00000  Uiso   1.00
O135   O     0.33990   0.24815   0.22058   0.00000  Uiso   1.00
O136   O     0.39347   0.20824   0.19997   0.00000  Uiso   1.00
N137   N     0.64954   0.11609   0.27361   0.00000  Uiso   1.00
O138   O     0.63425   0.08779   0.24937   0.00000  Uiso   1.00
O139   O     0.65085   0.10575   0.30716   0.00000  Uiso   1.00
N140   N     0.55908   0.00948   0.21942   0.00000  Uiso   1.00
O141   O     0.59399   0.32717   0.21729   0.00000  Uiso   1.00
O142   O     0.56188   0.04110   0.19996   0.00000  Uiso   1.00
N143   N     0.54881   0.06538   0.11058   0.00000  Uiso   1.00
O144   O     0.57989   0.07984   0.12707   0.00000  Uiso   1.00
O145   O     0.52707   0.02897   0.11804   0.00000  Uiso   1.00
C146   C     0.52917   0.04739   0.46440   0.00000  Uiso   1.00
O147   O     0.56673   0.04272   0.45971   0.00000  Uiso   1.00
O148   O     0.50317   0.01868   0.44489   0.00000  Uiso   1.00
H149   H     0.51864   0.32792   0.42881   0.00000  Uiso   1.00
N150   N     0.40492   0.26437   0.48317   0.00000  Uiso   1.00
O151   O     0.41534   0.30316   0.47555   0.00000  Uiso   1.00
O152   O     0.36760   0.25320   0.00664   0.00000  Uiso   1.00
N153   N     0.42470   0.25132   0.40126   0.00000  Uiso   1.00
O154   O     0.44921   0.28212   0.38342   0.00000  Uiso   1.00
O155   O     0.38339   0.24752   0.40583   0.00000  Uiso   1.00
N156   N     0.52725   0.15613   0.40261   0.00000  Uiso   1.00
O157   O     0.56280   0.17376   0.41094   0.00000  Uiso   1.00
O158   O     0.52695   0.11991   0.38126   0.00000  Uiso   1.00
C159   C     0.44149   0.20261   0.08962   0.00000  Uiso   1.00
O160   O     0.42805   0.17316   0.10937   0.00000  Uiso   1.00
O161   O     0.43999   0.24382   0.10766   0.00000  Uiso   1.00
H162   H     0.42798   0.24542   0.13726   0.00000  Uiso   1.00
Zn163  Zn    0.85910   0.14090   0.28278   0.00000  Uiso   1.00
Zn164  Zn    0.80125   0.12378   0.22258   0.00000  Uiso   1.00
Zn165  Zn    0.87833   0.19664   0.21188   0.00000  Uiso   1.00
Zn166  Zn    0.79465   0.20535   0.28277   0.00000  Uiso   1.00
O167   O     0.83333   0.16667   0.25000   0.00000  Uiso   1.00
O168   O     0.73656   0.18960   0.27820   0.00000  Uiso   1.00
O169   O     0.92106   0.15277   0.26768   0.00000  Uiso   1.00
O170   O     0.80467   0.06903   0.23607   0.00000  Uiso   1.00
O171   O     0.87104   0.25527   0.21806   0.00000  Uiso   1.00
O172   O     0.82360   0.12393   0.16625   0.00000  Uiso   1.00
O173   O     0.79354   0.20646   0.33749   0.00000  Uiso   1.00
O174   O     0.87755   0.17493   0.15877   0.00000  Uiso   1.00
O175   O     0.83865   0.16135   0.33749   0.00000  Uiso   1.00
O176   O     0.84515   0.08101   0.27821   0.00000  Uiso   1.00
O177   O     0.81247   0.26136   0.26767   0.00000  Uiso   1.00
O178   O     0.74119   0.13251   0.23607   0.00000  Uiso   1.00
O179   O     0.93452   0.19179   0.21806   0.00000  Uiso   1.00
C180   C     0.71926   0.15906   0.25868   0.00000  Uiso   1.00
C181   C     0.94759   0.17404   0.24170   0.00000  Uiso   1.00
C182   C     0.82190   0.05602   0.25906   0.00000  Uiso   1.00
C183   C     0.84434   0.27779   0.24193   0.00000  Uiso   1.00
C184   C     0.85454   0.14485   0.14393   0.00000  Uiso   1.00
C185   C     0.81274   0.18817   0.35642   0.00000  Uiso   1.00
C186   C     0.80331   0.19646   0.40036   0.00000  Uiso   1.00
C187   C     0.86268   0.13241   0.10153   0.00000  Uiso   1.00
C188   C     0.76569   0.23325   0.46273   0.00000  Uiso   1.00
C189   C     0.77547   0.22633   0.42144   0.00000  Uiso   1.00
C190   C     0.82131   0.17394   0.42180   0.00000  Uiso   1.00
C191   C     0.80672   0.17703   0.46361   0.00000  Uiso   1.00
C192   C     0.78215   0.20939   0.48375   0.00000  Uiso   1.00
C193   C     0.81806   0.15000   0.48603   0.00000  Uiso   1.00
C194   C     0.81622   0.16210   0.02627   0.00000  Uiso   1.00
C195   C     0.79122   0.19495   0.04622   0.00000  Uiso   1.00
C196   C     0.77489   0.21784   0.02470   0.00000  Uiso   1.00
C197   C     0.82827   0.10980   0.46968   0.00000  Uiso   1.00
C198   C     0.84519   0.08497   0.48871   0.00000  Uiso   1.00
C199   C     0.84944   0.09905   0.02735   0.00000  Uiso   1.00
C200   C     0.83787   0.13953   0.04476   0.00000  Uiso   1.00
C201   C     0.86362   0.07405   0.04981   0.00000  Uiso   1.00
C202   C     0.86995   0.09094   0.08687   0.00000  Uiso   1.00
C203   C     0.84953   0.15695   0.07948   0.00000  Uiso   1.00
H204   H     0.75591   0.24244   0.04055   0.00000  Uiso   1.00
H205   H     0.84642   0.18928   0.09107   0.00000  Uiso   1.00
H206   H     0.82197   0.09674   0.44189   0.00000  Uiso   1.00
C207   C     0.99326   0.17946   0.24056   0.00000  Uiso   1.00
C208   C     0.67453   0.15410   0.25959   0.00000  Uiso   1.00
C209   C     0.85114   0.32304   0.24049   0.00000  Uiso   1.00
C210   C     0.81849   0.01152   0.25961   0.00000  Uiso   1.00
H211   H     0.78712   0.32920   0.27371   0.00000  Uiso   1.00
N212   N     0.86718   0.03037   0.03765   0.00000  Uiso   1.00
O213   O     0.90297   0.01578   0.03442   0.00000  Uiso   1.00
O214   O     0.83296   0.00432   0.03560   0.00000  Uiso   1.00
N215   N     0.68792   0.21331   0.22076   0.00000  Uiso   1.00
O216   O     0.67323   0.24815   0.22058   0.00000  Uiso   1.00
O217   O     0.72680   0.20824   0.19997   0.00000  Uiso   1.00
N218   N     0.98288   0.11609   0.27361   0.00000  Uiso   1.00
O219   O     0.96758   0.08779   0.24937   0.00000  Uiso   1.00
O220   O     0.98418   0.10575   0.30716   0.00000  Uiso   1.00
N221   N     0.89242   0.00948   0.21942   0.00000  Uiso   1.00
O222   O     0.92732   0.32717   0.21729   0.00000  Uiso   1.00
O223   O     0.89522   0.04110   0.19996   0.00000  Uiso   1.00
N224   N     0.88215   0.06538   0.11058   0.00000  Uiso   1.00
O225   O     0.91322   0.07984   0.12707   0.00000  Uiso   1.00
O226   O     0.86040   0.02897   0.11804   0.00000  Uiso   1.00
C227   C     0.86250   0.04739   0.46440   0.00000  Uiso   1.00
O228   O     0.90006   0.04272   0.45971   0.00000  Uiso   1.00
O229   O     0.83651   0.01868   0.44489   0.00000  Uiso   1.00
H230   H     0.85197   0.32792   0.42881   0.00000  Uiso   1.00
N231   N     0.73826   0.26437   0.48317   0.00000  Uiso   1.00
O232   O     0.74867   0.30316   0.47555   0.00000  Uiso   1.00
O233   O     0.70094   0.25320   0.00664   0.00000  Uiso   1.00
N234   N     0.75803   0.25132   0.40126   0.00000  Uiso   1.00
O235   O     0.78254   0.28212   0.38342   0.00000  Uiso   1.00
O236   O     0.71672   0.24752   0.40583   0.00000  Uiso   1.00
N237   N     0.86059   0.15613   0.40261   0.00000  Uiso   1.00
O238   O     0.89613   0.17376   0.41094   0.00000  Uiso   1.00
O239   O     0.86028   0.11991   0.38126   0.00000  Uiso   1.00
C240   C     0.77483   0.20261   0.08962   0.00000  Uiso   1.00
O241   O     0.76139   0.17316   0.10937   0.00000  Uiso   1.00
O242   O     0.77333   0.24382   0.10766   0.00000  Uiso   1.00
H243   H     0.76132   0.24542   0.13726   0.00000  Uiso   1.00
Zn244  Zn    0.19244   0.47423   0.28278   0.00000  Uiso   1.00
Zn245  Zn    0.13459   0.45711   0.22258   0.00000  Uiso   1.00
Zn246  Zn    0.21166   0.52997   0.21188   0.00000  Uiso   1.00
Zn247  Zn    0.12798   0.53868   0.28277   0.00000  Uiso   1.00
O248   O     0.16667   0.50000   0.25000   0.00000  Uiso   1.00
O249   O     0.06990   0.52293   0.27820   0.00000  Uiso   1.00
O250   O     0.25440   0.48610   0.26768   0.00000  Uiso   1.00
O251   O     0.13800   0.40236   0.23607   0.00000  Uiso   1.00
O252   O     0.20437   0.58860   0.21806   0.00000  Uiso   1.00
O253   O     0.15693   0.45726   0.16625   0.00000  Uiso   1.00
O254   O     0.12687   0.53979   0.33749   0.00000  Uiso   1.00
O255   O     0.21088   0.50826   0.15877   0.00000  Uiso   1.00
O256   O     0.17198   0.49468   0.33749   0.00000  Uiso   1.00
O257   O     0.17849   0.41434   0.27821   0.00000  Uiso   1.00
O258   O     0.14581   0.59469   0.26767   0.00000  Uiso   1.00
O259   O     0.07452   0.46584   0.23607   0.00000  Uiso   1.00
O260   O     0.26785   0.52512   0.21806   0.00000  Uiso   1.00
C261   C     0.05259   0.49239   0.25868   0.00000  Uiso   1.00
C262   C     0.28093   0.50737   0.24170   0.00000  Uiso   1.00
C263   C     0.15524   0.38935   0.25906   0.00000  Uiso   1.00
C264   C     0.17768   0.61112   0.24193   0.00000  Uiso   1.00
C265   C     0.18787   0.47818   0.14393   0.00000  Uiso   1.00
C266   C     0.14607   0.52151   0.35642   0.00000  Uiso   1.00
C267   C     0.13664   0.52979   0.40036   0.00000  Uiso   1.00
C268   C     0.19601   0.46574   0.10153   0.00000  Uiso   1.00
C269   C     0.09902   0.56658   0.46273   0.00000  Uiso   1.00
C270   C     0.10880   0.55966   0.42144   0.00000  Uiso   1.00
C271   C     0.15465   0.50727   0.42180   0.00000  Uiso   1.00
C272   C     0.14006   0.51037   0.46361   0.00000  Uiso   1.00
C273   C     0.11548   0.54272   0.48375   0.00000  Uiso   1.00
C274   C     0.15140   0.48333   0.48603   0.00000  Uiso   1.00
C275   C     0.14955   0.49543   0.02627   0.00000  Uiso   1.00
C276   C     0.12456   0.52828   0.04622   0.00000  Uiso   1.00
C277   C     0.10822   0.55117   0.02470   0.00000  Uiso   1.00
C278   C     0.16160   0.44313   0.46968   0.00000  Uiso   1.00
C279   C     0.17852   0.41830   0.48871   0.00000  Uiso   1.00
C280   C     0.18277   0.43239   0.02735   0.00000  Uiso   1.00
C281   C     0.17120   0.47287   0.04476   0.00000  Uiso   1.00
C282   C     0.19696   0.40739   0.04981   0.00000  Uiso   1.00
C283   C     0.20328   0.42427   0.08687   0.00000  Uiso   1.00
C284   C     0.18287   0.49028   0.07948   0.00000  Uiso   1.00
H285   H     0.08924   0.57577   0.04055   0.00000  Uiso   1.00
H286   H     0.17975   0.52261   0.09107   0.00000  Uiso   1.00
H287   H     0.15530   0.43007   0.44189   0.00000  Uiso   1.00
C288   C     0.32659   0.51280   0.24056   0.00000  Uiso   1.00
C289   C     0.00787   0.48743   0.25959   0.00000  Uiso   1.00
C290   C     0.18447   0.65637   0.24049   0.00000  Uiso   1.00
C291   C     0.15182   0.34485   0.25961   0.00000  Uiso   1.00
H292   H     0.12045   0.66253   0.27371   0.00000  Uiso   1.00
N293   N     0.20051   0.36371   0.03765   0.00000  Uiso   1.00
O294   O     0.23630   0.34912   0.03442   0.00000  Uiso   1.00
O295   O     0.16629   0.33765   0.03560   0.00000  Uiso   1.00
N296   N     0.02125   0.54665   0.22076   0.00000  Uiso   1.00
O297   O     0.00656   0.58148   0.22058   0.00000  Uiso   1.00
O298   O     0.06013   0.54157   0.19997   0.00000  Uiso   1.00
N299   N     0.31621   0.44942   0.27361   0.00000  Uiso   1.00
O300   O     0.30091   0.42113   0.24937   0.00000  Uiso   1.00
O301   O     0.31751   0.43909   0.30716   0.00000  Uiso   1.00
N302   N     0.22575   0.34281   0.21942   0.00000  Uiso   1.00
O303   O     0.26066   0.66051   0.21729   0.00000  Uiso   1.00
O304   O     0.22855   0.37443   0.19996   0.00000  Uiso   1.00
N305   N     0.21548   0.39871   0.11058   0.00000  Uiso   1.00
O306   O     0.24655   0.41317   0.12707   0.00000  Uiso   1.00
O307   O     0.19374   0.36230   0.11804   0.00000  Uiso   1.00
C308   C     0.19583   0.38072   0.46440   0.00000  Uiso   1.00
O309   O     0.23339   0.37605   0.45971   0.00000  Uiso   1.00
O310   O     0.16984   0.35201   0.44489   0.00000  Uiso   1.00
H311   H     0.18531   0.66126   0.42881   0.00000  Uiso   1.00
N312   N     0.07159   0.59770   0.48317   0.00000  Uiso   1.00
O313   O     0.08200   0.63649   0.47555   0.00000  Uiso   1.00
O314   O     0.03427   0.58653   0.00664   0.00000  Uiso   1.00
N315   N     0.09136   0.58465   0.40126   0.00000  Uiso   1.00
O316   O     0.11588   0.61545   0.38342   0.00000  Uiso   1.00
O317   O     0.05005   0.58085   0.40583   0.00000  Uiso   1.00
N318   N     0.19392   0.48946   0.40261   0.00000  Uiso   1.00
O319   O     0.22947   0.50709   0.41094   0.00000  Uiso   1.00
O320   O     0.19361   0.45325   0.38126   0.00000  Uiso   1.00
C321   C     0.10816   0.53594   0.08962   0.00000  Uiso   1.00
O322   O     0.09472   0.50650   0.10937   0.00000  Uiso   1.00
O323   O     0.10666   0.57716   0.10766   0.00000  Uiso   1.00
H324   H     0.09465   0.57876   0.13726   0.00000  Uiso   1.00
Zn325  Zn    0.52577   0.47423   0.28278   0.00000  Uiso   1.00
Zn326  Zn    0.46792   0.45711   0.22258   0.00000  Uiso   1.00
Zn327  Zn    0.54500   0.52997   0.21188   0.00000  Uiso   1.00
Zn328  Zn    0.46131   0.53868   0.28277   0.00000  Uiso   1.00
O329   O     0.50000   0.50000   0.25000   0.00000  Uiso   1.00
O330   O     0.40323   0.52293   0.27820   0.00000  Uiso   1.00
O331   O     0.58773   0.48610   0.26768   0.00000  Uiso   1.00
O332   O     0.47133   0.40236   0.23607   0.00000  Uiso   1.00
O333   O     0.53771   0.58860   0.21806   0.00000  Uiso   1.00
O334   O     0.49027   0.45726   0.16625   0.00000  Uiso   1.00
O335   O     0.46020   0.53979   0.33749   0.00000  Uiso   1.00
O336   O     0.54421   0.50826   0.15877   0.00000  Uiso   1.00
O337   O     0.50532   0.49468   0.33749   0.00000  Uiso   1.00
O338   O     0.51182   0.41434   0.27821   0.00000  Uiso   1.00
O339   O     0.47914   0.59469   0.26767   0.00000  Uiso   1.00
O340   O     0.40785   0.46584   0.23607   0.00000  Uiso   1.00
O341   O     0.60119   0.52512   0.21806   0.00000  Uiso   1.00
C342   C     0.38593   0.49239   0.25868   0.00000  Uiso   1.00
C343   C     0.61426   0.50737   0.24170   0.00000  Uiso   1.00
C344   C     0.48857   0.38935   0.25906   0.00000  Uiso   1.00
C345   C     0.51101   0.61112   0.24193   0.00000  Uiso   1.00
C346   C     0.52121   0.47818   0.14393   0.00000  Uiso   1.00
C347   C     0.47941   0.52151   0.35642   0.00000  Uiso   1.00
C348   C     0.46998   0.52979   0.40036   0.00000  Uiso   1.00
C349   C     0.52935   0.46574   0.10153   0.00000  Uiso   1.00
C350   C     0.43236   0.56658   0.46273   0.00000  Uiso   1.00
C351   C     0.44213   0.55966   0.42144   0.00000  Uiso   1.00
C352   C     0.48798   0.50727   0.42180   0.00000  Uiso   1.00
C353   C     0.47339   0.51037   0.46361   0.00000  Uiso   1.00
C354   C     0.44882   0.54272   0.48375   0.00000  Uiso   1.00
C355   C     0.48473   0.48333   0.48603   0.00000  Uiso   1.00
C356   C     0.48289   0.49543   0.02627   0.00000  Uiso   1.00
C357   C     0.45789   0.52828   0.04622   0.00000  Uiso   1.00
C358   C     0.44155   0.55117   0.02470   0.00000  Uiso   1.00
C359   C     0.49493   0.44313   0.46968   0.00000  Uiso   1.00
C360   C     0.51186   0.41830   0.48871   0.00000  Uiso   1.00
C361   C     0.51610   0.43239   0.02735   0.00000  Uiso   1.00
C362   C     0.50454   0.47287   0.04476   0.00000  Uiso   1.00
C363   C     0.53029   0.40739   0.04981   0.00000  Uiso   1.00
C364   C     0.53662   0.42427   0.08687   0.00000  Uiso   1.00
C365   C     0.51620   0.49028   0.07948   0.00000  Uiso   1.00
H366   H     0.42257   0.57577   0.04055   0.00000  Uiso   1.00
H367   H     0.51309   0.52261   0.09107   0.00000  Uiso   1.00
H368   H     0.48864   0.43007   0.44189   0.00000  Uiso   1.00
C369   C     0.65992   0.51280   0.24056   0.00000  Uiso   1.00
C370   C     0.34120   0.48743   0.25959   0.00000  Uiso   1.00
C371   C     0.51780   0.65637   0.24049   0.00000  Uiso   1.00
C372   C     0.48516   0.34485   0.25961   0.00000  Uiso   1.00
H373   H     0.45378   0.66253   0.27371   0.00000  Uiso   1.00
N374   N     0.53384   0.36371   0.03765   0.00000  Uiso   1.00
O375   O     0.56963   0.34912   0.03442   0.00000  Uiso   1.00
O376   O     0.49962   0.33765   0.03560   0.00000  Uiso   1.00
N377   N     0.35458   0.54665   0.22076   0.00000  Uiso   1.00
O378   O     0.33990   0.58148   0.22058   0.00000  Uiso   1.00
O379   O     0.39347   0.54157   0.19997   0.00000  Uiso   1.00
N380   N     0.64954   0.44942   0.27361   0.00000  Uiso   1.00
O381   O     0.63425   0.42113   0.24937   0.00000  Uiso   1.00
O382   O     0.65085   0.43909   0.30716   0.00000  Uiso   1.00
N383   N     0.55908   0.34281   0.21942   0.00000  Uiso   1.00
O384   O     0.59399   0.66051   0.21729   0.00000  Uiso   1.00
O385   O     0.56188   0.37443   0.19996   0.00000  Uiso   1.00
N386   N     0.54881   0.39871   0.11058   0.00000  Uiso   1.00
O387   O     0.57989   0.41317   0.12707   0.00000  Uiso   1.00
O388   O     0.52707   0.36230   0.11804   0.00000  Uiso   1.00
C389   C     0.52917   0.38072   0.46440   0.00000  Uiso   1.00
O390   O     0.56673   0.37605   0.45971   0.00000  Uiso   1.00
O391   O     0.50317   0.35201   0.44489   0.00000  Uiso   1.00
H392   H     0.51864   0.66126   0.42881   0.00000  Uiso   1.00
N393   N     0.40492   0.59770   0.48317   0.00000  Uiso   1.00
O394   O     0.41534   0.63649   0.47555   0.00000  Uiso   1.00
O395   O     0.36760   0.58653   0.00664   0.00000  Uiso   1.00
N396   N     0.42470   0.58465   0.40126   0.00000  Uiso   1.00
O397   O     0.44921   0.61545   0.38342   0.00000  Uiso   1.00
O398   O     0.38339   0.58085   0.40583   0.00000  Uiso   1.00
N399   N     0.52725   0.48946   0.40261   0.00000  Uiso   1.00
O400   O     0.56280   0.50709   0.41094   0.00000  Uiso   1.00
O401   O     0.52695   0.45325   0.38126   0.00000  Uiso   1.00
C402   C     0.44149   0.53594   0.08962   0.00000  Uiso   1.00
O403   O     0.42805   0.50650   0.10937   0.00000  Uiso   1.00
O404   O     0.43999   0.57716   0.10766   0.00000  Uiso   1.00
H405   H     0.42798   0.57876   0.13726   0.00000  Uiso   1.00
Zn406  Zn    0.85910   0.47423   0.28278   0.00000  Uiso   1.00
Zn407  Zn    0.80125   0.45711   0.22258   0.00000  Uiso   1.00
Zn408  Zn    0.87833   0.52997   0.21188   0.00000  Uiso   1.00
Zn409  Zn    0.79465   0.53868   0.28277   0.00000  Uiso   1.00
O410   O     0.83333   0.50000   0.25000   0.00000  Uiso   1.00
O411   O     0.73656   0.52293   0.27820   0.00000  Uiso   1.00
O412   O     0.92106   0.48610   0.26768   0.00000  Uiso   1.00
O413   O     0.80467   0.40236   0.23607   0.00000  Uiso   1.00
O414   O     0.87104   0.58860   0.21806   0.00000  Uiso   1.00
O415   O     0.82360   0.45726   0.16625   0.00000  Uiso   1.00
O416   O     0.79354   0.53979   0.33749   0.00000  Uiso   1.00
O417   O     0.87755   0.50826   0.15877   0.00000  Uiso   1.00
O418   O     0.83865   0.49468   0.33749   0.00000  Uiso   1.00
O419   O     0.84515   0.41434   0.27821   0.00000  Uiso   1.00
O420   O     0.81247   0.59469   0.26767   0.00000  Uiso   1.00
O421   O     0.74119   0.46584   0.23607   0.00000  Uiso   1.00
O422   O     0.93452   0.52512   0.21806   0.00000  Uiso   1.00
C423   C     0.71926   0.49239   0.25868   0.00000  Uiso   1.00
C424   C     0.94759   0.50737   0.24170   0.00000  Uiso   1.00
C425   C     0.82190   0.38935   0.25906   0.00000  Uiso   1.00
C426   C     0.84434   0.61112   0.24193   0.00000  Uiso   1.00
C427   C     0.85454   0.47818   0.14393   0.00000  Uiso   1.00
C428   C     0.81274   0.52151   0.35642   0.00000  Uiso   1.00
C429   C     0.80331   0.52979   0.40036   0.00000  Uiso   1.00
C430   C     0.86268   0.46574   0.10153   0.00000  Uiso   1.00
C431   C     0.76569   0.56658   0.46273   0.00000  Uiso   1.00
C432   C     0.77547   0.55966   0.42144   0.00000  Uiso   1.00
C433   C     0.82131   0.50727   0.42180   0.00000  Uiso   1.00
C434   C     0.80672   0.51037   0.46361   0.00000  Uiso   1.00
C435   C     0.78215   0.54272   0.48375   0.00000  Uiso   1.00
C436   C     0.81806   0.48333   0.48603   0.00000  Uiso   1.00
C437   C     0.81622   0.49543   0.02627   0.00000  Uiso   1.00
C438   C     0.79122   0.52828   0.04622   0.00000  Uiso   1.00
C439   C     0.77489   0.55117   0.02470   0.00000  Uiso   1.00
C440   C     0.82827   0.44313   0.46968   0.00000  Uiso   1.00
C441   C     0.84519   0.41830   0.48871   0.00000  Uiso   1.00
C442   C     0.84944   0.43239   0.02735   0.00000  Uiso   1.00
C443   C     0.83787   0.47287   0.04476   0.00000  Uiso   1.00
C444   C     0.86362   0.40739   0.04981   0.00000  Uiso   1.00
C445   C     0.86995   0.42427   0.08687   0.00000  Uiso   1.00
C446   C     0.84953   0.49028   0.07948   0.00000  Uiso   1.00
H447   H     0.75591   0.57577   0.04055   0.00000  Uiso   1.00
H448   H     0.84642   0.52261   0.09107   0.00000  Uiso   1.00
H449   H     0.82197   0.43007   0.44189   0.00000  Uiso   1.00
C450   C     0.99326   0.51280   0.24056   0.00000  Uiso   1.00
C451   C     0.67453   0.48743   0.25959   0.00000  Uiso   1.00
C452   C     0.85114   0.65637   0.24049   0.00000  Uiso   1.00
C453   C     0.81849   0.34485   0.25961   0.00000  Uiso   1.00
H454   H     0.78712   0.66253   0.27371   0.00000  Uiso   1.00
N455   N     0.86718   0.36371   0.03765   0.00000  Uiso   1.00
O456   O     0.90297   0.34912   0.03442   0.00000  Uiso   1.00
O457   O     0.83296   0.33765   0.03560   0.00000  Uiso   1.00
N458   N     0.68792   0.54665   0.22076   0.00000  Uiso   1.00
O459   O     0.67323   0.58148   0.22058   0.00000  Uiso   1.00
O460   O     0.72680   0.54157   0.19997   0.00000  Uiso   1.00
N461   N     0.98288   0.44942   0.27361   0.00000  Uiso   1.00
O462   O     0.96758   0.42113   0.24937   0.00000  Uiso   1.00
O463   O     0.98418   0.43909   0.30716   0.00000  Uiso   1.00
N464   N     0.89242   0.34281   0.21942   0.00000  Uiso   1.00
O465   O     0.92732   0.66051   0.21729   0.00000  Uiso   1.00
O466   O     0.89522   0.37443   0.19996   0.00000  Uiso   1.00
N467   N     0.88215   0.39871   0.11058   0.00000  Uiso   1.00
O468   O     0.91322   0.41317   0.12707   0.00000  Uiso   1.00
O469   O     0.86040   0.36230   0.11804   0.00000  Uiso   1.00
C470   C     0.86250   0.38072   0.46440   0.00000  Uiso   1.00
O471   O     0.90006   0.37605   0.45971   0.00000  Uiso   1.00
O472   O     0.83651   0.35201   0.44489   0.00000  Uiso   1.00
H473   H     0.85197   0.66126   0.42881   0.00000  Uiso   1.00
N474   N     0.73826   0.59770   0.48317   0.00000  Uiso   1.00
O475   O     0.74867   0.63649   0.47555   0.00000  Uiso   1.00
O476   O     0.70094   0.58653   0.00664   0.00000  Uiso   1.00
N477   N     0.75803   0.58465   0.40126   0.00000  Uiso   1.00
O478   O     0.78254   0.61545   0.38342   0.00000  Uiso   1.00
O479   O     0.71672   0.58085   0.40583   0.00000  Uiso   1.00
N480   N     0.86059   0.48946   0.40261   0.00000  Uiso   1.00
O481   O     0.89613   0.50709   0.41094   0.00000  Uiso   1.00
O482   O     0.86028   0.45325   0.38126   0.00000  Uiso   1.00
C483   C     0.77483   0.53594   0.08962   0.00000  Uiso   1.00
O484   O     0.76139   0.50650   0.10937   0.00000  Uiso   1.00
O485   O     0.77333   0.57716   0.10766   0.00000  Uiso   1.00
H486   H     0.76132   0.57876   0.13726   0.00000  Uiso   1.00
Zn487  Zn    0.19244   0.80756   0.28278   0.00000  Uiso   1.00
Zn488  Zn    0.13459   0.79044   0.22258   0.00000  Uiso   1.00
Zn489  Zn    0.21166   0.86331   0.21188   0.00000  Uiso   1.00
Zn490  Zn    0.12798   0.87202   0.28277   0.00000  Uiso   1.00
O491   O     0.16667   0.83333   0.25000   0.00000  Uiso   1.00
O492   O     0.06990   0.85627   0.27820   0.00000  Uiso   1.00
O493   O     0.25440   0.81944   0.26768   0.00000  Uiso   1.00
O494   O     0.13800   0.73570   0.23607   0.00000  Uiso   1.00
O495   O     0.20437   0.92193   0.21806   0.00000  Uiso   1.00
O496   O     0.15693   0.79060   0.16625   0.00000  Uiso   1.00
O497   O     0.12687   0.87313   0.33749   0.00000  Uiso   1.00
O498   O     0.21088   0.84159   0.15877   0.00000  Uiso   1.00
O499   O     0.17198   0.82802   0.33749   0.00000  Uiso   1.00
O500   O     0.17849   0.74768   0.27821   0.00000  Uiso   1.00
O501   O     0.14581   0.92803   0.26767   0.00000  Uiso   1.00
O502   O     0.07452   0.79917   0.23607   0.00000  Uiso   1.00
O503   O     0.26785   0.85845   0.21806   0.00000  Uiso   1.00
C504   C     0.05259   0.82573   0.25868   0.00000  Uiso   1.00
C505   C     0.28093   0.84070   0.24170   0.00000  Uiso   1.00
C506   C     0.15524   0.72268   0.25906   0.00000  Uiso   1.00
C507   C     0.17768   0.94446   0.24193   0.00000  Uiso   1.00
C508   C     0.18787   0.81152   0.14393   0.00000  Uiso   1.00
C509   C     0.14607   0.85484   0.35642   0.00000  Uiso   1.00
C510   C     0.13664   0.86312   0.40036   0.00000  Uiso   1.00
C511   C     0.19601   0.79908   0.10153   0.00000  Uiso   1.00
C512   C     0.09902   0.89991   0.46273   0.00000  Uiso   1.00
C513   C     0.10880   0.89300   0.42144   0.00000  Uiso   1.00
C514   C     0.15465   0.84061   0.42180   0.00000  Uiso   1.00
C515   C     0.14006   0.84370   0.46361   0.00000  Uiso   1.00
C516   C     0.11548   0.87605   0.48375   0.00000  Uiso   1.00
C517   C     0.15140   0.81667   0.48603   0.00000  Uiso   1.00
C518   C     0.14955   0.82876   0.02627   0.00000  Uiso   1.00
C519   C     0.12456   0.86161   0.04622   0.00000  Uiso   1.00
C520   C     0.10822   0.88450   0.02470   0.00000  Uiso   1.00
C521   C     0.16160   0.77647   0.46968   0.00000  Uiso   1.00
C522   C     0.17852   0.75164   0.48871   0.00000  Uiso   1.00
C523   C     0.18277   0.76572   0.02735   0.00000  Uiso   1.00
C524   C     0.17120   0.80620   0.04476   0.00000  Uiso   1.00
C525   C     0.19696   0.74072   0.04981   0.00000  Uiso   1.00
C526   C     0.20328   0.75760   0.08687   0.00000  Uiso   1.00
C527   C     0.18287   0.82361   0.07948   0.00000  Uiso   1.00
H528   H     0.08924   0.90911   0.04055   0.00000  Uiso   1.00
H529   H     0.17975   0.85594   0.09107   0.00000  Uiso   1.00
H530   H     0.15530   0.76341   0.44189   0.00000  Uiso   1.00
C531   C     0.32659   0.84613   0.24056   0.00000  Uiso   1.00
C532   C     0.00787   0.82077   0.25959   0.00000  Uiso   1.00
C533   C     0.18447   0.98971   0.24049   0.00000  Uiso   1.00
C534   C     0.15182   0.67819   0.25961   0.00000  Uiso   1.00
H535   H     0.12045   0.99587   0.27371   0.00000  Uiso   1.00
N536   N     0.20051   0.69704   0.03765   0.00000  Uiso   1.00
O537   O     0.23630   0.68245   0.03442   0.00000  Uiso   1.00
O538   O     0.16629   0.67098   0.03560   0.00000  Uiso   1.00
N539   N     0.02125   0.87998   0.22076   0.00000  Uiso   1.00
O540   O     0.00656   0.91482   0.22058   0.00000  Uiso   1.00
O541   O     0.06013   0.87491   0.19997   0.00000  Uiso   1.00
N542   N     0.31621   0.78276   0.27361   0.00000  Uiso   1.00
O543   O     0.30091   0.75446   0.24937   0.00000  Uiso   1.00
O544   O     0.31751   0.77242   0.30716   0.00000  Uiso   1.00
N545   N     0.22575   0.67614   0.21942   0.00000  Uiso   1.00
O546   O     0.26066   0.99384   0.21729   0.00000  Uiso   1.00
O547   O     0.22855   0.70776   0.19996   0.00000  Uiso   1.00
N548   N     0.21548   0.73205   0.11058   0.00000  Uiso   1.00
O549   O     0.24655   0.74651   0.12707   0.00000  Uiso   1.00
O550   O     0.19374   0.69563   0.11804   0.00000  Uiso   1.00
C551   C     0.19583   0.71406   0.46440   0.00000  Uiso   1.00
O552   O     0.23339   0.70938   0.45971   0.00000  Uiso   1.00
O553   O     0.16984   0.68534   0.44489   0.00000  Uiso   1.00
H554   H     0.18531   0.99459   0.42881   0.00000  Uiso   1.00
N555   N     0.07159   0.93104   0.48317   0.00000  Uiso   1.00
O556   O     0.08200   0.96982   0.47555   0.00000  Uiso   1.00
O557   O     0.03427   0.91987   0.00664   0.00000  Uiso   1.00
N558   N     0.09136   0.91799   0.40126   0.00000  Uiso   1.00
O559   O     0.11588   0.94878   0.38342   0.00000  Uiso   1.00
O560   O     0.05005   0.91418   0.40583   0.00000  Uiso   1.00
N561   N     0.19392   0.82280   0.40261   0.00000  Uiso   1.00
O562   O     0.22947   0.84042   0.41094   0.00000  Uiso   1.00
O563   O     0.19361   0.78658   0.38126   0.00000  Uiso   1.00
C564   C     0.10816   0.86928   0.08962   0.00000  Uiso   1.00
O565   O     0.09472   0.83983   0.10937   0.00000  Uiso   1.00
O566   O     0.10666   0.91049   0.10766   0.00000  Uiso   1.00
H567   H     0.09465   0.91209   0.13726   0.00000  Uiso   1.00
Zn568  Zn    0.52577   0.80756   0.28278   0.00000  Uiso   1.00
Zn569  Zn    0.46792   0.79044   0.22258   0.00000  Uiso   1.00
Zn570  Zn    0.54500   0.86331   0.21188   0.00000  Uiso   1.00
Zn571  Zn    0.46131   0.87202   0.28277   0.00000  Uiso   1.00
O572   O     0.50000   0.83333   0.25000   0.00000  Uiso   1.00
O573   O     0.40323   0.85627   0.27820   0.00000  Uiso   1.00
O574   O     0.58773   0.81944   0.26768   0.00000  Uiso   1.00
O575   O     0.47133   0.73570   0.23607   0.00000  Uiso   1.00
O576   O     0.53771   0.92193   0.21806   0.00000  Uiso   1.00
O577   O     0.49027   0.79060   0.16625   0.00000  Uiso   1.00
O578   O     0.46020   0.87313   0.33749   0.00000  Uiso   1.00
O579   O     0.54421   0.84159   0.15877   0.00000  Uiso   1.00
O580   O     0.50532   0.82802   0.33749   0.00000  Uiso   1.00
O581   O     0.51182   0.74768   0.27821   0.00000  Uiso   1.00
O582   O     0.47914   0.92803   0.26767   0.00000  Uiso   1.00
O583   O     0.40785   0.79917   0.23607   0.00000  Uiso   1.00
O584   O     0.60119   0.85845   0.21806   0.00000  Uiso   1.00
C585   C     0.38593   0.82573   0.25868   0.00000  Uiso   1.00
C586   C     0.61426   0.84070   0.24170   0.00000  Uiso   1.00
C587   C     0.48857   0.72268   0.25906   0.00000  Uiso   1.00
C588   C     0.51101   0.94446   0.24193   0.00000  Uiso   1.00
C589   C     0.52121   0.81152   0.14393   0.00000  Uiso   1.00
C590   C     0.47941   0.85484   0.35642   0.00000  Uiso   1.00
C591   C     0.46998   0.86312   0.40036   0.00000  Uiso   1.00
C592   C     0.52935   0.79908   0.10153   0.00000  Uiso   1.00
C593   C     0.43236   0.89991   0.46273   0.00000  Uiso   1.00
C594   C     0.44213   0.89300   0.42144   0.00000  Uiso   1.00
C595   C     0.48798   0.84061   0.42180   0.00000  Uiso   1.00
C596   C     0.47339   0.84370   0.46361   0.00000  Uiso   1.00
C597   C     0.44882   0.87605   0.48375   0.00000  Uiso   1.00
C598   C     0.48473   0.81667   0.48603   0.00000  Uiso   1.00
C599   C     0.48289   0.82876   0.02627   0.00000  Uiso   1.00
C600   C     0.45789   0.86161   0.04622   0.00000  Uiso   1.00
C601   C     0.44155   0.88450   0.02470   0.00000  Uiso   1.00
C602   C     0.49493   0.77647   0.46968   0.00000  Uiso   1.00
C603   C     0.51186   0.75164   0.48871   0.00000  Uiso   1.00
C604   C     0.51610   0.76572   0.02735   0.00000  Uiso   1.00
C605   C     0.50454   0.80620   0.04476   0.00000  Uiso   1.00
C606   C     0.53029   0.74072   0.04981   0.00000  Uiso   1.00
C607   C     0.53662   0.75760   0.08687   0.00000  Uiso   1.00
C608   C     0.51620   0.82361   0.07948   0.00000  Uiso   1.00
H609   H     0.42257   0.90911   0.04055   0.00000  Uiso   1.00
H610   H     0.51309   0.85594   0.09107   0.00000  Uiso   1.00
H611   H     0.48864   0.76341   0.44189   0.00000  Uiso   1.00
C612   C     0.65992   0.84613   0.24056   0.00000  Uiso   1.00
C613   C     0.34120   0.82077   0.25959   0.00000  Uiso   1.00
C614   C     0.51780   0.98971   0.24049   0.00000  Uiso   1.00
C615   C     0.48516   0.67819   0.25961   0.00000  Uiso   1.00
H616   H     0.45378   0.99587   0.27371   0.00000  Uiso   1.00
N617   N     0.53384   0.69704   0.03765   0.00000  Uiso   1.00
O618   O     0.56963   0.68245   0.03442   0.00000  Uiso   1.00
O619   O     0.49962   0.67098   0.03560   0.00000  Uiso   1.00
N620   N     0.35458   0.87998   0.22076   0.00000  Uiso   1.00
O621   O     0.33990   0.91482   0.22058   0.00000  Uiso   1.00
O622   O     0.39347   0.87491   0.19997   0.00000  Uiso   1.00
N623   N     0.64954   0.78276   0.27361   0.00000  Uiso   1.00
O624   O     0.63425   0.75446   0.24937   0.00000  Uiso   1.00
O625   O     0.65085   0.77242   0.30716   0.00000  Uiso   1.00
N626   N     0.55908   0.67614   0.21942   0.00000  Uiso   1.00
O627   O     0.59399   0.99384   0.21729   0.00000  Uiso   1.00
O628   O     0.56188   0.70776   0.19996   0.00000  Uiso   1.00
N629   N     0.54881   0.73205   0.11058   0.00000  Uiso   1.00
O630   O     0.57989   0.74651   0.12707   0.00000  Uiso   1.00
O631   O     0.52707   0.69563   0.11804   0.00000  Uiso   1.00
C632   C     0.52917   0.71406   0.46440   0.00000  Uiso   1.00
O633   O     0.56673   0.70938   0.45971   0.00000  Uiso   1.00
O634   O     0.50317   0.68534   0.44489   0.00000  Uiso   1.00
H635   H     0.51864   0.99459   0.42881   0.00000  Uiso   1.00
N636   N     0.40492   0.93104   0.48317   0.00000  Uiso   1.00
O637   O     0.41534   0.96982   0.47555   0.00000  Uiso   1.00
O638   O     0.36760   0.91987   0.00664   0.00000  Uiso   1.00
N639   N     0.42470   0.91799   0.40126   0.00000  Uiso   1.00
O640   O     0.44921   0.94878   0.38342   0.00000  Uiso   1.00
O641   O     0.38339   0.91418   0.40583   0.00000  Uiso   1.00
N642   N     0.52725   0.82280   0.40261   0.00000  Uiso   1.00
O643   O     0.56280   0.84042   0.41094   0.00000  Uiso   1.00
O644   O     0.52695   0.78658   0.38126   0.00000  Uiso   1.00
C645   C     0.44149   0.86928   0.08962   0.00000  Uiso   1.00
O646   O     0.42805   0.83983   0.10937   0.00000  Uiso   1.00
O647   O     0.43999   0.91049   0.10766   0.00000  Uiso   1.00
H648   H     0.42798   0.91209   0.13726   0.00000  Uiso   1.00
Zn649  Zn    0.85910   0.80756   0.28278   0.00000  Uiso   1.00
Zn650  Zn    0.80125   0.79044   0.22258   0.00000  Uiso   1.00
Zn651  Zn    0.87833   0.86331   0.21188   0.00000  Uiso   1.00
Zn652  Zn    0.79465   0.87202   0.28277   0.00000  Uiso   1.00
O653   O     0.83333   0.83333   0.25000   0.00000  Uiso   1.00
O654   O     0.73656   0.85627   0.27820   0.00000  Uiso   1.00
O655   O     0.92106   0.81944   0.26768   0.00000  Uiso   1.00
O656   O     0.80467   0.73570   0.23607   0.00000  Uiso   1.00
O657   O     0.87104   0.92193   0.21806   0.00000  Uiso   1.00
O658   O     0.82360   0.79060   0.16625   0.00000  Uiso   1.00
O659   O     0.79354   0.87313   0.33749   0.00000  Uiso   1.00
O660   O     0.87755   0.84159   0.15877   0.00000  Uiso   1.00
O661   O     0.83865   0.82802   0.33749   0.00000  Uiso   1.00
O662   O     0.84515   0.74768   0.27821   0.00000  Uiso   1.00
O663   O     0.81247   0.92803   0.26767   0.00000  Uiso   1.00
O664   O     0.74119   0.79917   0.23607   0.00000  Uiso   1.00
O665   O     0.93452   0.85845   0.21806   0.00000  Uiso   1.00
C666   C     0.71926   0.82573   0.25868   0.00000  Uiso   1.00
C667   C     0.94759   0.84070   0.24170   0.00000  Uiso   1.00
C668   C     0.82190   0.72268   0.25906   0.00000  Uiso   1.00
C669   C     0.84434   0.94446   0.24193   0.00000  Uiso   1.00
C670   C     0.85454   0.81152   0.14393   0.00000  Uiso   1.00
C671   C     0.81274   0.85484   0.35642   0.00000  Uiso   1.00
C672   C     0.80331   0.86312   0.40036   0.00000  Uiso   1.00
C673   C     0.86268   0.79908   0.10153   0.00000  Uiso   1.00
C674   C     0.76569   0.89991   0.46273   0.00000  Uiso   1.00
C675   C     0.77547   0.89300   0.42144   0.00000  Uiso   1.00
C676   C     0.82131   0.84061   0.42180   0.00000  Uiso   1.00
C677   C     0.80672   0.84370   0.46361   0.00000  Uiso   1.00
C678   C     0.78215   0.87605   0.48375   0.00000  Uiso   1.00
C679   C     0.81806   0.81667   0.48603   0.00000  Uiso   1.00
C680   C     0.81622   0.82876   0.02627   0.00000  Uiso   1.00
C681   C     0.79122   0.86161   0.04622   0.00000  Uiso   1.00
C682   C     0.77489   0.88450   0.02470   0.00000  Uiso   1.00
C683   C     0.82827   0.77647   0.46968   0.00000  Uiso   1.00
C684   C     0.84519   0.75164   0.48871   0.00000  Uiso   1.00
C685   C     0.84944   0.76572   0.02735   0.00000  Uiso   1.00
C686   C     0.83787   0.80620   0.04476   0.00000  Uiso   1.00
C687   C     0.86362   0.74072   0.04981   0.00000  Uiso   1.00
C688   C     0.86995   0.75760   0.08687   0.00000  Uiso   1.00
C689   C     0.84953   0.82361   0.07948   0.00000  Uiso   1.00
H690   H     0.75591   0.90911   0.04055   0.00000  Uiso   1.00
H691   H     0.84642   0.85594   0.09107   0.00000  Uiso   1.00
H692   H     0.82197   0.76341   0.44189   0.00000  Uiso   1.00
C693   C     0.99326   0.84613   0.24056   0.00000  Uiso   1.00
C694   C     0.67453   0.82077   0.25959   0.00000  Uiso   1.00
C695   C     0.85114   0.98971   0.24049   0.00000  Uiso   1.00
C696   C     0.81849   0.67819   0.25961   0.00000  Uiso   1.00
H697   H     0.78712   0.99587   0.27371   0.00000  Uiso   1.00
N698   N     0.86718   0.69704   0.03765   0.00000  Uiso   1.00
O699   O     0.90297   0.68245   0.03442   0.00000  Uiso   1.00
O700   O     0.83296   0.67098   0.03560   0.00000  Uiso   1.00
N701   N     0.68792   0.87998   0.22076   0.00000  Uiso   1.00
O702   O     0.67323   0.91482   0.22058   0.00000  Uiso   1.00
O703   O     0.72680   0.87491   0.19997   0.00000  Uiso   1.00
N704   N     0.98288   0.78276   0.27361   0.00000  Uiso   1.00
O705   O     0.96758   0.75446   0.24937   0.00000  Uiso   1.00
O706   O     0.98418   0.77242   0.30716   0.00000  Uiso   1.00
N707   N     0.89242   0.67614   0.21942   0.00000  Uiso   1.00
O708   O     0.92732   0.99384   0.21729   0.00000  Uiso   1.00
O709   O     0.89522   0.70776   0.19996   0.00000  Uiso   1.00
N710   N     0.88215   0.73205   0.11058   0.00000  Uiso   1.00
O711   O     0.91322   0.74651   0.12707   0.00000  Uiso   1.00
O712   O     0.86040   0.69563   0.11804   0.00000  Uiso   1.00
C713   C     0.86250   0.71406   0.46440   0.00000  Uiso   1.00
O714   O     0.90006   0.70938   0.45971   0.00000  Uiso   1.00
O715   O     0.83651   0.68534   0.44489   0.00000  Uiso   1.00
H716   H     0.85197   0.99459   0.42881   0.00000  Uiso   1.00
N717   N     0.73826   0.93104   0.48317   0.00000  Uiso   1.00
O718   O     0.74867   0.96982   0.47555   0.00000  Uiso   1.00
O719   O     0.70094   0.91987   0.00664   0.00000  Uiso   1.00
N720   N     0.75803   0.91799   0.40126   0.00000  Uiso   1.00
O721   O     0.78254   0.94878   0.38342   0.00000  Uiso   1.00
O722   O     0.71672   0.91418   0.40583   0.00000  Uiso   1.00
N723   N     0.86059   0.82280   0.40261   0.00000  Uiso   1.00
O724   O     0.89613   0.84042   0.41094   0.00000  Uiso   1.00
O725   O     0.86028   0.78658   0.38126   0.00000  Uiso   1.00
C726   C     0.77483   0.86928   0.08962   0.00000  Uiso   1.00
O727   O     0.76139   0.83983   0.10937   0.00000  Uiso   1.00
O728   O     0.77333   0.91049   0.10766   0.00000  Uiso   1.00
H729   H     0.76132   0.91209   0.13726   0.00000  Uiso   1.00
Zn730  Zn    0.19244   0.14090   0.78278   0.00000  Uiso   1.00
Zn731  Zn    0.13459   0.12378   0.72258   0.00000  Uiso   1.00
Zn732  Zn    0.21166   0.19664   0.71188   0.00000  Uiso   1.00
Zn733  Zn    0.12798   0.20535   0.78277   0.00000  Uiso   1.00
O734   O     0.16667   0.16667   0.75000   0.00000  Uiso   1.00
O735   O     0.06990   0.18960   0.77820   0.00000  Uiso   1.00
O736   O     0.25440   0.15277   0.76768   0.00000  Uiso   1.00
O737   O     0.13800   0.06903   0.73607   0.00000  Uiso   1.00
O738   O     0.20437   0.25527   0.71806   0.00000  Uiso   1.00
O739   O     0.15693   0.12393   0.66625   0.00000  Uiso   1.00
O740   O     0.12687   0.20646   0.83749   0.00000  Uiso   1.00
O741   O     0.21088   0.17493   0.65877   0.00000  Uiso   1.00
O742   O     0.17198   0.16135   0.83749   0.00000  Uiso   1.00
O743   O     0.17849   0.08101   0.77821   0.00000  Uiso   1.00
O744   O     0.14581   0.26136   0.76767   0.00000  Uiso   1.00
O745   O     0.07452   0.13251   0.73607   0.00000  Uiso   1.00
O746   O     0.26785   0.19179   0.71806   0.00000  Uiso   1.00
C747   C     0.05259   0.15906   0.75868   0.00000  Uiso   1.00
C748   C     0.28093   0.17404   0.74170   0.00000  Uiso   1.00
C749   C     0.15524   0.05602   0.75906   0.00000  Uiso   1.00
C750   C     0.17768   0.27779   0.74193   0.00000  Uiso   1.00
C751   C     0.18787   0.14485   0.64393   0.00000  Uiso   1.00
C752   C     0.14607   0.18817   0.85642   0.00000  Uiso   1.00
C753   C     0.13664   0.19646   0.90036   0.00000  Uiso   1.00
C754   C     0.19601   0.13241   0.60153   0.00000  Uiso   1.00
C755   C     0.09902   0.23325   0.96273   0.00000  Uiso   1.00
C756   C     0.10880   0.22633   0.92144   0.00000  Uiso   1.00
C757   C     0.15465   0.17394   0.92180   0.00000  Uiso   1.00
C758   C     0.14006   0.17703   0.96361   0.00000  Uiso   1.00
C759   C     0.11548   0.20939   0.98375   0.00000  Uiso   1.00
C760   C     0.15140   0.15000   0.98603   0.00000  Uiso   1.00
C761   C     0.14955   0.16210   0.52627   0.00000  Uiso   1.00
C762   C     0.12456   0.19495   0.54622   0.00000  Uiso   1.00
C763   C     0.10822   0.21784   0.52470   0.00000  Uiso   1.00
C764   C     0.16160   0.10980   0.96968   0.00000  Uiso   1.00
C765   C     0.17852   0.08497   0.98871   0.00000  Uiso   1.00
C766   C     0.18277   0.09905   0.52735   0.00000  Uiso   1.00
C767   C     0.17120   0.13953   0.54476   0.00000  Uiso   1.00
C768   C     0.19696   0.07405   0.54981   0.00000  Uiso   1.00
C769   C     0.20328   0.09094   0.58687   0.00000  Uiso   1.00
C770   C     0.18287   0.15695   0.57948   0.00000  Uiso   1.00
H771   H     0.08924   0.24244   0.54055   0.00000  Uiso   1.00
H772   H     0.17975   0.18928   0.59107   0.00000  Uiso   1.00
H773   H     0.15530   0.09674   0.94189   0.00000  Uiso   1.00
C774   C     0.32659   0.17946   0.74056   0.00000  Uiso   1.00
C775   C     0.00787   0.15410   0.75959   0.00000  Uiso   1.00
C776   C     0.18447   0.32304   0.74049   0.00000  Uiso   1.00
C777   C     0.15182   0.01152   0.75961   0.00000  Uiso   1.00
H778   H     0.12045   0.32920   0.77371   0.00000  Uiso   1.00
N779   N     0.20051   0.03037   0.53765   0.00000  Uiso   1.00
O780   O     0.23630   0.01578   0.53442   0.00000  Uiso   1.00
O781   O     0.16629   0.00432   0.53560   0.00000  Uiso   1.00
N782   N     0.02125   0.21331   0.72076   0.00000  Uiso   1.00
O783   O     0.00656   0.24815   0.72058   0.00000  Uiso   1.00
O784   O     0.06013   0.20824   0.69997   0.00000  Uiso   1.00
N785   N     0.31621   0.11609   0.77361   0.00000  Uiso   1.00
O786   O     0.30091   0.08779   0.74937   0.00000  Uiso   1.00
O787   O     0.31751   0.10575   0.80716   0.00000  Uiso   1.00
N788   N     0.22575   0.00948   0.71942   0.00000  Uiso   1.00
O789   O     0.26066   0.32717   0.71729   0.00000  Uiso   1.00
O790   O     0.22855   0.04110   0.69996   0.00000  Uiso   1.00
N791   N     0.21548   0.06538   0.61058   0.00000  Uiso   1.00
O792   O     0.24655   0.07984   0.62707   0.00000  Uiso   1.00
O793   O     0.19374   0.02897   0.61804   0.00000  Uiso   1.00
C794   C     0.19583   0.04739   0.96440   0.00000  Uiso   1.00
O795   O     0.23339   0.04272   0.95971   0.00000  Uiso   1.00
O796   O     0.16984   0.01868   0.94489   0.00000  Uiso   1.00
H797   H     0.18531   0.32792   0.92881   0.00000  Uiso   1.00
N798   N     0.07159   0.26437   0.98317   0.00000  Uiso   1.00
O799   O     0.08200   0.30316   0.97555   0.00000  Uiso   1.00
O800   O     0.03427   0.25320   0.50664   0.00000  Uiso   1.00
N801   N     0.09136   0.25132   0.90126   0.00000  Uiso   1.00
O802   O     0.11588   0.28212   0.88342   0.00000  Uiso   1.00
O803   O     0.05005   0.24752   0.90583   0.00000  Uiso   1.00
N804   N     0.19392   0.15613   0.90261   0.00000  Uiso   1.00
O805   O     0.22947   0.17376   0.91094   0.00000  Uiso   1.00
O806   O     0.19361   0.11991   0.88126   0.00000  Uiso   1.00
C807   C     0.10816   0.20261   0.58962   0.00000  Uiso   1.00
O808   O     0.09472   0.17316   0.60937   0.00000  Uiso   1.00
O809   O     0.10666   0.24382   0.60766   0.00000  Uiso   1.00
H810   H     0.09465   0.24542   0.63726   0.00000  Uiso   1.00
Zn811  Zn    0.52577   0.14090   0.78278   0.00000  Uiso   1.00
Zn812  Zn    0.46792   0.12378   0.72258   0.00000  Uiso   1.00
Zn813  Zn    0.54500   0.19664   0.71188   0.00000  Uiso   1.00
Zn814  Zn    0.46131   0.20535   0.78277   0.00000  Uiso   1.00
O815   O     0.50000   0.16667   0.75000   0.00000  Uiso   1.00
O816   O     0.40323   0.18960   0.77820   0.00000  Uiso   1.00
O817   O     0.58773   0.15277   0.76768   0.00000  Uiso   1.00
O818   O     0.47133   0.06903   0.73607   0.00000  Uiso   1.00
O819   O     0.53771   0.25527   0.71806   0.00000  Uiso   1.00
O820   O     0.49027   0.12393   0.66625   0.00000  Uiso   1.00
O821   O     0.46020   0.20646   0.83749   0.00000  Uiso   1.00
O822   O     0.54421   0.17493   0.65877   0.00000  Uiso   1.00
O823   O     0.50532   0.16135   0.83749   0.00000  Uiso   1.00
O824   O     0.51182   0.08101   0.77821   0.00000  Uiso   1.00
O825   O     0.47914   0.26136   0.76767   0.00000  Uiso   1.00
O826   O     0.40785   0.13251   0.73607   0.00000  Uiso   1.00
O827   O     0.60119   0.19179   0.71806   0.00000  Uiso   1.00
C828   C     0.38593   0.15906   0.75868   0.00000  Uiso   1.00
C829   C     0.61426   0.17404   0.74170   0.00000  Uiso   1.00
C830   C     0.48857   0.05602   0.75906   0.00000  Uiso   1.00
C831   C     0.51101   0.27779   0.74193   0.00000  Uiso   1.00
C832   C     0.52121   0.14485   0.64393   0.00000  Uiso   1.00
C833   C     0.47941   0.18817   0.85642   0.00000  Uiso   1.00
C834   C     0.46998   0.19646   0.90036   0.00000  Uiso   1.00
C835   C     0.52935   0.13241   0.60153   0.00000  Uiso   1.00
C836   C     0.43236   0.23325   0.96273   0.00000  Uiso   1.00
C837   C     0.44213   0.22633   0.92144   0.00000  Uiso   1.00
C838   C     0.48798   0.17394   0.92180   0.00000  Uiso   1.00
C839   C     0.47339   0.17703   0.96361   0.00000  Uiso   1.00
C840   C     0.44882   0.20939   0.98375   0.00000  Uiso   1.00
C841   C     0.48473   0.15000   0.98603   0.00000  Uiso   1.00
C842   C     0.48289   0.16210   0.52627   0.00000  Uiso   1.00
C843   C     0.45789   0.19495   0.54622   0.00000  Uiso   1.00
C844   C     0.44155   0.21784   0.52470   0.00000  Uiso   1.00
C845   C     0.49493   0.10980   0.96968   0.00000  Uiso   1.00
C846   C     0.51186   0.08497   0.98871   0.00000  Uiso   1.00
C847   C     0.51610   0.09905   0.52735   0.00000  Uiso   1.00
C848   C     0.50454   0.13953   0.54476   0.00000  Uiso   1.00
C849   C     0.53029   0.07405   0.54981   0.00000  Uiso   1.00
C850   C     0.53662   0.09094   0.58687   0.00000  Uiso   1.00
C851   C     0.51620   0.15695   0.57948   0.00000  Uiso   1.00
H852   H     0.42257   0.24244   0.54055   0.00000  Uiso   1.00
H853   H     0.51309   0.18928   0.59107   0.00000  Uiso   1.00
H854   H     0.48864   0.09674   0.94189   0.00000  Uiso   1.00
C855   C     0.65992   0.17946   0.74056   0.00000  Uiso   1.00
C856   C     0.34120   0.15410   0.75959   0.00000  Uiso   1.00
C857   C     0.51780   0.32304   0.74049   0.00000  Uiso   1.00
C858   C     0.48516   0.01152   0.75961   0.00000  Uiso   1.00
H859   H     0.45378   0.32920   0.77371   0.00000  Uiso   1.00
N860   N     0.53384   0.03037   0.53765   0.00000  Uiso   1.00
O861   O     0.56963   0.01578   0.53442   0.00000  Uiso   1.00
O862   O     0.49962   0.00432   0.53560   0.00000  Uiso   1.00
N863   N     0.35458   0.21331   0.72076   0.00000  Uiso   1.00
O864   O     0.33990   0.24815   0.72058   0.00000  Uiso   1.00
O865   O     0.39347   0.20824   0.69997   0.00000  Uiso   1.00
N866   N     0.64954   0.11609   0.77361   0.00000  Uiso   1.00
O867   O     0.63425   0.08779   0.74937   0.00000  Uiso   1.00
O868   O     0.65085   0.10575   0.80716   0.00000  Uiso   1.00
N869   N     0.55908   0.00948   0.71942   0.00000  Uiso   1.00
O870   O     0.59399   0.32717   0.71729   0.00000  Uiso   1.00
O871   O     0.56188   0.04110   0.69996   0.00000  Uiso   1.00
N872   N     0.54881   0.06538   0.61058   0.00000  Uiso   1.00
O873   O     0.57989   0.07984   0.62707   0.00000  Uiso   1.00
O874   O     0.52707   0.02897   0.61804   0.00000  Uiso   1.00
C875   C     0.52917   0.04739   0.96440   0.00000  Uiso   1.00
O876   O     0.56673   0.04272   0.95971   0.00000  Uiso   1.00
O877   O     0.50317   0.01868   0.94489   0.00000  Uiso   1.00
H878   H     0.51864   0.32792   0.92881   0.00000  Uiso   1.00
N879   N     0.40492   0.26437   0.98317   0.00000  Uiso   1.00
O880   O     0.41534   0.30316   0.97555   0.00000  Uiso   1.00
O881   O     0.36760   0.25320   0.50664   0.00000  Uiso   1.00
N882   N     0.42470   0.25132   0.90126   0.00000  Uiso   1.00
O883   O     0.44921   0.28212   0.88342   0.00000  Uiso   1.00
O884   O     0.38339   0.24752   0.90583   0.00000  Uiso   1.00
N885   N     0.52725   0.15613   0.90261   0.00000  Uiso   1.00
O886   O     0.56280   0.17376   0.91094   0.00000  Uiso   1.00
O887   O     0.52695   0.11991   0.88126   0.00000  Uiso   1.00
C888   C     0.44149   0.20261   0.58962   0.00000  Uiso   1.00
O889   O     0.42805   0.17316   0.60937   0.00000  Uiso   1.00
O890   O     0.43999   0.24382   0.60766   0.00000  Uiso   1.00
H891   H     0.42798   0.24542   0.63726   0.00000  Uiso   1.00
Zn892  Zn    0.85910   0.14090   0.78278   0.00000  Uiso   1.00
Zn893  Zn    0.80125   0.12378   0.72258   0.00000  Uiso   1.00
Zn894  Zn    0.87833   0.19664   0.71188   0.00000  Uiso   1.00
Zn895  Zn    0.79465   0.20535   0.78277   0.00000  Uiso   1.00
O896   O     0.83333   0.16667   0.75000   0.00000  Uiso   1.00
O897   O     0.73656   0.18960   0.77820   0.00000  Uiso   1.00
O898   O     0.92106   0.15277   0.76768   0.00000  Uiso   1.00
O899   O     0.80467   0.06903   0.73607   0.00000  Uiso   1.00
O900   O     0.87104   0.25527   0.71806   0.00000  Uiso   1.00
O901   O     0.82360   0.12393   0.66625   0.00000  Uiso   1.00
O902   O     0.79354   0.20646   0.83749   0.00000  Uiso   1.00
O903   O     0.87755   0.17493   0.65877   0.00000  Uiso   1.00
O904   O     0.83865   0.16135   0.83749   0.00000  Uiso   1.00
O905   O     0.84515   0.08101   0.77821   0.00000  Uiso   1.00
O906   O     0.81247   0.26136   0.76767   0.00000  Uiso   1.00
O907   O     0.74119   0.13251   0.73607   0.00000  Uiso   1.00
O908   O     0.93452   0.19179   0.71806   0.00000  Uiso   1.00
C909   C     0.71926   0.15906   0.75868   0.00000  Uiso   1.00
C910   C     0.94759   0.17404   0.74170   0.00000  Uiso   1.00
C911   C     0.82190   0.05602   0.75906   0.00000  Uiso   1.00
C912   C     0.84434   0.27779   0.74193   0.00000  Uiso   1.00
C913   C     0.85454   0.14485   0.64393   0.00000  Uiso   1.00
C914   C     0.81274   0.18817   0.85642   0.00000  Uiso   1.00
C915   C     0.80331   0.19646   0.90036   0.00000  Uiso   1.00
C916   C     0.86268   0.13241   0.60153   0.00000  Uiso   1.00
C917   C     0.76569   0.23325   0.96273   0.00000  Uiso   1.00
C918   C     0.77547   0.22633   0.92144   0.00000  Uiso   1.00
C919   C     0.82131   0.17394   0.92180   0.00000  Uiso   1.00
C920   C     0.80672   0.17703   0.96361   0.00000  Uiso   1.00
C921   C     0.78215   0.20939   0.98375   0.00000  Uiso   1.00
C922   C     0.81806   0.15000   0.98603   0.00000  Uiso   1.00
C923   C     0.81622   0.16210   0.52627   0.00000  Uiso   1.00
C924   C     0.79122   0.19495   0.54622   0.00000  Uiso   1.00
C925   C     0.77489   0.21784   0.52470   0.00000  Uiso   1.00
C926   C     0.82827   0.10980   0.96968   0.00000  Uiso   1.00
C927   C     0.84519   0.08497   0.98871   0.00000  Uiso   1.00
C928   C     0.84944   0.09905   0.52735   0.00000  Uiso   1.00
C929   C     0.83787   0.13953   0.54476   0.00000  Uiso   1.00
C930   C     0.86362   0.07405   0.54981   0.00000  Uiso   1.00
C931   C     0.86995   0.09094   0.58687   0.00000  Uiso   1.00
C932   C     0.84953   0.15695   0.57948   0.00000  Uiso   1.00
H933   H     0.75591   0.24244   0.54055   0.00000  Uiso   1.00
H934   H     0.84642   0.18928   0.59107   0.00000  Uiso   1.00
H935   H     0.82197   0.09674   0.94189   0.00000  Uiso   1.00
C936   C     0.99326   0.17946   0.74056   0.00000  Uiso   1.00
C937   C     0.67453   0.15410   0.75959   0.00000  Uiso   1.00
C938   C     0.85114   0.32304   0.74049   0.00000  Uiso   1.00
C939   C     0.81849   0.01152   0.75961   0.00000  Uiso   1.00
H940   H     0.78712   0.32920   0.77371   0.00000  Uiso   1.00
N941   N     0.86718   0.03037   0.53765   0.00000  Uiso   1.00
O942   O     0.90297   0.01578   0.53442   0.00000  Uiso   1.00
O943   O     0.83296   0.00432   0.53560   0.00000  Uiso   1.00
N944   N     0.68792   0.21331   0.72076   0.00000  Uiso   1.00
O945   O     0.67323   0.24815   0.72058   0.00000  Uiso   1.00
O946   O     0.72680   0.20824   0.69997   0.00000  Uiso   1.00
N947   N     0.98288   0.11609   0.77361   0.00000  Uiso   1.00
O948   O     0.96758   0.08779   0.74937   0.00000  Uiso   1.00
O949   O     0.98418   0.10575   0.80716   0.00000  Uiso   1.00
N950   N     0.89242   0.00948   0.71942   0.00000  Uiso   1.00
O951   O     0.92732   0.32717   0.71729   0.00000  Uiso   1.00
O952   O     0.89522   0.04110   0.69996   0.00000  Uiso   1.00
N953   N     0.88215   0.06538   0.61058   0.00000  Uiso   1.00
O954   O     0.91322   0.07984   0.62707   0.00000  Uiso   1.00
O955   O     0.86040   0.02897   0.61804   0.00000  Uiso   1.00
C956   C     0.86250   0.04739   0.96440   0.00000  Uiso   1.00
O957   O     0.90006   0.04272   0.95971   0.00000  Uiso   1.00
O958   O     0.83651   0.01868   0.94489   0.00000  Uiso   1.00
H959   H     0.85197   0.32792   0.92881   0.00000  Uiso   1.00
N960   N     0.73826   0.26437   0.98317   0.00000  Uiso   1.00
O961   O     0.74867   0.30316   0.97555   0.00000  Uiso   1.00
O962   O     0.70094   0.25320   0.50664   0.00000  Uiso   1.00
N963   N     0.75803   0.25132   0.90126   0.00000  Uiso   1.00
O964   O     0.78254   0.28212   0.88342   0.00000  Uiso   1.00
O965   O     0.71672   0.24752   0.90583   0.00000  Uiso   1.00
N966   N     0.86059   0.15613   0.90261   0.00000  Uiso   1.00
O967   O     0.89613   0.17376   0.91094   0.00000  Uiso   1.00
O968   O     0.86028   0.11991   0.88126   0.00000  Uiso   1.00
C969   C     0.77483   0.20261   0.58962   0.00000  Uiso   1.00
O970   O     0.76139   0.17316   0.60937   0.00000  Uiso   1.00
O971   O     0.77333   0.24382   0.60766   0.00000  Uiso   1.00
H972   H     0.76132   0.24542   0.63726   0.00000  Uiso   1.00
Zn973  Zn    0.19244   0.47423   0.78278   0.00000  Uiso   1.00
Zn974  Zn    0.13459   0.45711   0.72258   0.00000  Uiso   1.00
Zn975  Zn    0.21166   0.52997   0.71188   0.00000  Uiso   1.00
Zn976  Zn    0.12798   0.53868   0.78277   0.00000  Uiso   1.00
O977   O     0.16667   0.50000   0.75000   0.00000  Uiso   1.00
O978   O     0.06990   0.52293   0.77820   0.00000  Uiso   1.00
O979   O     0.25440   0.48610   0.76768   0.00000  Uiso   1.00
O980   O     0.13800   0.40236   0.73607   0.00000  Uiso   1.00
O981   O     0.20437   0.58860   0.71806   0.00000  Uiso   1.00
O982   O     0.15693   0.45726   0.66625   0.00000  Uiso   1.00
O983   O     0.12687   0.53979   0.83749   0.00000  Uiso   1.00
O984   O     0.21088   0.50826   0.65877   0.00000  Uiso   1.00
O985   O     0.17198   0.49468   0.83749   0.00000  Uiso   1.00
O986   O     0.17849   0.41434   0.77821   0.00000  Uiso   1.00
O987   O     0.14581   0.59469   0.76767   0.00000  Uiso   1.00
O988   O     0.07452   0.46584   0.73607   0.00000  Uiso   1.00
O989   O     0.26785   0.52512   0.71806   0.00000  Uiso   1.00
C990   C     0.05259   0.49239   0.75868   0.00000  Uiso   1.00
C991   C     0.28093   0.50737   0.74170   0.00000  Uiso   1.00
C992   C     0.15524   0.38935   0.75906   0.00000  Uiso   1.00
C993   C     0.17768   0.61112   0.74193   0.00000  Uiso   1.00
C994   C     0.18787   0.47818   0.64393   0.00000  Uiso   1.00
C995   C     0.14607   0.52151   0.85642   0.00000  Uiso   1.00
C996   C     0.13664   0.52979   0.90036   0.00000  Uiso   1.00
C997   C     0.19601   0.46574   0.60153   0.00000  Uiso   1.00
C998   C     0.09902   0.56658   0.96273   0.00000  Uiso   1.00
C999   C     0.10880   0.55966   0.92144   0.00000  Uiso   1.00
C1000  C     0.15465   0.50727   0.92180   0.00000  Uiso   1.00
C1001  C     0.14006   0.51037   0.96361   0.00000  Uiso   1.00
C1002  C     0.11548   0.54272   0.98375   0.00000  Uiso   1.00
C1003  C     0.15140   0.48333   0.98603   0.00000  Uiso   1.00
C1004  C     0.14955   0.49543   0.52627   0.00000  Uiso   1.00
C1005  C     0.12456   0.52828   0.54622   0.00000  Uiso   1.00
C1006  C     0.10822   0.55117   0.52470   0.00000  Uiso   1.00
C1007  C     0.16160   0.44313   0.96968   0.00000  Uiso   1.00
C1008  C     0.17852   0.41830   0.98871   0.00000  Uiso   1.00
C1009  C     0.18277   0.43239   0.52735   0.00000  Uiso   1.00
C1010  C     0.17120   0.47287   0.54476   0.00000  Uiso   1.00
C1011  C     0.19696   0.40739   0.54981   0.00000  Uiso   1.00
C1012  C     0.20328   0.42427   0.58687   0.00000  Uiso   1.00
C1013  C     0.18287   0.49028   0.57948   0.00000  Uiso   1.00
H1014  H     0.08924   0.57577   0.54055   0.00000  Uiso   1.00
H1015  H     0.17975   0.52261   0.59107   0.00000  Uiso   1.00
H1016  H     0.15530   0.43007   0.94189   0.00000  Uiso   1.00
C1017  C     0.32659   0.51280   0.74056   0.00000  Uiso   1.00
C1018  C     0.00787   0.48743   0.75959   0.00000  Uiso   1.00
C1019  C     0.18447   0.65637   0.74049   0.00000  Uiso   1.00
C1020  C     0.15182   0.34485   0.75961   0.00000  Uiso   1.00
H1021  H     0.12045   0.66253   0.77371   0.00000  Uiso   1.00
N1022  N     0.20051   0.36371   0.53765   0.00000  Uiso   1.00
O1023  O     0.23630   0.34912   0.53442   0.00000  Uiso   1.00
O1024  O     0.16629   0.33765   0.53560   0.00000  Uiso   1.00
N1025  N     0.02125   0.54665   0.72076   0.00000  Uiso   1.00
O1026  O     0.00656   0.58148   0.72058   0.00000  Uiso   1.00
O1027  O     0.06013   0.54157   0.69997   0.00000  Uiso   1.00
N1028  N     0.31621   0.44942   0.77361   0.00000  Uiso   1.00
O1029  O     0.30091   0.42113   0.74937   0.00000  Uiso   1.00
O1030  O     0.31751   0.43909   0.80716   0.00000  Uiso   1.00
N1031  N     0.22575   0.34281   0.71942   0.00000  Uiso   1.00
O1032  O     0.26066   0.66051   0.71729   0.00000  Uiso   1.00
O1033  O     0.22855   0.37443   0.69996   0.00000  Uiso   1.00
N1034  N     0.21548   0.39871   0.61058   0.00000  Uiso   1.00
O1035  O     0.24655   0.41317   0.62707   0.00000  Uiso   1.00
O1036  O     0.19374   0.36230   0.61804   0.00000  Uiso   1.00
C1037  C     0.19583   0.38072   0.96440   0.00000  Uiso   1.00
O1038  O     0.23339   0.37605   0.95971   0.00000  Uiso   1.00
O1039  O     0.16984   0.35201   0.94489   0.00000  Uiso   1.00
H1040  H     0.18531   0.66126   0.92881   0.00000  Uiso   1.00
N1041  N     0.07159   0.59770   0.98317   0.00000  Uiso   1.00
O1042  O     0.08200   0.63649   0.97555   0.00000  Uiso   1.00
O1043  O     0.03427   0.58653   0.50664   0.00000  Uiso   1.00
N1044  N     0.09136   0.58465   0.90126   0.00000  Uiso   1.00
O1045  O     0.11588   0.61545   0.88342   0.00000  Uiso   1.00
O1046  O     0.05005   0.58085   0.90583   0.00000  Uiso   1.00
N1047  N     0.19392   0.48946   0.90261   0.00000  Uiso   1.00
O1048  O     0.22947   0.50709   0.91094   0.00000  Uiso   1.00
O1049  O     0.19361   0.45325   0.88126   0.00000  Uiso   1.00
C1050  C     0.10816   0.53594   0.58962   0.00000  Uiso   1.00
O1051  O     0.09472   0.50650   0.60937   0.00000  Uiso   1.00
O1052  O     0.10666   0.57716   0.60766   0.00000  Uiso   1.00
H1053  H     0.09465   0.57876   0.63726   0.00000  Uiso   1.00
Zn1054 Zn    0.52577   0.47423   0.78278   0.00000  Uiso   1.00
Zn1055 Zn    0.46792   0.45711   0.72258   0.00000  Uiso   1.00
Zn1056 Zn    0.54500   0.52997   0.71188   0.00000  Uiso   1.00
Zn1057 Zn    0.46131   0.53868   0.78277   0.00000  Uiso   1.00
O1058  O     0.50000   0.50000   0.75000   0.00000  Uiso   1.00
O1059  O     0.40323   0.52293   0.77820   0.00000  Uiso   1.00
O1060  O     0.58773   0.48610   0.76768   0.00000  Uiso   1.00
O1061  O     0.47133   0.40236   0.73607   0.00000  Uiso   1.00
O1062  O     0.53771   0.58860   0.71806   0.00000  Uiso   1.00
O1063  O     0.49027   0.45726   0.66625   0.00000  Uiso   1.00
O1064  O     0.46020   0.53979   0.83749   0.00000  Uiso   1.00
O1065  O     0.54421   0.50826   0.65877   0.00000  Uiso   1.00
O1066  O     0.50532   0.49468   0.83749   0.00000  Uiso   1.00
O1067  O     0.51182   0.41434   0.77821   0.00000  Uiso   1.00
O1068  O     0.47914   0.59469   0.76767   0.00000  Uiso   1.00
O1069  O     0.40785   0.46584   0.73607   0.00000  Uiso   1.00
O1070  O     0.60119   0.52512   0.71806   0.00000  Uiso   1.00
C1071  C     0.38593   0.49239   0.75868   0.00000  Uiso   1.00
C1072  C     0.61426   0.50737   0.74170   0.00000  Uiso   1.00
C1073  C     0.48857   0.38935   0.75906   0.00000  Uiso   1.00
C1074  C     0.51101   0.61112   0.74193   0.00000  Uiso   1.00
C1075  C     0.52121   0.47818   0.64393   0.00000  Uiso   1.00
C1076  C     0.47941   0.52151   0.85642   0.00000  Uiso   1.00
C1077  C     0.46998   0.52979   0.90036   0.00000  Uiso   1.00
C1078  C     0.52935   0.46574   0.60153   0.00000  Uiso   1.00
C1079  C     0.43236   0.56658   0.96273   0.00000  Uiso   1.00
C1080  C     0.44213   0.55966   0.92144   0.00000  Uiso   1.00
C1081  C     0.48798   0.50727   0.92180   0.00000  Uiso   1.00
C1082  C     0.47339   0.51037   0.96361   0.00000  Uiso   1.00
C1083  C     0.44882   0.54272   0.98375   0.00000  Uiso   1.00
C1084  C     0.48473   0.48333   0.98603   0.00000  Uiso   1.00
C1085  C     0.48289   0.49543   0.52627   0.00000  Uiso   1.00
C1086  C     0.45789   0.52828   0.54622   0.00000  Uiso   1.00
C1087  C     0.44155   0.55117   0.52470   0.00000  Uiso   1.00
C1088  C     0.49493   0.44313   0.96968   0.00000  Uiso   1.00
C1089  C     0.51186   0.41830   0.98871   0.00000  Uiso   1.00
C1090  C     0.51610   0.43239   0.52735   0.00000  Uiso   1.00
C1091  C     0.50454   0.47287   0.54476   0.00000  Uiso   1.00
C1092  C     0.53029   0.40739   0.54981   0.00000  Uiso   1.00
C1093  C     0.53662   0.42427   0.58687   0.00000  Uiso   1.00
C1094  C     0.51620   0.49028   0.57948   0.00000  Uiso   1.00
H1095  H     0.42257   0.57577   0.54055   0.00000  Uiso   1.00
H1096  H     0.51309   0.52261   0.59107   0.00000  Uiso   1.00
H1097  H     0.48864   0.43007   0.94189   0.00000  Uiso   1.00
C1098  C     0.65992   0.51280   0.74056   0.00000  Uiso   1.00
C1099  C     0.34120   0.48743   0.75959   0.00000  Uiso   1.00
C1100  C     0.51780   0.65637   0.74049   0.00000  Uiso   1.00
C1101  C     0.48516   0.34485   0.75961   0.00000  Uiso   1.00
H1102  H     0.45378   0.66253   0.77371   0.00000  Uiso   1.00
N1103  N     0.53384   0.36371   0.53765   0.00000  Uiso   1.00
O1104  O     0.56963   0.34912   0.53442   0.00000  Uiso   1.00
O1105  O     0.49962   0.33765   0.53560   0.00000  Uiso   1.00
N1106  N     0.35458   0.54665   0.72076   0.00000  Uiso   1.00
O1107  O     0.33990   0.58148   0.72058   0.00000  Uiso   1.00
O1108  O     0.39347   0.54157   0.69997   0.00000  Uiso   1.00
N1109  N     0.64954   0.44942   0.77361   0.00000  Uiso   1.00
O1110  O     0.63425   0.42113   0.74937   0.00000  Uiso   1.00
O1111  O     0.65085   0.43909   0.80716   0.00000  Uiso   1.00
N1112  N     0.55908   0.34281   0.71942   0.00000  Uiso   1.00
O1113  O     0.59399   0.66051   0.71729   0.00000  Uiso   1.00
O1114  O     0.56188   0.37443   0.69996   0.00000  Uiso   1.00
N1115  N     0.54881   0.39871   0.61058   0.00000  Uiso   1.00
O1116  O     0.57989   0.41317   0.62707   0.00000  Uiso   1.00
O1117  O     0.52707   0.36230   0.61804   0.00000  Uiso   1.00
C1118  C     0.52917   0.38072   0.96440   0.00000  Uiso   1.00
O1119  O     0.56673   0.37605   0.95971   0.00000  Uiso   1.00
O1120  O     0.50317   0.35201   0.94489   0.00000  Uiso   1.00
H1121  H     0.51864   0.66126   0.92881   0.00000  Uiso   1.00
N1122  N     0.40492   0.59770   0.98317   0.00000  Uiso   1.00
O1123  O     0.41534   0.63649   0.97555   0.00000  Uiso   1.00
O1124  O     0.36760   0.58653   0.50664   0.00000  Uiso   1.00
N1125  N     0.42470   0.58465   0.90126   0.00000  Uiso   1.00
O1126  O     0.44921   0.61545   0.88342   0.00000  Uiso   1.00
O1127  O     0.38339   0.58085   0.90583   0.00000  Uiso   1.00
N1128  N     0.52725   0.48946   0.90261   0.00000  Uiso   1.00
O1129  O     0.56280   0.50709   0.91094   0.00000  Uiso   1.00
O1130  O     0.52695   0.45325   0.88126   0.00000  Uiso   1.00
C1131  C     0.44149   0.53594   0.58962   0.00000  Uiso   1.00
O1132  O     0.42805   0.50650   0.60937   0.00000  Uiso   1.00
O1133  O     0.43999   0.57716   0.60766   0.00000  Uiso   1.00
H1134  H     0.42798   0.57876   0.63726   0.00000  Uiso   1.00
Zn1135 Zn    0.85910   0.47423   0.78278   0.00000  Uiso   1.00
Zn1136 Zn    0.80125   0.45711   0.72258   0.00000  Uiso   1.00
Zn1137 Zn    0.87833   0.52997   0.71188   0.00000  Uiso   1.00
Zn1138 Zn    0.79465   0.53868   0.78277   0.00000  Uiso   1.00
O1139  O     0.83333   0.50000   0.75000   0.00000  Uiso   1.00
O1140  O     0.73656   0.52293   0.77820   0.00000  Uiso   1.00
O1141  O     0.92106   0.48610   0.76768   0.00000  Uiso   1.00
O1142  O     0.80467   0.40236   0.73607   0.00000  Uiso   1.00
O1143  O     0.87104   0.58860   0.71806   0.00000  Uiso   1.00
O1144  O     0.82360   0.45726   0.66625   0.00000  Uiso   1.00
O1145  O     0.79354   0.53979   0.83749   0.00000  Uiso   1.00
O1146  O     0.87755   0.50826   0.65877   0.00000  Uiso   1.00
O1147  O     0.83865   0.49468   0.83749   0.00000  Uiso   1.00
O1148  O     0.84515   0.41434   0.77821   0.00000  Uiso   1.00
O1149  O     0.81247   0.59469   0.76767   0.00000  Uiso   1.00
O1150  O     0.74119   0.46584   0.73607   0.00000  Uiso   1.00
O1151  O     0.93452   0.52512   0.71806   0.00000  Uiso   1.00
C1152  C     0.71926   0.49239   0.75868   0.00000  Uiso   1.00
C1153  C     0.94759   0.50737   0.74170   0.00000  Uiso   1.00
C1154  C     0.82190   0.38935   0.75906   0.00000  Uiso   1.00
C1155  C     0.84434   0.61112   0.74193   0.00000  Uiso   1.00
C1156  C     0.85454   0.47818   0.64393   0.00000  Uiso   1.00
C1157  C     0.81274   0.52151   0.85642   0.00000  Uiso   1.00
C1158  C     0.80331   0.52979   0.90036   0.00000  Uiso   1.00
C1159  C     0.86268   0.46574   0.60153   0.00000  Uiso   1.00
C1160  C     0.76569   0.56658   0.96273   0.00000  Uiso   1.00
C1161  C     0.77547   0.55966   0.92144   0.00000  Uiso   1.00
C1162  C     0.82131   0.50727   0.92180   0.00000  Uiso   1.00
C1163  C     0.80672   0.51037   0.96361   0.00000  Uiso   1.00
C1164  C     0.78215   0.54272   0.98375   0.00000  Uiso   1.00
C1165  C     0.81806   0.48333   0.98603   0.00000  Uiso   1.00
C1166  C     0.81622   0.49543   0.52627   0.00000  Uiso   1.00
C1167  C     0.79122   0.52828   0.54622   0.00000  Uiso   1.00
C1168  C     0.77489   0.55117   0.52470   0.00000  Uiso   1.00
C1169  C     0.82827   0.44313   0.96968   0.00000  Uiso   1.00
C1170  C     0.84519   0.41830   0.98871   0.00000  Uiso   1.00
C1171  C     0.84944   0.43239   0.52735   0.00000  Uiso   1.00
C1172  C     0.83787   0.47287   0.54476   0.00000  Uiso   1.00
C1173  C     0.86362   0.40739   0.54981   0.00000  Uiso   1.00
C1174  C     0.86995   0.42427   0.58687   0.00000  Uiso   1.00
C1175  C     0.84953   0.49028   0.57948   0.00000  Uiso   1.00
H1176  H     0.75591   0.57577   0.54055   0.00000  Uiso   1.00
H1177  H     0.84642   0.52261   0.59107   0.00000  Uiso   1.00
H1178  H     0.82197   0.43007   0.94189   0.00000  Uiso   1.00
C1179  C     0.99326   0.51280   0.74056   0.00000  Uiso   1.00
C1180  C     0.67453   0.48743   0.75959   0.00000  Uiso   1.00
C1181  C     0.85114   0.65637   0.74049   0.00000  Uiso   1.00
C1182  C     0.81849   0.34485   0.75961   0.00000  Uiso   1.00
H1183  H     0.78712   0.66253   0.77371   0.00000  Uiso   1.00
N1184  N     0.86718   0.36371   0.53765   0.00000  Uiso   1.00
O1185  O     0.90297   0.34912   0.53442   0.00000  Uiso   1.00
O1186  O     0.83296   0.33765   0.53560   0.00000  Uiso   1.00
N1187  N     0.68792   0.54665   0.72076   0.00000  Uiso   1.00
O1188  O     0.67323   0.58148   0.72058   0.00000  Uiso   1.00
O1189  O     0.72680   0.54157   0.69997   0.00000  Uiso   1.00
N1190  N     0.98288   0.44942   0.77361   0.00000  Uiso   1.00
O1191  O     0.96758   0.42113   0.74937   0.00000  Uiso   1.00
O1192  O     0.98418   0.43909   0.80716   0.00000  Uiso   1.00
N1193  N     0.89242   0.34281   0.71942   0.00000  Uiso   1.00
O1194  O     0.92732   0.66051   0.71729   0.00000  Uiso   1.00
O1195  O     0.89522   0.37443   0.69996   0.00000  Uiso   1.00
N1196  N     0.88215   0.39871   0.61058   0.00000  Uiso   1.00
O1197  O     0.91322   0.41317   0.62707   0.00000  Uiso   1.00
O1198  O     0.86040   0.36230   0.61804   0.00000  Uiso   1.00
C1199  C     0.86250   0.38072   0.96440   0.00000  Uiso   1.00
O1200  O     0.90006   0.37605   0.95971   0.00000  Uiso   1.00
O1201  O     0.83651   0.35201   0.94489   0.00000  Uiso   1.00
H1202  H     0.85197   0.66126   0.92881   0.00000  Uiso   1.00
N1203  N     0.73826   0.59770   0.98317   0.00000  Uiso   1.00
O1204  O     0.74867   0.63649   0.97555   0.00000  Uiso   1.00
O1205  O     0.70094   0.58653   0.50664   0.00000  Uiso   1.00
N1206  N     0.75803   0.58465   0.90126   0.00000  Uiso   1.00
O1207  O     0.78254   0.61545   0.88342   0.00000  Uiso   1.00
O1208  O     0.71672   0.58085   0.90583   0.00000  Uiso   1.00
N1209  N     0.86059   0.48946   0.90261   0.00000  Uiso   1.00
O1210  O     0.89613   0.50709   0.91094   0.00000  Uiso   1.00
O1211  O     0.86028   0.45325   0.88126   0.00000  Uiso   1.00
C1212  C     0.77483   0.53594   0.58962   0.00000  Uiso   1.00
O1213  O     0.76139   0.50650   0.60937   0.00000  Uiso   1.00
O1214  O     0.77333   0.57716   0.60766   0.00000  Uiso   1.00
H1215  H     0.76132   0.57876   0.63726   0.00000  Uiso   1.00
Zn1216 Zn    0.19244   0.80756   0.78278   0.00000  Uiso   1.00
Zn1217 Zn    0.13459   0.79044   0.72258   0.00000  Uiso   1.00
Zn1218 Zn    0.21166   0.86331   0.71188   0.00000  Uiso   1.00
Zn1219 Zn    0.12798   0.87202   0.78277   0.00000  Uiso   1.00
O1220  O     0.16667   0.83333   0.75000   0.00000  Uiso   1.00
O1221  O     0.06990   0.85627   0.77820   0.00000  Uiso   1.00
O1222  O     0.25440   0.81944   0.76768   0.00000  Uiso   1.00
O1223  O     0.13800   0.73570   0.73607   0.00000  Uiso   1.00
O1224  O     0.20437   0.92193   0.71806   0.00000  Uiso   1.00
O1225  O     0.15693   0.79060   0.66625   0.00000  Uiso   1.00
O1226  O     0.12687   0.87313   0.83749   0.00000  Uiso   1.00
O1227  O     0.21088   0.84159   0.65877   0.00000  Uiso   1.00
O1228  O     0.17198   0.82802   0.83749   0.00000  Uiso   1.00
O1229  O     0.17849   0.74768   0.77821   0.00000  Uiso   1.00
O1230  O     0.14581   0.92803   0.76767   0.00000  Uiso   1.00
O1231  O     0.07452   0.79917   0.73607   0.00000  Uiso   1.00
O1232  O     0.26785   0.85845   0.71806   0.00000  Uiso   1.00
C1233  C     0.05259   0.82573   0.75868   0.00000  Uiso   1.00
C1234  C     0.28093   0.84070   0.74170   0.00000  Uiso   1.00
C1235  C     0.15524   0.72268   0.75906   0.00000  Uiso   1.00
C1236  C     0.17768   0.94446   0.74193   0.00000  Uiso   1.00
C1237  C     0.18787   0.81152   0.64393   0.00000  Uiso   1.00
C1238  C     0.14607   0.85484   0.85642   0.00000  Uiso   1.00
C1239  C     0.13664   0.86312   0.90036   0.00000  Uiso   1.00
C1240  C     0.19601   0.79908   0.60153   0.00000  Uiso   1.00
C1241  C     0.09902   0.89991   0.96273   0.00000  Uiso   1.00
C1242  C     0.10880   0.89300   0.92144   0.00000  Uiso   1.00
C1243  C     0.15465   0.84061   0.92180   0.00000  Uiso   1.00
C1244  C     0.14006   0.84370   0.96361   0.00000  Uiso   1.00
C1245  C     0.11548   0.87605   0.98375   0.00000  Uiso   1.00
C1246  C     0.15140   0.81667   0.98603   0.00000  Uiso   1.00
C1247  C     0.14955   0.82876   0.52627   0.00000  Uiso   1.00
C1248  C     0.12456   0.86161   0.54622   0.00000  Uiso   1.00
C1249  C     0.10822   0.88450   0.52470   0.00000  Uiso   1.00
C1250  C     0.16160   0.77647   0.96968   0.00000  Uiso   1.00
C1251  C     0.17852   0.75164   0.98871   0.00000  Uiso   1.00
C1252  C     0.18277   0.76572   0.52735   0.00000  Uiso   1.00
C1253  C     0.17120   0.80620   0.54476   0.00000  Uiso   1.00
C1254  C     0.19696   0.74072   0.54981   0.00000  Uiso   1.00
C1255  C     0.20328   0.75760   0.58687   0.00000  Uiso   1.00
C1256  C     0.18287   0.82361   0.57948   0.00000  Uiso   1.00
H1257  H     0.08924   0.90911   0.54055   0.00000  Uiso   1.00
H1258  H     0.17975   0.85594   0.59107   0.00000  Uiso   1.00
H1259  H     0.15530   0.76341   0.94189   0.00000  Uiso   1.00
C1260  C     0.32659   0.84613   0.74056   0.00000  Uiso   1.00
C1261  C     0.00787   0.82077   0.75959   0.00000  Uiso   1.00
C1262  C     0.18447   0.98971   0.74049   0.00000  Uiso   1.00
C1263  C     0.15182   0.67819   0.75961   0.00000  Uiso   1.00
H1264  H     0.12045   0.99587   0.77371   0.00000  Uiso   1.00
N1265  N     0.20051   0.69704   0.53765   0.00000  Uiso   1.00
O1266  O     0.23630   0.68245   0.53442   0.00000  Uiso   1.00
O1267  O     0.16629   0.67098   0.53560   0.00000  Uiso   1.00
N1268  N     0.02125   0.87998   0.72076   0.00000  Uiso   1.00
O1269  O     0.00656   0.91482   0.72058   0.00000  Uiso   1.00
O1270  O     0.06013   0.87491   0.69997   0.00000  Uiso   1.00
N1271  N     0.31621   0.78276   0.77361   0.00000  Uiso   1.00
O1272  O     0.30091   0.75446   0.74937   0.00000  Uiso   1.00
O1273  O     0.31751   0.77242   0.80716   0.00000  Uiso   1.00
N1274  N     0.22575   0.67614   0.71942   0.00000  Uiso   1.00
O1275  O     0.26066   0.99384   0.71729   0.00000  Uiso   1.00
O1276  O     0.22855   0.70776   0.69996   0.00000  Uiso   1.00
N1277  N     0.21548   0.73205   0.61058   0.00000  Uiso   1.00
O1278  O     0.24655   0.74651   0.62707   0.00000  Uiso   1.00
O1279  O     0.19374   0.69563   0.61804   0.00000  Uiso   1.00
C1280  C     0.19583   0.71406   0.96440   0.00000  Uiso   1.00
O1281  O     0.23339   0.70938   0.95971   0.00000  Uiso   1.00
O1282  O     0.16984   0.68534   0.94489   0.00000  Uiso   1.00
H1283  H     0.18531   0.99459   0.92881   0.00000  Uiso   1.00
N1284  N     0.07159   0.93104   0.98317   0.00000  Uiso   1.00
O1285  O     0.08200   0.96982   0.97555   0.00000  Uiso   1.00
O1286  O     0.03427   0.91987   0.50664   0.00000  Uiso   1.00
N1287  N     0.09136   0.91799   0.90126   0.00000  Uiso   1.00
O1288  O     0.11588   0.94878   0.88342   0.00000  Uiso   1.00
O1289  O     0.05005   0.91418   0.90583   0.00000  Uiso   1.00
N1290  N     0.19392   0.82280   0.90261   0.00000  Uiso   1.00
O1291  O     0.22947   0.84042   0.91094   0.00000  Uiso   1.00
O1292  O     0.19361   0.78658   0.88126   0.00000  Uiso   1.00
C1293  C     0.10816   0.86928   0.58962   0.00000  Uiso   1.00
O1294  O     0.09472   0.83983   0.60937   0.00000  Uiso   1.00
O1295  O     0.10666   0.91049   0.60766   0.00000  Uiso   1.00
H1296  H     0.09465   0.91209   0.63726   0.00000  Uiso   1.00
Zn1297 Zn    0.52577   0.80756   0.78278   0.00000  Uiso   1.00
Zn1298 Zn    0.46792   0.79044   0.72258   0.00000  Uiso   1.00
Zn1299 Zn    0.54500   0.86331   0.71188   0.00000  Uiso   1.00
Zn1300 Zn    0.46131   0.87202   0.78277   0.00000  Uiso   1.00
O1301  O     0.50000   0.83333   0.75000   0.00000  Uiso   1.00
O1302  O     0.40323   0.85627   0.77820   0.00000  Uiso   1.00
O1303  O     0.58773   0.81944   0.76768   0.00000  Uiso   1.00
O1304  O     0.47133   0.73570   0.73607   0.00000  Uiso   1.00
O1305  O     0.53771   0.92193   0.71806   0.00000  Uiso   1.00
O1306  O     0.49027   0.79060   0.66625   0.00000  Uiso   1.00
O1307  O     0.46020   0.87313   0.83749   0.00000  Uiso   1.00
O1308  O     0.54421   0.84159   0.65877   0.00000  Uiso   1.00
O1309  O     0.50532   0.82802   0.83749   0.00000  Uiso   1.00
O1310  O     0.51182   0.74768   0.77821   0.00000  Uiso   1.00
O1311  O     0.47914   0.92803   0.76767   0.00000  Uiso   1.00
O1312  O     0.40785   0.79917   0.73607   0.00000  Uiso   1.00
O1313  O     0.60119   0.85845   0.71806   0.00000  Uiso   1.00
C1314  C     0.38593   0.82573   0.75868   0.00000  Uiso   1.00
C1315  C     0.61426   0.84070   0.74170   0.00000  Uiso   1.00
C1316  C     0.48857   0.72268   0.75906   0.00000  Uiso   1.00
C1317  C     0.51101   0.94446   0.74193   0.00000  Uiso   1.00
C1318  C     0.52121   0.81152   0.64393   0.00000  Uiso   1.00
C1319  C     0.47941   0.85484   0.85642   0.00000  Uiso   1.00
C1320  C     0.46998   0.86312   0.90036   0.00000  Uiso   1.00
C1321  C     0.52935   0.79908   0.60153   0.00000  Uiso   1.00
C1322  C     0.43236   0.89991   0.96273   0.00000  Uiso   1.00
C1323  C     0.44213   0.89300   0.92144   0.00000  Uiso   1.00
C1324  C     0.48798   0.84061   0.92180   0.00000  Uiso   1.00
C1325  C     0.47339   0.84370   0.96361   0.00000  Uiso   1.00
C1326  C     0.44882   0.87605   0.98375   0.00000  Uiso   1.00
C1327  C     0.48473   0.81667   0.98603   0.00000  Uiso   1.00
C1328  C     0.48289   0.82876   0.52627   0.00000  Uiso   1.00
C1329  C     0.45789   0.86161   0.54622   0.00000  Uiso   1.00
C1330  C     0.44155   0.88450   0.52470   0.00000  Uiso   1.00
C1331  C     0.49493   0.77647   0.96968   0.00000  Uiso   1.00
C1332  C     0.51186   0.75164   0.98871   0.00000  Uiso   1.00
C1333  C     0.51610   0.76572   0.52735   0.00000  Uiso   1.00
C1334  C     0.50454   0.80620   0.54476   0.00000  Uiso   1.00
C1335  C     0.53029   0.74072   0.54981   0.00000  Uiso   1.00
C1336  C     0.53662   0.75760   0.58687   0.00000  Uiso   1.00
C1337  C     0.51620   0.82361   0.57948   0.00000  Uiso   1.00
H1338  H     0.42257   0.90911   0.54055   0.00000  Uiso   1.00
H1339  H     0.51309   0.85594   0.59107   0.00000  Uiso   1.00
H1340  H     0.48864   0.76341   0.94189   0.00000  Uiso   1.00
C1341  C     0.65992   0.84613   0.74056   0.00000  Uiso   1.00
C1342  C     0.34120   0.82077   0.75959   0.00000  Uiso   1.00
C1343  C     0.51780   0.98971   0.74049   0.00000  Uiso   1.00
C1344  C     0.48516   0.67819   0.75961   0.00000  Uiso   1.00
H1345  H     0.45378   0.99587   0.77371   0.00000  Uiso   1.00
N1346  N     0.53384   0.69704   0.53765   0.00000  Uiso   1.00
O1347  O     0.56963   0.68245   0.53442   0.00000  Uiso   1.00
O1348  O     0.49962   0.67098   0.53560   0.00000  Uiso   1.00
N1349  N     0.35458   0.87998   0.72076   0.00000  Uiso   1.00
O1350  O     0.33990   0.91482   0.72058   0.00000  Uiso   1.00
O1351  O     0.39347   0.87491   0.69997   0.00000  Uiso   1.00
N1352  N     0.64954   0.78276   0.77361   0.00000  Uiso   1.00
O1353  O     0.63425   0.75446   0.74937   0.00000  Uiso   1.00
O1354  O     0.65085   0.77242   0.80716   0.00000  Uiso   1.00
N1355  N     0.55908   0.67614   0.71942   0.00000  Uiso   1.00
O1356  O     0.59399   0.99384   0.71729   0.00000  Uiso   1.00
O1357  O     0.56188   0.70776   0.69996   0.00000  Uiso   1.00
N1358  N     0.54881   0.73205   0.61058   0.00000  Uiso   1.00
O1359  O     0.57989   0.74651   0.62707   0.00000  Uiso   1.00
O1360  O     0.52707   0.69563   0.61804   0.00000  Uiso   1.00
C1361  C     0.52917   0.71406   0.96440   0.00000  Uiso   1.00
O1362  O     0.56673   0.70938   0.95971   0.00000  Uiso   1.00
O1363  O     0.50317   0.68534   0.94489   0.00000  Uiso   1.00
H1364  H     0.51864   0.99459   0.92881   0.00000  Uiso   1.00
N1365  N     0.40492   0.93104   0.98317   0.00000  Uiso   1.00
O1366  O     0.41534   0.96982   0.97555   0.00000  Uiso   1.00
O1367  O     0.36760   0.91987   0.50664   0.00000  Uiso   1.00
N1368  N     0.42470   0.91799   0.90126   0.00000  Uiso   1.00
O1369  O     0.44921   0.94878   0.88342   0.00000  Uiso   1.00
O1370  O     0.38339   0.91418   0.90583   0.00000  Uiso   1.00
N1371  N     0.52725   0.82280   0.90261   0.00000  Uiso   1.00
O1372  O     0.56280   0.84042   0.91094   0.00000  Uiso   1.00
O1373  O     0.52695   0.78658   0.88126   0.00000  Uiso   1.00
C1374  C     0.44149   0.86928   0.58962   0.00000  Uiso   1.00
O1375  O     0.42805   0.83983   0.60937   0.00000  Uiso   1.00
O1376  O     0.43999   0.91049   0.60766   0.00000  Uiso   1.00
H1377  H     0.42798   0.91209   0.63726   0.00000  Uiso   1.00
Zn1378 Zn    0.85910   0.80756   0.78278   0.00000  Uiso   1.00
Zn1379 Zn    0.80125   0.79044   0.72258   0.00000  Uiso   1.00
Zn1380 Zn    0.87833   0.86331   0.71188   0.00000  Uiso   1.00
Zn1381 Zn    0.79465   0.87202   0.78277   0.00000  Uiso   1.00
O1382  O     0.83333   0.83333   0.75000   0.00000  Uiso   1.00
O1383  O     0.73656   0.85627   0.77820   0.00000  Uiso   1.00
O1384  O     0.92106   0.81944   0.76768   0.00000  Uiso   1.00
O1385  O     0.80467   0.73570   0.73607   0.00000  Uiso   1.00
O1386  O     0.87104   0.92193   0.71806   0.00000  Uiso   1.00
O1387  O     0.82360   0.79060   0.66625   0.00000  Uiso   1.00
O1388  O     0.79354   0.87313   0.83749   0.00000  Uiso   1.00
O1389  O     0.87755   0.84159   0.65877   0.00000  Uiso   1.00
O1390  O     0.83865   0.82802   0.83749   0.00000  Uiso   1.00
O1391  O     0.84515   0.74768   0.77821   0.00000  Uiso   1.00
O1392  O     0.81247   0.92803   0.76767   0.00000  Uiso   1.00
O1393  O     0.74119   0.79917   0.73607   0.00000  Uiso   1.00
O1394  O     0.93452   0.85845   0.71806   0.00000  Uiso   1.00
C1395  C     0.71926   0.82573   0.75868   0.00000  Uiso   1.00
C1396  C     0.94759   0.84070   0.74170   0.00000  Uiso   1.00
C1397  C     0.82190   0.72268   0.75906   0.00000  Uiso   1.00
C1398  C     0.84434   0.94446   0.74193   0.00000  Uiso   1.00
C1399  C     0.85454   0.81152   0.64393   0.00000  Uiso   1.00
C1400  C     0.81274   0.85484   0.85642   0.00000  Uiso   1.00
C1401  C     0.80331   0.86312   0.90036   0.00000  Uiso   1.00
C1402  C     0.86268   0.79908   0.60153   0.00000  Uiso   1.00
C1403  C     0.76569   0.89991   0.96273   0.00000  Uiso   1.00
C1404  C     0.77547   0.89300   0.92144   0.00000  Uiso   1.00
C1405  C     0.82131   0.84061   0.92180   0.00000  Uiso   1.00
C1406  C     0.80672   0.84370   0.96361   0.00000  Uiso   1.00
C1407  C     0.78215   0.87605   0.98375   0.00000  Uiso   1.00
C1408  C     0.81806   0.81667   0.98603   0.00000  Uiso   1.00
C1409  C     0.81622   0.82876   0.52627   0.00000  Uiso   1.00
C1410  C     0.79122   0.86161   0.54622   0.00000  Uiso   1.00
C1411  C     0.77489   0.88450   0.52470   0.00000  Uiso   1.00
C1412  C     0.82827   0.77647   0.96968   0.00000  Uiso   1.00
C1413  C     0.84519   0.75164   0.98871   0.00000  Uiso   1.00
C1414  C     0.84944   0.76572   0.52735   0.00000  Uiso   1.00
C1415  C     0.83787   0.80620   0.54476   0.00000  Uiso   1.00
C1416  C     0.86362   0.74072   0.54981   0.00000  Uiso   1.00
C1417  C     0.86995   0.75760   0.58687   0.00000  Uiso   1.00
C1418  C     0.84953   0.82361   0.57948   0.00000  Uiso   1.00
H1419  H     0.75591   0.90911   0.54055   0.00000  Uiso   1.00
H1420  H     0.84642   0.85594   0.59107   0.00000  Uiso   1.00
H1421  H     0.82197   0.76341   0.94189   0.00000  Uiso   1.00
C1422  C     0.99326   0.84613   0.74056   0.00000  Uiso   1.00
C1423  C     0.67453   0.82077   0.75959   0.00000  Uiso   1.00
C1424  C     0.85114   0.98971   0.74049   0.00000  Uiso   1.00
C1425  C     0.81849   0.67819   0.75961   0.00000  Uiso   1.00
H1426  H     0.78712   0.99587   0.77371   0.00000  Uiso   1.00
N1427  N     0.86718   0.69704   0.53765   0.00000  Uiso   1.00
O1428  O     0.90297   0.68245   0.53442   0.00000  Uiso   1.00
O1429  O     0.83296   0.67098   0.53560   0.00000  Uiso   1.00
N1430  N     0.68792   0.87998   0.72076   0.00000  Uiso   1.00
O1431  O     0.67323   0.91482   0.72058   0.00000  Uiso   1.00
O1432  O     0.72680   0.87491   0.69997   0.00000  Uiso   1.00
N1433  N     0.98288   0.78276   0.77361   0.00000  Uiso   1.00
O1434  O     0.96758   0.75446   0.74937   0.00000  Uiso   1.00
O1435  O     0.98418   0.77242   0.80716   0.00000  Uiso   1.00
N1436  N     0.89242   0.67614   0.71942   0.00000  Uiso   1.00
O1437  O     0.92732   0.99384   0.71729   0.00000  Uiso   1.00
O1438  O     0.89522   0.70776   0.69996   0.00000  Uiso   1.00
N1439  N     0.88215   0.73205   0.61058   0.00000  Uiso   1.00
O1440  O     0.91322   0.74651   0.62707   0.00000  Uiso   1.00
O1441  O     0.86040   0.69563   0.61804   0.00000  Uiso   1.00
C1442  C     0.86250   0.71406   0.96440   0.00000  Uiso   1.00
O1443  O     0.90006   0.70938   0.95971   0.00000  Uiso   1.00
O1444  O     0.83651   0.68534   0.94489   0.00000  Uiso   1.00
H1445  H     0.85197   0.99459   0.92881   0.00000  Uiso   1.00
N1446  N     0.73826   0.93104   0.98317   0.00000  Uiso   1.00
O1447  O     0.74867   0.96982   0.97555   0.00000  Uiso   1.00
O1448  O     0.70094   0.91987   0.50664   0.00000  Uiso   1.00
N1449  N     0.75803   0.91799   0.90126   0.00000  Uiso   1.00
O1450  O     0.78254   0.94878   0.88342   0.00000  Uiso   1.00
O1451  O     0.71672   0.91418   0.90583   0.00000  Uiso   1.00
N1452  N     0.86059   0.82280   0.90261   0.00000  Uiso   1.00
O1453  O     0.89613   0.84042   0.91094   0.00000  Uiso   1.00
O1454  O     0.86028   0.78658   0.88126   0.00000  Uiso   1.00
C1455  C     0.77483   0.86928   0.58962   0.00000  Uiso   1.00
O1456  O     0.76139   0.83983   0.60937   0.00000  Uiso   1.00
O1457  O     0.77333   0.91049   0.60766   0.00000  Uiso   1.00
H1458  H     0.76132   0.91209   0.63726   0.00000  Uiso   1.00
loop_
_geom_bond_atom_site_label_1
_geom_bond_atom_site_label_2
_geom_bond_distance
_geom_bond_site_symmetry_2
_ccdc_geom_bond_type
Zn1    O5      1.961   .     S
Zn1    O7      1.933   .     S
Zn1    O13     1.925   .     S
Zn1    O14     1.920   .     S
Zn2    O16     1.943   .     S
Zn2    O5      1.920   .     S
Zn2    O10     1.932   .     S
Zn2    O8      1.940   .     S
Zn3    O12     1.922   .     S
Zn3    O9      1.932   .     S
Zn3    O5      1.941   .     S
Zn3    O17     1.943   .     S
Zn4    O6      1.930   .     S
Zn4    O5      1.947   .     S
Zn4    O11     1.932   .     S
Zn4    O15     1.929   .     S
O6     C18     1.273   .     A
O7     C19     1.278   .     A
O8     C20     1.267   .     A
O9     C21     1.274   .     A
O10    C22     1.267   .     A
O11    C23     1.296   .     A
O12    C22     1.277   .     A
O13    C23     1.294   .     A
O14    C20     1.275   .     A
O15    C21     1.281   .     A
O16    C18     1.255   .     A
O17    C19     1.285   .     A
C18    C46     1.436   .     S
C19    C45     1.464   .     S
C20    C48     1.436   .     S
C21    C47     1.459   .     S
C22    C25     1.462   .     S
C23    C24     1.498   .     S
C24    C27     1.421   .     A
C24    C28     1.423   .     A
C25    C40     1.404   .     A
C25    C41     1.387   .     A
C26    C27     1.404   .     A
C26    C30     1.409   .     A
C26    N69     1.437   .     S
C27    N72     1.434   .     S
C28    C29     1.423   .     A
C28    N75     1.442   .     S
C29    C30     1.411   .     A
C29    C31     1.424   .     A
C30    C763    1.401   .     S
C31    C35     1.401   .     A
C31    C761    1.414   .     S
C32    C38     1.430   .     A
C32    C33     1.429   .     A
C32    C760    1.414   1_554 S
C33    C78     1.483   .     S
C33    C34     1.398   .     A
C34    H42     1.083   .     S
C34    C759    1.401   1_554 S
C35    C36     1.391   .     A
C35    H44     1.077   .     S
C36    C65     1.481   .     S
C36    C766    1.421   .     S
C37    C38     1.430   .     A
C37    C39     1.428   .     A
C37    C765    1.421   1_554 S
C38    C41     1.406   .     A
C39    C40     1.408   .     A
C39    N50     1.435   .     S
C40    N62     1.438   .     S
C41    H43     1.080   .     S
C45    C127    1.357   .     S
C45    N134    1.446   .     S
C46    C207    1.357   1_455 S
C46    N218    1.440   1_455 S
C47    C291    1.341   .     S
C47    N302    1.446   .     S
C48    C533    1.341   1_545 S
C48    H535    1.087   1_545 S
H49    C291    1.087   .     S
N50    O52     1.301   .     A
N50    O51     1.301   .     A
N53    O54     1.301   .     A
N53    O55     1.301   .     A
N53    C207    1.446   1_455 S
N56    O57     1.302   .     A
N56    O58     1.301   .     A
N56    C127    1.440   .     S
N59    O61     1.301   .     A
N59    C533    1.446   1_545 S
N59    O546    1.301   1_545 S
O60    N302    1.301   .     S
N62    O64     1.301   .     A
N62    O63     1.301   .     A
C65    O67     1.398   .     S
C65    O66     1.223   .     D
O67    H554    1.014   1_545 S
H68    O310    1.014   .     S
N69    O70     1.301   .     A
N69    O800    1.301   .     S
O71    N798    1.301   1_554 S
N72    O74     1.301   .     A
N72    O73     1.301   .     A
N75    O76     1.301   .     A
N75    O77     1.303   .     A
C78    O80     1.399   .     S
C78    O79     1.223   .     D
O80    H81     1.012   .     S
Zn82   O86     1.961   .     S
Zn82   O88     1.933   .     S
Zn82   O94     1.925   .     S
Zn82   O95     1.920   .     S
Zn83   O97     1.943   .     S
Zn83   O86     1.920   .     S
Zn83   O91     1.932   .     S
Zn83   O89     1.940   .     S
Zn84   O93     1.922   .     S
Zn84   O90     1.932   .     S
Zn84   O86     1.941   .     S
Zn84   O98     1.943   .     S
Zn85   O87     1.930   .     S
Zn85   O86     1.947   .     S
Zn85   O92     1.932   .     S
Zn85   O96     1.929   .     S
O87    C99     1.273   .     A
O88    C100    1.278   .     A
O89    C101    1.267   .     A
O90    C102    1.274   .     A
O91    C103    1.267   .     A
O92    C104    1.296   .     A
O93    C103    1.277   .     A
O94    C104    1.294   .     A
O95    C101    1.275   .     A
O96    C102    1.281   .     A
O97    C99     1.255   .     A
O98    C100    1.285   .     A
C99    C127    1.436   .     S
C100   C126    1.464   .     S
C101   C129    1.436   .     S
C102   C128    1.459   .     S
C103   C106    1.462   .     S
C104   C105    1.498   .     S
C105   C108    1.421   .     A
C105   C109    1.423   .     A
C106   C121    1.404   .     A
C106   C122    1.387   .     A
C107   C108    1.404   .     A
C107   C111    1.409   .     A
C107   N150    1.437   .     S
C108   N153    1.434   .     S
C109   C110    1.423   .     A
C109   N156    1.442   .     S
C110   C111    1.411   .     A
C110   C112    1.424   .     A
C111   C844    1.401   .     S
C112   C116    1.401   .     A
C112   C842    1.414   .     S
C113   C119    1.430   .     A
C113   C114    1.429   .     A
C113   C841    1.414   1_554 S
C114   C159    1.483   .     S
C114   C115    1.398   .     A
C115   H123    1.083   .     S
C115   C840    1.401   1_554 S
C116   C117    1.391   .     A
C116   H125    1.077   .     S
C117   C146    1.481   .     S
C117   C847    1.421   .     S
C118   C119    1.430   .     A
C118   C120    1.428   .     A
C118   C846    1.421   1_554 S
C119   C122    1.406   .     A
C120   C121    1.408   .     A
C120   N131    1.435   .     S
C121   N143    1.438   .     S
C122   H124    1.080   .     S
C126   C208    1.357   .     S
C126   N215    1.446   .     S
C128   C372    1.341   .     S
C128   N383    1.446   .     S
C129   C614    1.341   1_545 S
C129   H616    1.087   1_545 S
H130   C372    1.087   .     S
N131   O133    1.301   .     A
N131   O132    1.301   .     A
N134   O135    1.301   .     A
N134   O136    1.301   .     A
N137   O138    1.302   .     A
N137   O139    1.301   .     A
N137   C208    1.440   .     S
N140   O142    1.301   .     A
N140   C614    1.446   1_545 S
N140   O627    1.301   1_545 S
O141   N383    1.301   .     S
N143   O145    1.301   .     A
N143   O144    1.301   .     A
C146   O148    1.398   .     S
C146   O147    1.223   .     D
O148   H635    1.014   1_545 S
H149   O391    1.014   .     S
N150   O151    1.301   .     A
N150   O881    1.301   .     S
O152   N879    1.301   1_554 S
N153   O155    1.301   .     A
N153   O154    1.301   .     A
N156   O157    1.301   .     A
N156   O158    1.303   .     A
C159   O161    1.399   .     S
C159   O160    1.223   .     D
O161   H162    1.012   .     S
Zn163  O167    1.961   .     S
Zn163  O169    1.933   .     S
Zn163  O175    1.925   .     S
Zn163  O176    1.920   .     S
Zn164  O178    1.943   .     S
Zn164  O167    1.920   .     S
Zn164  O172    1.932   .     S
Zn164  O170    1.940   .     S
Zn165  O174    1.922   .     S
Zn165  O171    1.932   .     S
Zn165  O167    1.941   .     S
Zn165  O179    1.943   .     S
Zn166  O168    1.930   .     S
Zn166  O167    1.947   .     S
Zn166  O173    1.932   .     S
Zn166  O177    1.929   .     S
O168   C180    1.273   .     A
O169   C181    1.278   .     A
O170   C182    1.267   .     A
O171   C183    1.274   .     A
O172   C184    1.267   .     A
O173   C185    1.296   .     A
O174   C184    1.277   .     A
O175   C185    1.294   .     A
O176   C182    1.275   .     A
O177   C183    1.281   .     A
O178   C180    1.255   .     A
O179   C181    1.285   .     A
C180   C208    1.436   .     S
C181   C207    1.464   .     S
C182   C210    1.436   .     S
C183   C209    1.459   .     S
C184   C187    1.462   .     S
C185   C186    1.498   .     S
C186   C189    1.421   .     A
C186   C190    1.423   .     A
C187   C202    1.404   .     A
C187   C203    1.387   .     A
C188   C189    1.404   .     A
C188   C192    1.409   .     A
C188   N231    1.437   .     S
C189   N234    1.434   .     S
C190   C191    1.423   .     A
C190   N237    1.442   .     S
C191   C192    1.411   .     A
C191   C193    1.424   .     A
C192   C925    1.401   .     S
C193   C197    1.401   .     A
C193   C923    1.414   .     S
C194   C200    1.430   .     A
C194   C195    1.429   .     A
C194   C922    1.414   1_554 S
C195   C240    1.483   .     S
C195   C196    1.398   .     A
C196   H204    1.083   .     S
C196   C921    1.401   1_554 S
C197   C198    1.391   .     A
C197   H206    1.077   .     S
C198   C227    1.481   .     S
C198   C928    1.421   .     S
C199   C200    1.430   .     A
C199   C201    1.428   .     A
C199   C927    1.421   1_554 S
C200   C203    1.406   .     A
C201   C202    1.408   .     A
C201   N212    1.435   .     S
C202   N224    1.438   .     S
C203   H205    1.080   .     S
C207   C46     1.357   1_655 S
C207   N53     1.446   1_655 S
C209   C453    1.341   .     S
C209   N464    1.446   .     S
C210   C695    1.341   1_545 S
C210   H697    1.087   1_545 S
H211   C453    1.087   .     S
N212   O214    1.301   .     A
N212   O213    1.301   .     A
N215   O216    1.301   .     A
N215   O217    1.301   .     A
N218   O219    1.302   .     A
N218   O220    1.301   .     A
N218   C46     1.440   1_655 S
N221   O223    1.301   .     A
N221   C695    1.446   1_545 S
N221   O708    1.301   1_545 S
O222   N464    1.301   .     S
N224   O226    1.301   .     A
N224   O225    1.301   .     A
C227   O229    1.398   .     S
C227   O228    1.223   .     D
O229   H716    1.014   1_545 S
H230   O472    1.014   .     S
N231   O232    1.301   .     A
N231   O962    1.301   .     S
O233   N960    1.301   1_554 S
N234   O236    1.301   .     A
N234   O235    1.301   .     A
N237   O238    1.301   .     A
N237   O239    1.303   .     A
C240   O242    1.399   .     S
C240   O241    1.223   .     D
O242   H243    1.012   .     S
Zn244  O248    1.961   .     S
Zn244  O250    1.933   .     S
Zn244  O256    1.925   .     S
Zn244  O257    1.920   .     S
Zn245  O259    1.943   .     S
Zn245  O248    1.920   .     S
Zn245  O253    1.932   .     S
Zn245  O251    1.940   .     S
Zn246  O255    1.922   .     S
Zn246  O252    1.932   .     S
Zn246  O248    1.941   .     S
Zn246  O260    1.943   .     S
Zn247  O249    1.930   .     S
Zn247  O248    1.947   .     S
Zn247  O254    1.932   .     S
Zn247  O258    1.929   .     S
O249   C261    1.273   .     A
O250   C262    1.278   .     A
O251   C263    1.267   .     A
O252   C264    1.274   .     A
O253   C265    1.267   .     A
O254   C266    1.296   .     A
O255   C265    1.277   .     A
O256   C266    1.294   .     A
O257   C263    1.275   .     A
O258   C264    1.281   .     A
O259   C261    1.255   .     A
O260   C262    1.285   .     A
C261   C289    1.436   .     S
C262   C288    1.464   .     S
C263   C291    1.436   .     S
C264   C290    1.459   .     S
C265   C268    1.462   .     S
C266   C267    1.498   .     S
C267   C270    1.421   .     A
C267   C271    1.423   .     A
C268   C283    1.404   .     A
C268   C284    1.387   .     A
C269   C270    1.404   .     A
C269   C273    1.409   .     A
C269   N312    1.437   .     S
C270   N315    1.434   .     S
C271   C272    1.423   .     A
C271   N318    1.442   .     S
C272   C273    1.411   .     A
C272   C274    1.424   .     A
C273   C1006   1.401   .     S
C274   C278    1.401   .     A
C274   C1004   1.414   .     S
C275   C281    1.430   .     A
C275   C276    1.429   .     A
C275   C1003   1.414   1_554 S
C276   C321    1.483   .     S
C276   C277    1.398   .     A
C277   H285    1.083   .     S
C277   C1002   1.401   1_554 S
C278   C279    1.391   .     A
C278   H287    1.077   .     S
C279   C308    1.481   .     S
C279   C1009   1.421   .     S
C280   C281    1.430   .     A
C280   C282    1.428   .     A
C280   C1008   1.421   1_554 S
C281   C284    1.406   .     A
C282   C283    1.408   .     A
C282   N293    1.435   .     S
C283   N305    1.438   .     S
C284   H286    1.080   .     S
C288   C370    1.357   .     S
C288   N377    1.446   .     S
C289   C450    1.357   1_455 S
C289   N461    1.440   1_455 S
C290   C534    1.341   .     S
C290   N545    1.446   .     S
H292   C534    1.087   .     S
N293   O295    1.301   .     A
N293   O294    1.301   .     A
N296   O297    1.301   .     A
N296   O298    1.301   .     A
N296   C450    1.446   1_455 S
N299   O300    1.302   .     A
N299   O301    1.301   .     A
N299   C370    1.440   .     S
N302   O304    1.301   .     A
O303   N545    1.301   .     S
N305   O307    1.301   .     A
N305   O306    1.301   .     A
C308   O310    1.398   .     S
C308   O309    1.223   .     D
H311   O553    1.014   .     S
N312   O313    1.301   .     A
N312   O1043   1.301   .     S
O314   N1041   1.301   1_554 S
N315   O317    1.301   .     A
N315   O316    1.301   .     A
N318   O319    1.301   .     A
N318   O320    1.303   .     A
C321   O323    1.399   .     S
C321   O322    1.223   .     D
O323   H324    1.012   .     S
Zn325  O329    1.961   .     S
Zn325  O331    1.933   .     S
Zn325  O337    1.925   .     S
Zn325  O338    1.920   .     S
Zn326  O340    1.943   .     S
Zn326  O329    1.920   .     S
Zn326  O334    1.932   .     S
Zn326  O332    1.940   .     S
Zn327  O336    1.922   .     S
Zn327  O333    1.932   .     S
Zn327  O329    1.941   .     S
Zn327  O341    1.943   .     S
Zn328  O330    1.930   .     S
Zn328  O329    1.947   .     S
Zn328  O335    1.932   .     S
Zn328  O339    1.929   .     S
O330   C342    1.273   .     A
O331   C343    1.278   .     A
O332   C344    1.267   .     A
O333   C345    1.274   .     A
O334   C346    1.267   .     A
O335   C347    1.296   .     A
O336   C346    1.277   .     A
O337   C347    1.294   .     A
O338   C344    1.275   .     A
O339   C345    1.281   .     A
O340   C342    1.255   .     A
O341   C343    1.285   .     A
C342   C370    1.436   .     S
C343   C369    1.464   .     S
C344   C372    1.436   .     S
C345   C371    1.459   .     S
C346   C349    1.462   .     S
C347   C348    1.498   .     S
C348   C351    1.421   .     A
C348   C352    1.423   .     A
C349   C364    1.404   .     A
C349   C365    1.387   .     A
C350   C351    1.404   .     A
C350   C354    1.409   .     A
C350   N393    1.437   .     S
C351   N396    1.434   .     S
C352   C353    1.423   .     A
C352   N399    1.442   .     S
C353   C354    1.411   .     A
C353   C355    1.424   .     A
C354   C1087   1.401   .     S
C355   C359    1.401   .     A
C355   C1085   1.414   .     S
C356   C362    1.430   .     A
C356   C357    1.429   .     A
C356   C1084   1.414   1_554 S
C357   C402    1.483   .     S
C357   C358    1.398   .     A
C358   H366    1.083   .     S
C358   C1083   1.401   1_554 S
C359   C360    1.391   .     A
C359   H368    1.077   .     S
C360   C389    1.481   .     S
C360   C1090   1.421   .     S
C361   C362    1.430   .     A
C361   C363    1.428   .     A
C361   C1089   1.421   1_554 S
C362   C365    1.406   .     A
C363   C364    1.408   .     A
C363   N374    1.435   .     S
C364   N386    1.438   .     S
C365   H367    1.080   .     S
C369   C451    1.357   .     S
C369   N458    1.446   .     S
C371   C615    1.341   .     S
C371   N626    1.446   .     S
H373   C615    1.087   .     S
N374   O376    1.301   .     A
N374   O375    1.301   .     A
N377   O378    1.301   .     A
N377   O379    1.301   .     A
N380   O381    1.302   .     A
N380   O382    1.301   .     A
N380   C451    1.440   .     S
N383   O385    1.301   .     A
O384   N626    1.301   .     S
N386   O388    1.301   .     A
N386   O387    1.301   .     A
C389   O391    1.398   .     S
C389   O390    1.223   .     D
H392   O634    1.014   .     S
N393   O394    1.301   .     A
N393   O1124   1.301   .     S
O395   N1122   1.301   1_554 S
N396   O398    1.301   .     A
N396   O397    1.301   .     A
N399   O400    1.301   .     A
N399   O401    1.303   .     A
C402   O404    1.399   .     S
C402   O403    1.223   .     D
O404   H405    1.012   .     S
Zn406  O410    1.961   .     S
Zn406  O412    1.933   .     S
Zn406  O418    1.925   .     S
Zn406  O419    1.920   .     S
Zn407  O421    1.943   .     S
Zn407  O410    1.920   .     S
Zn407  O415    1.932   .     S
Zn407  O413    1.940   .     S
Zn408  O417    1.922   .     S
Zn408  O414    1.932   .     S
Zn408  O410    1.941   .     S
Zn408  O422    1.943   .     S
Zn409  O411    1.930   .     S
Zn409  O410    1.947   .     S
Zn409  O416    1.932   .     S
Zn409  O420    1.929   .     S
O411   C423    1.273   .     A
O412   C424    1.278   .     A
O413   C425    1.267   .     A
O414   C426    1.274   .     A
O415   C427    1.267   .     A
O416   C428    1.296   .     A
O417   C427    1.277   .     A
O418   C428    1.294   .     A
O419   C425    1.275   .     A
O420   C426    1.281   .     A
O421   C423    1.255   .     A
O422   C424    1.285   .     A
C423   C451    1.436   .     S
C424   C450    1.464   .     S
C425   C453    1.436   .     S
C426   C452    1.459   .     S
C427   C430    1.462   .     S
C428   C429    1.498   .     S
C429   C432    1.421   .     A
C429   C433    1.423   .     A
C430   C445    1.404   .     A
C430   C446    1.387   .     A
C431   C432    1.404   .     A
C431   C435    1.409   .     A
C431   N474    1.437   .     S
C432   N477    1.434   .     S
C433   C434    1.423   .     A
C433   N480    1.442   .     S
C434   C435    1.411   .     A
C434   C436    1.424   .     A
C435   C1168   1.401   .     S
C436   C440    1.401   .     A
C436   C1166   1.414   .     S
C437   C443    1.430   .     A
C437   C438    1.429   .     A
C437   C1165   1.414   1_554 S
C438   C483    1.483   .     S
C438   C439    1.398   .     A
C439   H447    1.083   .     S
C439   C1164   1.401   1_554 S
C440   C441    1.391   .     A
C440   H449    1.077   .     S
C441   C470    1.481   .     S
C441   C1171   1.421   .     S
C442   C443    1.430   .     A
C442   C444    1.428   .     A
C442   C1170   1.421   1_554 S
C443   C446    1.406   .     A
C444   C445    1.408   .     A
C444   N455    1.435   .     S
C445   N467    1.438   .     S
C446   H448    1.080   .     S
C450   C289    1.357   1_655 S
C450   N296    1.446   1_655 S
C452   C696    1.341   .     S
C452   N707    1.446   .     S
H454   C696    1.087   .     S
N455   O457    1.301   .     A
N455   O456    1.301   .     A
N458   O459    1.301   .     A
N458   O460    1.301   .     A
N461   O462    1.302   .     A
N461   O463    1.301   .     A
N461   C289    1.440   1_655 S
N464   O466    1.301   .     A
O465   N707    1.301   .     S
N467   O469    1.301   .     A
N467   O468    1.301   .     A
C470   O472    1.398   .     S
C470   O471    1.223   .     D
H473   O715    1.014   .     S
N474   O475    1.301   .     A
N474   O1205   1.301   .     S
O476   N1203   1.301   1_554 S
N477   O479    1.301   .     A
N477   O478    1.301   .     A
N480   O481    1.301   .     A
N480   O482    1.303   .     A
C483   O485    1.399   .     S
C483   O484    1.223   .     D
O485   H486    1.012   .     S
Zn487  O491    1.961   .     S
Zn487  O493    1.933   .     S
Zn487  O499    1.925   .     S
Zn487  O500    1.920   .     S
Zn488  O502    1.943   .     S
Zn488  O491    1.920   .     S
Zn488  O496    1.932   .     S
Zn488  O494    1.940   .     S
Zn489  O498    1.922   .     S
Zn489  O495    1.932   .     S
Zn489  O491    1.941   .     S
Zn489  O503    1.943   .     S
Zn490  O492    1.930   .     S
Zn490  O491    1.947   .     S
Zn490  O497    1.932   .     S
Zn490  O501    1.929   .     S
O492   C504    1.273   .     A
O493   C505    1.278   .     A
O494   C506    1.267   .     A
O495   C507    1.274   .     A
O496   C508    1.267   .     A
O497   C509    1.296   .     A
O498   C508    1.277   .     A
O499   C509    1.294   .     A
O500   C506    1.275   .     A
O501   C507    1.281   .     A
O502   C504    1.255   .     A
O503   C505    1.285   .     A
C504   C532    1.436   .     S
C505   C531    1.464   .     S
C506   C534    1.436   .     S
C507   C533    1.459   .     S
C508   C511    1.462   .     S
C509   C510    1.498   .     S
C510   C513    1.421   .     A
C510   C514    1.423   .     A
C511   C526    1.404   .     A
C511   C527    1.387   .     A
C512   C513    1.404   .     A
C512   C516    1.409   .     A
C512   N555    1.437   .     S
C513   N558    1.434   .     S
C514   C515    1.423   .     A
C514   N561    1.442   .     S
C515   C516    1.411   .     A
C515   C517    1.424   .     A
C516   C1249   1.401   .     S
C517   C521    1.401   .     A
C517   C1247   1.414   .     S
C518   C524    1.430   .     A
C518   C519    1.429   .     A
C518   C1246   1.414   1_554 S
C519   C564    1.483   .     S
C519   C520    1.398   .     A
C520   H528    1.083   .     S
C520   C1245   1.401   1_554 S
C521   C522    1.391   .     A
C521   H530    1.077   .     S
C522   C551    1.481   .     S
C522   C1252   1.421   .     S
C523   C524    1.430   .     A
C523   C525    1.428   .     A
C523   C1251   1.421   1_554 S
C524   C527    1.406   .     A
C525   C526    1.408   .     A
C525   N536    1.435   .     S
C526   N548    1.438   .     S
C527   H529    1.080   .     S
C531   C613    1.357   .     S
C531   N620    1.446   .     S
C532   C693    1.357   1_455 S
C532   N704    1.440   1_455 S
C533   C48     1.341   1_565 S
C533   N59     1.446   1_565 S
H535   C48     1.087   1_565 S
N536   O538    1.301   .     A
N536   O537    1.301   .     A
N539   O540    1.301   .     A
N539   O541    1.301   .     A
N539   C693    1.446   1_455 S
N542   O543    1.302   .     A
N542   O544    1.301   .     A
N542   C613    1.440   .     S
N545   O547    1.301   .     A
O546   N59     1.301   1_565 S
N548   O550    1.301   .     A
N548   O549    1.301   .     A
C551   O553    1.398   .     S
C551   O552    1.223   .     D
H554   O67     1.014   1_565 S
N555   O556    1.301   .     A
N555   O1286   1.301   .     S
O557   N1284   1.301   1_554 S
N558   O560    1.301   .     A
N558   O559    1.301   .     A
N561   O562    1.301   .     A
N561   O563    1.303   .     A
C564   O566    1.399   .     S
C564   O565    1.223   .     D
O566   H567    1.012   .     S
Zn568  O572    1.961   .     S
Zn568  O574    1.933   .     S
Zn568  O580    1.925   .     S
Zn568  O581    1.920   .     S
Zn569  O583    1.943   .     S
Zn569  O572    1.920   .     S
Zn569  O577    1.932   .     S
Zn569  O575    1.940   .     S
Zn570  O579    1.922   .     S
Zn570  O576    1.932   .     S
Zn570  O572    1.941   .     S
Zn570  O584    1.943   .     S
Zn571  O573    1.930   .     S
Zn571  O572    1.947   .     S
Zn571  O578    1.932   .     S
Zn571  O582    1.929   .     S
O573   C585    1.273   .     A
O574   C586    1.278   .     A
O575   C587    1.267   .     A
O576   C588    1.274   .     A
O577   C589    1.267   .     A
O578   C590    1.296   .     A
O579   C589    1.277   .     A
O580   C590    1.294   .     A
O581   C587    1.275   .     A
O582   C588    1.281   .     A
O583   C585    1.255   .     A
O584   C586    1.285   .     A
C585   C613    1.436   .     S
C586   C612    1.464   .     S
C587   C615    1.436   .     S
C588   C614    1.459   .     S
C589   C592    1.462   .     S
C590   C591    1.498   .     S
C591   C594    1.421   .     A
C591   C595    1.423   .     A
C592   C607    1.404   .     A
C592   C608    1.387   .     A
C593   C594    1.404   .     A
C593   C597    1.409   .     A
C593   N636    1.437   .     S
C594   N639    1.434   .     S
C595   C596    1.423   .     A
C595   N642    1.442   .     S
C596   C597    1.411   .     A
C596   C598    1.424   .     A
C597   C1330   1.401   .     S
C598   C602    1.401   .     A
C598   C1328   1.414   .     S
C599   C605    1.430   .     A
C599   C600    1.429   .     A
C599   C1327   1.414   1_554 S
C600   C645    1.483   .     S
C600   C601    1.398   .     A
C601   H609    1.083   .     S
C601   C1326   1.401   1_554 S
C602   C603    1.391   .     A
C602   H611    1.077   .     S
C603   C632    1.481   .     S
C603   C1333   1.421   .     S
C604   C605    1.430   .     A
C604   C606    1.428   .     A
C604   C1332   1.421   1_554 S
C605   C608    1.406   .     A
C606   C607    1.408   .     A
C606   N617    1.435   .     S
C607   N629    1.438   .     S
C608   H610    1.080   .     S
C612   C694    1.357   .     S
C612   N701    1.446   .     S
C614   C129    1.341   1_565 S
C614   N140    1.446   1_565 S
H616   C129    1.087   1_565 S
N617   O619    1.301   .     A
N617   O618    1.301   .     A
N620   O621    1.301   .     A
N620   O622    1.301   .     A
N623   O624    1.302   .     A
N623   O625    1.301   .     A
N623   C694    1.440   .     S
N626   O628    1.301   .     A
O627   N140    1.301   1_565 S
N629   O631    1.301   .     A
N629   O630    1.301   .     A
C632   O634    1.398   .     S
C632   O633    1.223   .     D
H635   O148    1.014   1_565 S
N636   O637    1.301   .     A
N636   O1367   1.301   .     S
O638   N1365   1.301   1_554 S
N639   O641    1.301   .     A
N639   O640    1.301   .     A
N642   O643    1.301   .     A
N642   O644    1.303   .     A
C645   O647    1.399   .     S
C645   O646    1.223   .     D
O647   H648    1.012   .     S
Zn649  O653    1.961   .     S
Zn649  O655    1.933   .     S
Zn649  O661    1.925   .     S
Zn649  O662    1.920   .     S
Zn650  O664    1.943   .     S
Zn650  O653    1.920   .     S
Zn650  O658    1.932   .     S
Zn650  O656    1.940   .     S
Zn651  O660    1.922   .     S
Zn651  O657    1.932   .     S
Zn651  O653    1.941   .     S
Zn651  O665    1.943   .     S
Zn652  O654    1.930   .     S
Zn652  O653    1.947   .     S
Zn652  O659    1.932   .     S
Zn652  O663    1.929   .     S
O654   C666    1.273   .     A
O655   C667    1.278   .     A
O656   C668    1.267   .     A
O657   C669    1.274   .     A
O658   C670    1.267   .     A
O659   C671    1.296   .     A
O660   C670    1.277   .     A
O661   C671    1.294   .     A
O662   C668    1.275   .     A
O663   C669    1.281   .     A
O664   C666    1.255   .     A
O665   C667    1.285   .     A
C666   C694    1.436   .     S
C667   C693    1.464   .     S
C668   C696    1.436   .     S
C669   C695    1.459   .     S
C670   C673    1.462   .     S
C671   C672    1.498   .     S
C672   C675    1.421   .     A
C672   C676    1.423   .     A
C673   C688    1.404   .     A
C673   C689    1.387   .     A
C674   C675    1.404   .     A
C674   C678    1.409   .     A
C674   N717    1.437   .     S
C675   N720    1.434   .     S
C676   C677    1.423   .     A
C676   N723    1.442   .     S
C677   C678    1.411   .     A
C677   C679    1.424   .     A
C678   C1411   1.401   .     S
C679   C683    1.401   .     A
C679   C1409   1.414   .     S
C680   C686    1.430   .     A
C680   C681    1.429   .     A
C680   C1408   1.414   1_554 S
C681   C726    1.483   .     S
C681   C682    1.398   .     A
C682   H690    1.083   .     S
C682   C1407   1.401   1_554 S
C683   C684    1.391   .     A
C683   H692    1.077   .     S
C684   C713    1.481   .     S
C684   C1414   1.421   .     S
C685   C686    1.430   .     A
C685   C687    1.428   .     A
C685   C1413   1.421   1_554 S
C686   C689    1.406   .     A
C687   C688    1.408   .     A
C687   N698    1.435   .     S
C688   N710    1.438   .     S
C689   H691    1.080   .     S
C693   C532    1.357   1_655 S
C693   N539    1.446   1_655 S
C695   C210    1.341   1_565 S
C695   N221    1.446   1_565 S
H697   C210    1.087   1_565 S
N698   O700    1.301   .     A
N698   O699    1.301   .     A
N701   O702    1.301   .     A
N701   O703    1.301   .     A
N704   O705    1.302   .     A
N704   O706    1.301   .     A
N704   C532    1.440   1_655 S
N707   O709    1.301   .     A
O708   N221    1.301   1_565 S
N710   O712    1.301   .     A
N710   O711    1.301   .     A
C713   O715    1.398   .     S
C713   O714    1.223   .     D
H716   O229    1.014   1_565 S
N717   O718    1.301   .     A
N717   O1448   1.301   .     S
O719   N1446   1.301   1_554 S
N720   O722    1.301   .     A
N720   O721    1.301   .     A
N723   O724    1.301   .     A
N723   O725    1.303   .     A
C726   O728    1.399   .     S
C726   O727    1.223   .     D
O728   H729    1.012   .     S
Zn730  O734    1.961   .     S
Zn730  O736    1.933   .     S
Zn730  O742    1.925   .     S
Zn730  O743    1.920   .     S
Zn731  O745    1.943   .     S
Zn731  O734    1.920   .     S
Zn731  O739    1.932   .     S
Zn731  O737    1.940   .     S
Zn732  O741    1.922   .     S
Zn732  O738    1.932   .     S
Zn732  O734    1.941   .     S
Zn732  O746    1.943   .     S
Zn733  O735    1.930   .     S
Zn733  O734    1.947   .     S
Zn733  O740    1.932   .     S
Zn733  O744    1.929   .     S
O735   C747    1.273   .     A
O736   C748    1.278   .     A
O737   C749    1.267   .     A
O738   C750    1.274   .     A
O739   C751    1.267   .     A
O740   C752    1.296   .     A
O741   C751    1.277   .     A
O742   C752    1.294   .     A
O743   C749    1.275   .     A
O744   C750    1.281   .     A
O745   C747    1.255   .     A
O746   C748    1.285   .     A
C747   C775    1.436   .     S
C748   C774    1.464   .     S
C749   C777    1.436   .     S
C750   C776    1.459   .     S
C751   C754    1.462   .     S
C752   C753    1.498   .     S
C753   C756    1.421   .     A
C753   C757    1.423   .     A
C754   C769    1.404   .     A
C754   C770    1.387   .     A
C755   C756    1.404   .     A
C755   C759    1.409   .     A
C755   N798    1.437   .     S
C756   N801    1.434   .     S
C757   C758    1.423   .     A
C757   N804    1.442   .     S
C758   C759    1.411   .     A
C758   C760    1.424   .     A
C759   C34     1.401   1_556 S
C760   C764    1.401   .     A
C760   C32     1.414   1_556 S
C761   C767    1.430   .     A
C761   C762    1.429   .     A
C762   C807    1.483   .     S
C762   C763    1.398   .     A
C763   H771    1.083   .     S
C764   C765    1.391   .     A
C764   H773    1.077   .     S
C765   C794    1.481   .     S
C765   C37     1.421   1_556 S
C766   C767    1.430   .     A
C766   C768    1.428   .     A
C767   C770    1.406   .     A
C768   C769    1.408   .     A
C768   N779    1.435   .     S
C769   N791    1.438   .     S
C770   H772    1.080   .     S
C774   C856    1.357   .     S
C774   N863    1.446   .     S
C775   C936    1.357   1_455 S
C775   N947    1.440   1_455 S
C776   C1020   1.341   .     S
C776   N1031   1.446   .     S
C777   C1262   1.341   1_545 S
C777   H1264   1.087   1_545 S
H778   C1020   1.087   .     S
N779   O781    1.301   .     A
N779   O780    1.301   .     A
N782   O783    1.301   .     A
N782   O784    1.301   .     A
N782   C936    1.446   1_455 S
N785   O786    1.302   .     A
N785   O787    1.301   .     A
N785   C856    1.440   .     S
N788   O790    1.301   .     A
N788   C1262   1.446   1_545 S
N788   O1275   1.301   1_545 S
O789   N1031   1.301   .     S
N791   O793    1.301   .     A
N791   O792    1.301   .     A
C794   O796    1.398   .     S
C794   O795    1.223   .     D
O796   H1283   1.014   1_545 S
H797   O1039   1.014   .     S
N798   O799    1.301   .     A
N798   O71     1.301   1_556 S
N801   O803    1.301   .     A
N801   O802    1.301   .     A
N804   O805    1.301   .     A
N804   O806    1.303   .     A
C807   O809    1.399   .     S
C807   O808    1.223   .     D
O809   H810    1.012   .     S
Zn811  O815    1.961   .     S
Zn811  O817    1.933   .     S
Zn811  O823    1.925   .     S
Zn811  O824    1.920   .     S
Zn812  O826    1.943   .     S
Zn812  O815    1.920   .     S
Zn812  O820    1.932   .     S
Zn812  O818    1.940   .     S
Zn813  O822    1.922   .     S
Zn813  O819    1.932   .     S
Zn813  O815    1.941   .     S
Zn813  O827    1.943   .     S
Zn814  O816    1.930   .     S
Zn814  O815    1.947   .     S
Zn814  O821    1.932   .     S
Zn814  O825    1.929   .     S
O816   C828    1.273   .     A
O817   C829    1.278   .     A
O818   C830    1.267   .     A
O819   C831    1.274   .     A
O820   C832    1.267   .     A
O821   C833    1.296   .     A
O822   C832    1.277   .     A
O823   C833    1.294   .     A
O824   C830    1.275   .     A
O825   C831    1.281   .     A
O826   C828    1.255   .     A
O827   C829    1.285   .     A
C828   C856    1.436   .     S
C829   C855    1.464   .     S
C830   C858    1.436   .     S
C831   C857    1.459   .     S
C832   C835    1.462   .     S
C833   C834    1.498   .     S
C834   C837    1.421   .     A
C834   C838    1.423   .     A
C835   C850    1.404   .     A
C835   C851    1.387   .     A
C836   C837    1.404   .     A
C836   C840    1.409   .     A
C836   N879    1.437   .     S
C837   N882    1.434   .     S
C838   C839    1.423   .     A
C838   N885    1.442   .     S
C839   C840    1.411   .     A
C839   C841    1.424   .     A
C840   C115    1.401   1_556 S
C841   C845    1.401   .     A
C841   C113    1.414   1_556 S
C842   C848    1.430   .     A
C842   C843    1.429   .     A
C843   C888    1.483   .     S
C843   C844    1.398   .     A
C844   H852    1.083   .     S
C845   C846    1.391   .     A
C845   H854    1.077   .     S
C846   C875    1.481   .     S
C846   C118    1.421   1_556 S
C847   C848    1.430   .     A
C847   C849    1.428   .     A
C848   C851    1.406   .     A
C849   C850    1.408   .     A
C849   N860    1.435   .     S
C850   N872    1.438   .     S
C851   H853    1.080   .     S
C855   C937    1.357   .     S
C855   N944    1.446   .     S
C857   C1101   1.341   .     S
C857   N1112   1.446   .     S
C858   C1343   1.341   1_545 S
C858   H1345   1.087   1_545 S
H859   C1101   1.087   .     S
N860   O862    1.301   .     A
N860   O861    1.301   .     A
N863   O864    1.301   .     A
N863   O865    1.301   .     A
N866   O867    1.302   .     A
N866   O868    1.301   .     A
N866   C937    1.440   .     S
N869   O871    1.301   .     A
N869   C1343   1.446   1_545 S
N869   O1356   1.301   1_545 S
O870   N1112   1.301   .     S
N872   O874    1.301   .     A
N872   O873    1.301   .     A
C875   O877    1.398   .     S
C875   O876    1.223   .     D
O877   H1364   1.014   1_545 S
H878   O1120   1.014   .     S
N879   O880    1.301   .     A
N879   O152    1.301   1_556 S
N882   O884    1.301   .     A
N882   O883    1.301   .     A
N885   O886    1.301   .     A
N885   O887    1.303   .     A
C888   O890    1.399   .     S
C888   O889    1.223   .     D
O890   H891    1.012   .     S
Zn892  O896    1.961   .     S
Zn892  O898    1.933   .     S
Zn892  O904    1.925   .     S
Zn892  O905    1.920   .     S
Zn893  O907    1.943   .     S
Zn893  O896    1.920   .     S
Zn893  O901    1.932   .     S
Zn893  O899    1.940   .     S
Zn894  O903    1.922   .     S
Zn894  O900    1.932   .     S
Zn894  O896    1.941   .     S
Zn894  O908    1.943   .     S
Zn895  O897    1.930   .     S
Zn895  O896    1.947   .     S
Zn895  O902    1.932   .     S
Zn895  O906    1.929   .     S
O897   C909    1.273   .     A
O898   C910    1.278   .     A
O899   C911    1.267   .     A
O900   C912    1.274   .     A
O901   C913    1.267   .     A
O902   C914    1.296   .     A
O903   C913    1.277   .     A
O904   C914    1.294   .     A
O905   C911    1.275   .     A
O906   C912    1.281   .     A
O907   C909    1.255   .     A
O908   C910    1.285   .     A
C909   C937    1.436   .     S
C910   C936    1.464   .     S
C911   C939    1.436   .     S
C912   C938    1.459   .     S
C913   C916    1.462   .     S
C914   C915    1.498   .     S
C915   C918    1.421   .     A
C915   C919    1.423   .     A
C916   C931    1.404   .     A
C916   C932    1.387   .     A
C917   C918    1.404   .     A
C917   C921    1.409   .     A
C917   N960    1.437   .     S
C918   N963    1.434   .     S
C919   C920    1.423   .     A
C919   N966    1.442   .     S
C920   C921    1.411   .     A
C920   C922    1.424   .     A
C921   C196    1.401   1_556 S
C922   C926    1.401   .     A
C922   C194    1.414   1_556 S
C923   C929    1.430   .     A
C923   C924    1.429   .     A
C924   C969    1.483   .     S
C924   C925    1.398   .     A
C925   H933    1.083   .     S
C926   C927    1.391   .     A
C926   H935    1.077   .     S
C927   C956    1.481   .     S
C927   C199    1.421   1_556 S
C928   C929    1.430   .     A
C928   C930    1.428   .     A
C929   C932    1.406   .     A
C930   C931    1.408   .     A
C930   N941    1.435   .     S
C931   N953    1.438   .     S
C932   H934    1.080   .     S
C936   C775    1.357   1_655 S
C936   N782    1.446   1_655 S
C938   C1182   1.341   .     S
C938   N1193   1.446   .     S
C939   C1424   1.341   1_545 S
C939   H1426   1.087   1_545 S
H940   C1182   1.087   .     S
N941   O943    1.301   .     A
N941   O942    1.301   .     A
N944   O945    1.301   .     A
N944   O946    1.301   .     A
N947   O948    1.302   .     A
N947   O949    1.301   .     A
N947   C775    1.440   1_655 S
N950   O952    1.301   .     A
N950   C1424   1.446   1_545 S
N950   O1437   1.301   1_545 S
O951   N1193   1.301   .     S
N953   O955    1.301   .     A
N953   O954    1.301   .     A
C956   O958    1.398   .     S
C956   O957    1.223   .     D
O958   H1445   1.014   1_545 S
H959   O1201   1.014   .     S
N960   O961    1.301   .     A
N960   O233    1.301   1_556 S
N963   O965    1.301   .     A
N963   O964    1.301   .     A
N966   O967    1.301   .     A
N966   O968    1.303   .     A
C969   O971    1.399   .     S
C969   O970    1.223   .     D
O971   H972    1.012   .     S
Zn973  O977    1.961   .     S
Zn973  O979    1.933   .     S
Zn973  O985    1.925   .     S
Zn973  O986    1.920   .     S
Zn974  O988    1.943   .     S
Zn974  O977    1.920   .     S
Zn974  O982    1.932   .     S
Zn974  O980    1.940   .     S
Zn975  O984    1.922   .     S
Zn975  O981    1.932   .     S
Zn975  O977    1.941   .     S
Zn975  O989    1.943   .     S
Zn976  O978    1.930   .     S
Zn976  O977    1.947   .     S
Zn976  O983    1.932   .     S
Zn976  O987    1.929   .     S
O978   C990    1.273   .     A
O979   C991    1.278   .     A
O980   C992    1.267   .     A
O981   C993    1.274   .     A
O982   C994    1.267   .     A
O983   C995    1.296   .     A
O984   C994    1.277   .     A
O985   C995    1.294   .     A
O986   C992    1.275   .     A
O987   C993    1.281   .     A
O988   C990    1.255   .     A
O989   C991    1.285   .     A
C990   C1018   1.436   .     S
C991   C1017   1.464   .     S
C992   C1020   1.436   .     S
C993   C1019   1.459   .     S
C994   C997    1.462   .     S
C995   C996    1.498   .     S
C996   C999    1.421   .     A
C996   C1000   1.423   .     A
C997   C1012   1.404   .     A
C997   C1013   1.387   .     A
C998   C999    1.404   .     A
C998   C1002   1.409   .     A
C998   N1041   1.437   .     S
C999   N1044   1.434   .     S
C1000  C1001   1.423   .     A
C1000  N1047   1.442   .     S
C1001  C1002   1.411   .     A
C1001  C1003   1.424   .     A
C1002  C277    1.401   1_556 S
C1003  C1007   1.401   .     A
C1003  C275    1.414   1_556 S
C1004  C1010   1.430   .     A
C1004  C1005   1.429   .     A
C1005  C1050   1.483   .     S
C1005  C1006   1.398   .     A
C1006  H1014   1.083   .     S
C1007  C1008   1.391   .     A
C1007  H1016   1.077   .     S
C1008  C1037   1.481   .     S
C1008  C280    1.421   1_556 S
C1009  C1010   1.430   .     A
C1009  C1011   1.428   .     A
C1010  C1013   1.406   .     A
C1011  C1012   1.408   .     A
C1011  N1022   1.435   .     S
C1012  N1034   1.438   .     S
C1013  H1015   1.080   .     S
C1017  C1099   1.357   .     S
C1017  N1106   1.446   .     S
C1018  C1179   1.357   1_455 S
C1018  N1190   1.440   1_455 S
C1019  C1263   1.341   .     S
C1019  N1274   1.446   .     S
H1021  C1263   1.087   .     S
N1022  O1024   1.301   .     A
N1022  O1023   1.301   .     A
N1025  O1026   1.301   .     A
N1025  O1027   1.301   .     A
N1025  C1179   1.446   1_455 S
N1028  O1029   1.302   .     A
N1028  O1030   1.301   .     A
N1028  C1099   1.440   .     S
N1031  O1033   1.301   .     A
O1032  N1274   1.301   .     S
N1034  O1036   1.301   .     A
N1034  O1035   1.301   .     A
C1037  O1039   1.398   .     S
C1037  O1038   1.223   .     D
H1040  O1282   1.014   .     S
N1041  O1042   1.301   .     A
N1041  O314    1.301   1_556 S
N1044  O1046   1.301   .     A
N1044  O1045   1.301   .     A
N1047  O1048   1.301   .     A
N1047  O1049   1.303   .     A
C1050  O1052   1.399   .     S
C1050  O1051   1.223   .     D
O1052  H1053   1.012   .     S
Zn1054 O1058   1.961   .     S
Zn1054 O1060   1.933   .     S
Zn1054 O1066   1.925   .     S
Zn1054 O1067   1.920   .     S
Zn1055 O1069   1.943   .     S
Zn1055 O1058   1.920   .     S
Zn1055 O1063   1.932   .     S
Zn1055 O1061   1.940   .     S
Zn1056 O1065   1.922   .     S
Zn1056 O1062   1.932   .     S
Zn1056 O1058   1.941   .     S
Zn1056 O1070   1.943   .     S
Zn1057 O1059   1.930   .     S
Zn1057 O1058   1.947   .     S
Zn1057 O1064   1.932   .     S
Zn1057 O1068   1.929   .     S
O1059  C1071   1.273   .     A
O1060  C1072   1.278   .     A
O1061  C1073   1.267   .     A
O1062  C1074   1.274   .     A
O1063  C1075   1.267   .     A
O1064  C1076   1.296   .     A
O1065  C1075   1.277   .     A
O1066  C1076   1.294   .     A
O1067  C1073   1.275   .     A
O1068  C1074   1.281   .     A
O1069  C1071   1.255   .     A
O1070  C1072   1.285   .     A
C1071  C1099   1.436   .     S
C1072  C1098   1.464   .     S
C1073  C1101   1.436   .     S
C1074  C1100   1.459   .     S
C1075  C1078   1.462   .     S
C1076  C1077   1.498   .     S
C1077  C1080   1.421   .     A
C1077  C1081   1.423   .     A
C1078  C1093   1.404   .     A
C1078  C1094   1.387   .     A
C1079  C1080   1.404   .     A
C1079  C1083   1.409   .     A
C1079  N1122   1.437   .     S
C1080  N1125   1.434   .     S
C1081  C1082   1.423   .     A
C1081  N1128   1.442   .     S
C1082  C1083   1.411   .     A
C1082  C1084   1.424   .     A
C1083  C358    1.401   1_556 S
C1084  C1088   1.401   .     A
C1084  C356    1.414   1_556 S
C1085  C1091   1.430   .     A
C1085  C1086   1.429   .     A
C1086  C1131   1.483   .     S
C1086  C1087   1.398   .     A
C1087  H1095   1.083   .     S
C1088  C1089   1.391   .     A
C1088  H1097   1.077   .     S
C1089  C1118   1.481   .     S
C1089  C361    1.421   1_556 S
C1090  C1091   1.430   .     A
C1090  C1092   1.428   .     A
C1091  C1094   1.406   .     A
C1092  C1093   1.408   .     A
C1092  N1103   1.435   .     S
C1093  N1115   1.438   .     S
C1094  H1096   1.080   .     S
C1098  C1180   1.357   .     S
C1098  N1187   1.446   .     S
C1100  C1344   1.341   .     S
C1100  N1355   1.446   .     S
H1102  C1344   1.087   .     S
N1103  O1105   1.301   .     A
N1103  O1104   1.301   .     A
N1106  O1107   1.301   .     A
N1106  O1108   1.301   .     A
N1109  O1110   1.302   .     A
N1109  O1111   1.301   .     A
N1109  C1180   1.440   .     S
N1112  O1114   1.301   .     A
O1113  N1355   1.301   .     S
N1115  O1117   1.301   .     A
N1115  O1116   1.301   .     A
C1118  O1120   1.398   .     S
C1118  O1119   1.223   .     D
H1121  O1363   1.014   .     S
N1122  O1123   1.301   .     A
N1122  O395    1.301   1_556 S
N1125  O1127   1.301   .     A
N1125  O1126   1.301   .     A
N1128  O1129   1.301   .     A
N1128  O1130   1.303   .     A
C1131  O1133   1.399   .     S
C1131  O1132   1.223   .     D
O1133  H1134   1.012   .     S
Zn1135 O1139   1.961   .     S
Zn1135 O1141   1.933   .     S
Zn1135 O1147   1.925   .     S
Zn1135 O1148   1.920   .     S
Zn1136 O1150   1.943   .     S
Zn1136 O1139   1.920   .     S
Zn1136 O1144   1.932   .     S
Zn1136 O1142   1.940   .     S
Zn1137 O1146   1.922   .     S
Zn1137 O1143   1.932   .     S
Zn1137 O1139   1.941   .     S
Zn1137 O1151   1.943   .     S
Zn1138 O1140   1.930   .     S
Zn1138 O1139   1.947   .     S
Zn1138 O1145   1.932   .     S
Zn1138 O1149   1.929   .     S
O1140  C1152   1.273   .     A
O1141  C1153   1.278   .     A
O1142  C1154   1.267   .     A
O1143  C1155   1.274   .     A
O1144  C1156   1.267   .     A
O1145  C1157   1.296   .     A
O1146  C1156   1.277   .     A
O1147  C1157   1.294   .     A
O1148  C1154   1.275   .     A
O1149  C1155   1.281   .     A
O1150  C1152   1.255   .     A
O1151  C1153   1.285   .     A
C1152  C1180   1.436   .     S
C1153  C1179   1.464   .     S
C1154  C1182   1.436   .     S
C1155  C1181   1.459   .     S
C1156  C1159   1.462   .     S
C1157  C1158   1.498   .     S
C1158  C1161   1.421   .     A
C1158  C1162   1.423   .     A
C1159  C1174   1.404   .     A
C1159  C1175   1.387   .     A
C1160  C1161   1.404   .     A
C1160  C1164   1.409   .     A
C1160  N1203   1.437   .     S
C1161  N1206   1.434   .     S
C1162  C1163   1.423   .     A
C1162  N1209   1.442   .     S
C1163  C1164   1.411   .     A
C1163  C1165   1.424   .     A
C1164  C439    1.401   1_556 S
C1165  C1169   1.401   .     A
C1165  C437    1.414   1_556 S
C1166  C1172   1.430   .     A
C1166  C1167   1.429   .     A
C1167  C1212   1.483   .     S
C1167  C1168   1.398   .     A
C1168  H1176   1.083   .     S
C1169  C1170   1.391   .     A
C1169  H1178   1.077   .     S
C1170  C1199   1.481   .     S
C1170  C442    1.421   1_556 S
C1171  C1172   1.430   .     A
C1171  C1173   1.428   .     A
C1172  C1175   1.406   .     A
C1173  C1174   1.408   .     A
C1173  N1184   1.435   .     S
C1174  N1196   1.438   .     S
C1175  H1177   1.080   .     S
C1179  C1018   1.357   1_655 S
C1179  N1025   1.446   1_655 S
C1181  C1425   1.341   .     S
C1181  N1436   1.446   .     S
H1183  C1425   1.087   .     S
N1184  O1186   1.301   .     A
N1184  O1185   1.301   .     A
N1187  O1188   1.301   .     A
N1187  O1189   1.301   .     A
N1190  O1191   1.302   .     A
N1190  O1192   1.301   .     A
N1190  C1018   1.440   1_655 S
N1193  O1195   1.301   .     A
O1194  N1436   1.301   .     S
N1196  O1198   1.301   .     A
N1196  O1197   1.301   .     A
C1199  O1201   1.398   .     S
C1199  O1200   1.223   .     D
H1202  O1444   1.014   .     S
N1203  O1204   1.301   .     A
N1203  O476    1.301   1_556 S
N1206  O1208   1.301   .     A
N1206  O1207   1.301   .     A
N1209  O1210   1.301   .     A
N1209  O1211   1.303   .     A
C1212  O1214   1.399   .     S
C1212  O1213   1.223   .     D
O1214  H1215   1.012   .     S
Zn1216 O1220   1.961   .     S
Zn1216 O1222   1.933   .     S
Zn1216 O1228   1.925   .     S
Zn1216 O1229   1.920   .     S
Zn1217 O1231   1.943   .     S
Zn1217 O1220   1.920   .     S
Zn1217 O1225   1.932   .     S
Zn1217 O1223   1.940   .     S
Zn1218 O1227   1.922   .     S
Zn1218 O1224   1.932   .     S
Zn1218 O1220   1.941   .     S
Zn1218 O1232   1.943   .     S
Zn1219 O1221   1.930   .     S
Zn1219 O1220   1.947   .     S
Zn1219 O1226   1.932   .     S
Zn1219 O1230   1.929   .     S
O1221  C1233   1.273   .     A
O1222  C1234   1.278   .     A
O1223  C1235   1.267   .     A
O1224  C1236   1.274   .     A
O1225  C1237   1.267   .     A
O1226  C1238   1.296   .     A
O1227  C1237   1.277   .     A
O1228  C1238   1.294   .     A
O1229  C1235   1.275   .     A
O1230  C1236   1.281   .     A
O1231  C1233   1.255   .     A
O1232  C1234   1.285   .     A
C1233  C1261   1.436   .     S
C1234  C1260   1.464   .     S
C1235  C1263   1.436   .     S
C1236  C1262   1.459   .     S
C1237  C1240   1.462   .     S
C1238  C1239   1.498   .     S
C1239  C1242   1.421   .     A
C1239  C1243   1.423   .     A
C1240  C1255   1.404   .     A
C1240  C1256   1.387   .     A
C1241  C1242   1.404   .     A
C1241  C1245   1.409   .     A
C1241  N1284   1.437   .     S
C1242  N1287   1.434   .     S
C1243  C1244   1.423   .     A
C1243  N1290   1.442   .     S
C1244  C1245   1.411   .     A
C1244  C1246   1.424   .     A
C1245  C520    1.401   1_556 S
C1246  C1250   1.401   .     A
C1246  C518    1.414   1_556 S
C1247  C1253   1.430   .     A
C1247  C1248   1.429   .     A
C1248  C1293   1.483   .     S
C1248  C1249   1.398   .     A
C1249  H1257   1.083   .     S
C1250  C1251   1.391   .     A
C1250  H1259   1.077   .     S
C1251  C1280   1.481   .     S
C1251  C523    1.421   1_556 S
C1252  C1253   1.430   .     A
C1252  C1254   1.428   .     A
C1253  C1256   1.406   .     A
C1254  C1255   1.408   .     A
C1254  N1265   1.435   .     S
C1255  N1277   1.438   .     S
C1256  H1258   1.080   .     S
C1260  C1342   1.357   .     S
C1260  N1349   1.446   .     S
C1261  C1422   1.357   1_455 S
C1261  N1433   1.440   1_455 S
C1262  C777    1.341   1_565 S
C1262  N788    1.446   1_565 S
H1264  C777    1.087   1_565 S
N1265  O1267   1.301   .     A
N1265  O1266   1.301   .     A
N1268  O1269   1.301   .     A
N1268  O1270   1.301   .     A
N1268  C1422   1.446   1_455 S
N1271  O1272   1.302   .     A
N1271  O1273   1.301   .     A
N1271  C1342   1.440   .     S
N1274  O1276   1.301   .     A
O1275  N788    1.301   1_565 S
N1277  O1279   1.301   .     A
N1277  O1278   1.301   .     A
C1280  O1282   1.398   .     S
C1280  O1281   1.223   .     D
H1283  O796    1.014   1_565 S
N1284  O1285   1.301   .     A
N1284  O557    1.301   1_556 S
N1287  O1289   1.301   .     A
N1287  O1288   1.301   .     A
N1290  O1291   1.301   .     A
N1290  O1292   1.303   .     A
C1293  O1295   1.399   .     S
C1293  O1294   1.223   .     D
O1295  H1296   1.012   .     S
Zn1297 O1301   1.961   .     S
Zn1297 O1303   1.933   .     S
Zn1297 O1309   1.925   .     S
Zn1297 O1310   1.920   .     S
Zn1298 O1312   1.943   .     S
Zn1298 O1301   1.920   .     S
Zn1298 O1306   1.932   .     S
Zn1298 O1304   1.940   .     S
Zn1299 O1308   1.922   .     S
Zn1299 O1305   1.932   .     S
Zn1299 O1301   1.941   .     S
Zn1299 O1313   1.943   .     S
Zn1300 O1302   1.930   .     S
Zn1300 O1301   1.947   .     S
Zn1300 O1307   1.932   .     S
Zn1300 O1311   1.929   .     S
O1302  C1314   1.273   .     A
O1303  C1315   1.278   .     A
O1304  C1316   1.267   .     A
O1305  C1317   1.274   .     A
O1306  C1318   1.267   .     A
O1307  C1319   1.296   .     A
O1308  C1318   1.277   .     A
O1309  C1319   1.294   .     A
O1310  C1316   1.275   .     A
O1311  C1317   1.281   .     A
O1312  C1314   1.255   .     A
O1313  C1315   1.285   .     A
C1314  C1342   1.436   .     S
C1315  C1341   1.464   .     S
C1316  C1344   1.436   .     S
C1317  C1343   1.459   .     S
C1318  C1321   1.462   .     S
C1319  C1320   1.498   .     S
C1320  C1323   1.421   .     A
C1320  C1324   1.423   .     A
C1321  C1336   1.404   .     A
C1321  C1337   1.387   .     A
C1322  C1323   1.404   .     A
C1322  C1326   1.409   .     A
C1322  N1365   1.437   .     S
C1323  N1368   1.434   .     S
C1324  C1325   1.423   .     A
C1324  N1371   1.442   .     S
C1325  C1326   1.411   .     A
C1325  C1327   1.424   .     A
C1326  C601    1.401   1_556 S
C1327  C1331   1.401   .     A
C1327  C599    1.414   1_556 S
C1328  C1334   1.430   .     A
C1328  C1329   1.429   .     A
C1329  C1374   1.483   .     S
C1329  C1330   1.398   .     A
C1330  H1338   1.083   .     S
C1331  C1332   1.391   .     A
C1331  H1340   1.077   .     S
C1332  C1361   1.481   .     S
C1332  C604    1.421   1_556 S
C1333  C1334   1.430   .     A
C1333  C1335   1.428   .     A
C1334  C1337   1.406   .     A
C1335  C1336   1.408   .     A
C1335  N1346   1.435   .     S
C1336  N1358   1.438   .     S
C1337  H1339   1.080   .     S
C1341  C1423   1.357   .     S
C1341  N1430   1.446   .     S
C1343  C858    1.341   1_565 S
C1343  N869    1.446   1_565 S
H1345  C858    1.087   1_565 S
N1346  O1348   1.301   .     A
N1346  O1347   1.301   .     A
N1349  O1350   1.301   .     A
N1349  O1351   1.301   .     A
N1352  O1353   1.302   .     A
N1352  O1354   1.301   .     A
N1352  C1423   1.440   .     S
N1355  O1357   1.301   .     A
O1356  N869    1.301   1_565 S
N1358  O1360   1.301   .     A
N1358  O1359   1.301   .     A
C1361  O1363   1.398   .     S
C1361  O1362   1.223   .     D
H1364  O877    1.014   1_565 S
N1365  O1366   1.301   .     A
N1365  O638    1.301   1_556 S
N1368  O1370   1.301   .     A
N1368  O1369   1.301   .     A
N1371  O1372   1.301   .     A
N1371  O1373   1.303   .     A
C1374  O1376   1.399   .     S
C1374  O1375   1.223   .     D
O1376  H1377   1.012   .     S
Zn1378 O1382   1.961   .     S
Zn1378 O1384   1.933   .     S
Zn1378 O1390   1.925   .     S
Zn1378 O1391   1.920   .     S
Zn1379 O1393   1.943   .     S
Zn1379 O1382   1.920   .     S
Zn1379 O1387   1.932   .     S
Zn1379 O1385   1.940   .     S
Zn1380 O1389   1.922   .     S
Zn1380 O1386   1.932   .     S
Zn1380 O1382   1.941   .     S
Zn1380 O1394   1.943   .     S
Zn1381 O1383   1.930   .     S
Zn1381 O1382   1.947   .     S
Zn1381 O1388   1.932   .     S
Zn1381 O1392   1.929   .     S
O1383  C1395   1.273   .     A
O1384  C1396   1.278   .     A
O1385  C1397   1.267   .     A
O1386  C1398   1.274   .     A
O1387  C1399   1.267   .     A
O1388  C1400   1.296   .     A
O1389  C1399   1.277   .     A
O1390  C1400   1.294   .     A
O1391  C1397   1.275   .     A
O1392  C1398   1.281   .     A
O1393  C1395   1.255   .     A
O1394  C1396   1.285   .     A
C1395  C1423   1.436   .     S
C1396  C1422   1.464   .     S
C1397  C1425   1.436   .     S
C1398  C1424   1.459   .     S
C1399  C1402   1.462   .     S
C1400  C1401   1.498   .     S
C1401  C1404   1.421   .     A
C1401  C1405   1.423   .     A
C1402  C1417   1.404   .     A
C1402  C1418   1.387   .     A
C1403  C1404   1.404   .     A
C1403  C1407   1.409   .     A
C1403  N1446   1.437   .     S
C1404  N1449   1.434   .     S
C1405  C1406   1.423   .     A
C1405  N1452   1.442   .     S
C1406  C1407   1.411   .     A
C1406  C1408   1.424   .     A
C1407  C682    1.401   1_556 S
C1408  C1412   1.401   .     A
C1408  C680    1.414   1_556 S
C1409  C1415   1.430   .     A
C1409  C1410   1.429   .     A
C1410  C1455   1.483   .     S
C1410  C1411   1.398   .     A
C1411  H1419   1.083   .     S
C1412  C1413   1.391   .     A
C1412  H1421   1.077   .     S
C1413  C1442   1.481   .     S
C1413  C685    1.421   1_556 S
C1414  C1415   1.430   .     A
C1414  C1416   1.428   .     A
C1415  C1418   1.406   .     A
C1416  C1417   1.408   .     A
C1416  N1427   1.435   .     S
C1417  N1439   1.438   .     S
C1418  H1420   1.080   .     S
C1422  C1261   1.357   1_655 S
C1422  N1268   1.446   1_655 S
C1424  C939    1.341   1_565 S
C1424  N950    1.446   1_565 S
H1426  C939    1.087   1_565 S
N1427  O1429   1.301   .     A
N1427  O1428   1.301   .     A
N1430  O1431   1.301   .     A
N1430  O1432   1.301   .     A
N1433  O1434   1.302   .     A
N1433  O1435   1.301   .     A
N1433  C1261   1.440   1_655 S
N1436  O1438   1.301   .     A
O1437  N950    1.301   1_565 S
N1439  O1441   1.301   .     A
N1439  O1440   1.301   .     A
C1442  O1444   1.398   .     S
C1442  O1443   1.223   .     D
H1445  O958    1.014   1_565 S
N1446  O1447   1.301   .     A
N1446  O719    1.301   1_556 S
N1449  O1451   1.301   .     A
N1449  O1450   1.301   .     A
N1452  O1453   1.301   .     A
N1452  O1454   1.303   .     A
C1455  O1457   1.399   .     S
C1455  O1456   1.223   .     D
O1457  H1458   1.012   .     S
