data_str_m1_o5_o17_pcu_sym.68
_audit_creation_date              2020-01-03
_audit_creation_method            'Materials Studio'
_symmetry_space_group_name_H-M    'P1'
_symmetry_Int_Tables_number       1
_symmetry_cell_setting            triclinic
loop_
_symmetry_equiv_pos_as_xyz
  x,y,z
_cell_length_a                    31.8108
_cell_length_b                    31.8071
_cell_length_c                    34.3425
_cell_angle_alpha                 89.9002
_cell_angle_beta                  89.8255
_cell_angle_gamma                 89.8823
loop_
_atom_site_label
_atom_site_type_symbol
_atom_site_fract_x
_atom_site_fract_y
_atom_site_fract_z
_atom_site_U_iso_or_equiv
_atom_site_adp_type
_atom_site_occupancy
C1     C     0.24934   0.49993   0.35587   0.00000  Uiso   1.00
C2     C     0.33001   0.41998   0.75000   0.00000  Uiso   1.00
C3     C     0.42533   0.23198   0.02081   0.00000  Uiso   1.00
C4     C     0.23438   0.07573   0.97956   0.00000  Uiso   1.00
C5     C     0.26919   0.42534   0.02031   0.00000  Uiso   1.00
C6     C     0.42613   0.22829   0.98008   0.00000  Uiso   1.00
C7     C     0.07525   0.26721   0.01983   0.00000  Uiso   1.00
C8     C     0.48679   0.11735   0.46043   0.00000  Uiso   1.00
C9     C     0.47337   0.07704   0.44028   0.00000  Uiso   1.00
C10    C     0.09754   0.34410   0.54857   0.00000  Uiso   1.00
C11    C     0.12640   0.36675   0.51992   0.00000  Uiso   1.00
C12    C     0.35537   0.07428   0.44429   0.00000  Uiso   1.00
C13    C     0.41994   0.16997   0.25002   0.00000  Uiso   1.00
C14    C     0.36289   0.10669   0.47601   0.00000  Uiso   1.00
C15    C     0.11715   0.02095   0.55331   0.00000  Uiso   1.00
C16    C     0.06950   0.01672   0.55412   0.00000  Uiso   1.00
C17    C     0.01815   0.38377   0.45691   0.00000  Uiso   1.00
C18    C     0.03587   0.42386   0.43941   0.00000  Uiso   1.00
C19    C     0.40101   0.16627   0.55185   0.00000  Uiso   1.00
C20    C     0.38088   0.13408   0.57882   0.00000  Uiso   1.00
C21    C     0.12009   0.02768   0.44780   0.00000  Uiso   1.00
C22    C     0.09087   0.02296   0.41312   0.00000  Uiso   1.00
C23    C     0.38653   0.49394   0.54020   0.00000  Uiso   1.00
C24    C     0.08006   0.33003   0.74998   0.00000  Uiso   1.00
C25    C     0.42839   0.00635   0.55809   0.00000  Uiso   1.00
C26    C     0.32332   0.38309   0.95695   0.00000  Uiso   1.00
C27    C     0.33229   0.34669   0.92947   0.00000  Uiso   1.00
C28    C     0.26713   0.12978   0.05395   0.00000  Uiso   1.00
C29    C     0.26501   0.17758   0.05475   0.00000  Uiso   1.00
C30    C     0.11621   0.32314   0.95729   0.00000  Uiso   1.00
C31    C     0.15267   0.33324   0.93011   0.00000  Uiso   1.00
C32    C     0.36875   0.26206   0.05177   0.00000  Uiso   1.00
C33    C     0.33886   0.27768   0.02028   0.00000  Uiso   1.00
C34    C     0.25928   0.13375   0.94803   0.00000  Uiso   1.00
C35    C     0.33004   0.41996   0.24999   0.00000  Uiso   1.00
C36    C     0.24665   0.17539   0.92963   0.00000  Uiso   1.00
C37    C     0.23871   0.36920   0.05163   0.00000  Uiso   1.00
C38    C     0.22101   0.34086   0.01989   0.00000  Uiso   1.00
C39    C     0.38946   0.17480   0.95125   0.00000  Uiso   1.00
C40    C     0.37395   0.14810   0.98534   0.00000  Uiso   1.00
C41    C     0.13159   0.23548   0.04939   0.00000  Uiso   1.00
C42    C     0.15979   0.21891   0.01678   0.00000  Uiso   1.00
C43    C     0.16996   0.08004   0.75001   0.00000  Uiso   1.00
C44    C     0.08002   0.33006   0.24998   0.00000  Uiso   1.00
C45    C     0.41998   0.16994   0.75002   0.00000  Uiso   1.00
C46    C     0.16994   0.41997   0.75002   0.00000  Uiso   1.00
C47    C     0.33006   0.08003   0.24998   0.00000  Uiso   1.00
C48    C     0.41999   0.33002   0.75001   0.00000  Uiso   1.00
C49    C     0.24988   0.00005   0.64402   0.00000  Uiso   1.00
C50    C     0.08001   0.16998   0.25000   0.00000  Uiso   1.00
C51    C     0.33002   0.08005   0.74998   0.00000  Uiso   1.00
C52    C     0.16998   0.41995   0.25002   0.00000  Uiso   1.00
C53    C     0.08004   0.16997   0.75000   0.00000  Uiso   1.00
C54    C     0.41996   0.33003   0.25000   0.00000  Uiso   1.00
C55    C     0.13834   0.38830   0.25003   0.00000  Uiso   1.00
C56    C     0.36166   0.11170   0.74996   0.00000  Uiso   1.00
C57    C     0.11166   0.13832   0.25000   0.00000  Uiso   1.00
C58    C     0.38833   0.36167   0.75002   0.00000  Uiso   1.00
C59    C     0.36170   0.11166   0.24998   0.00000  Uiso   1.00
C60    C     0.49997   0.24987   0.35597   0.00000  Uiso   1.00
C61    C     0.13830   0.38834   0.75003   0.00000  Uiso   1.00
C62    C     0.38832   0.36167   0.25000   0.00000  Uiso   1.00
C63    C     0.11168   0.13833   0.75000   0.00000  Uiso   1.00
C64    C     0.13832   0.11167   0.75001   0.00000  Uiso   1.00
C65    C     0.36168   0.38833   0.24999   0.00000  Uiso   1.00
C66    C     0.11170   0.36166   0.74998   0.00000  Uiso   1.00
C67    C     0.38830   0.13834   0.25003   0.00000  Uiso   1.00
C68    C     0.36166   0.38832   0.75000   0.00000  Uiso   1.00
C69    C     0.13834   0.11167   0.25001   0.00000  Uiso   1.00
C70    C     0.38835   0.13830   0.75002   0.00000  Uiso   1.00
C71    C     0.00013   0.25061   0.64413   0.00000  Uiso   1.00
C72    C     0.11165   0.36170   0.24998   0.00000  Uiso   1.00
C73    C     0.01827   0.28358   0.41816   0.00000  Uiso   1.00
C74    C     0.48174   0.21790   0.58212   0.00000  Uiso   1.00
C75    C     0.21121   0.49360   0.41818   0.00000  Uiso   1.00
C76    C     0.28616   0.01016   0.58125   0.00000  Uiso   1.00
C77    C     0.48233   0.21639   0.41878   0.00000  Uiso   1.00
C78    C     0.01973   0.28380   0.58174   0.00000  Uiso   1.00
C79    C     0.28582   0.00820   0.41794   0.00000  Uiso   1.00
C80    C     0.21206   0.49231   0.58179   0.00000  Uiso   1.00
C81    C     0.23928   0.03669   0.91830   0.00000  Uiso   1.00
C82    C     0.49984   0.24997   0.85592   0.00000  Uiso   1.00
C83    C     0.26165   0.46353   0.08175   0.00000  Uiso   1.00
C84    C     0.46343   0.23883   0.91842   0.00000  Uiso   1.00
C85    C     0.03713   0.25994   0.08154   0.00000  Uiso   1.00
C86    C     0.26147   0.46375   0.91826   0.00000  Uiso   1.00
C87    C     0.24008   0.03663   0.08175   0.00000  Uiso   1.00
C88    C     0.03632   0.26092   0.91804   0.00000  Uiso   1.00
C89    C     0.46362   0.23997   0.08194   0.00000  Uiso   1.00
C90    C     0.00004   0.24999   0.39832   0.00000  Uiso   1.00
C91    C     0.00053   0.25089   0.60196   0.00000  Uiso   1.00
C92    C     0.24882   0.49993   0.39805   0.00000  Uiso   1.00
C93    C     0.00027   0.25003   0.14408   0.00000  Uiso   1.00
C94    C     0.24946   0.00035   0.60164   0.00000  Uiso   1.00
C95    C     0.24990   0.00009   0.89820   0.00000  Uiso   1.00
C96    C     0.25039   0.49993   0.10182   0.00000  Uiso   1.00
C97    C     0.49983   0.24993   0.89816   0.00000  Uiso   1.00
C98    C     0.00036   0.25007   0.10182   0.00000  Uiso   1.00
C99    C     0.48275   0.21596   0.45958   0.00000  Uiso   1.00
C100   C     0.01974   0.28426   0.54093   0.00000  Uiso   1.00
C101   C     0.28579   0.01094   0.45858   0.00000  Uiso   1.00
C102   C     0.21056   0.49524   0.54104   0.00000  Uiso   1.00
C103   C     0.01819   0.28447   0.45894   0.00000  Uiso   1.00
C104   C     0.24993   0.00004   0.85593   0.00000  Uiso   1.00
C105   C     0.48117   0.21749   0.54143   0.00000  Uiso   1.00
C106   C     0.21021   0.49596   0.45898   0.00000  Uiso   1.00
C107   C     0.28624   0.01094   0.54046   0.00000  Uiso   1.00
C108   C     0.26187   0.46332   0.95903   0.00000  Uiso   1.00
C109   C     0.24280   0.03808   0.04104   0.00000  Uiso   1.00
C110   C     0.03707   0.26046   0.95880   0.00000  Uiso   1.00
C111   C     0.46281   0.24059   0.04117   0.00000  Uiso   1.00
C112   C     0.24177   0.03796   0.95904   0.00000  Uiso   1.00
C113   C     0.26121   0.46293   0.04096   0.00000  Uiso   1.00
C114   C     0.46299   0.23874   0.95923   0.00000  Uiso   1.00
C115   C     0.25008   0.49986   0.14408   0.00000  Uiso   1.00
C116   C     0.03779   0.25909   0.04073   0.00000  Uiso   1.00
C117   C     0.00043   0.25042   0.47974   0.00000  Uiso   1.00
C118   C     0.00054   0.25069   0.52066   0.00000  Uiso   1.00
C119   C     0.24806   0.00340   0.47933   0.00000  Uiso   1.00
C120   C     0.24822   0.00341   0.52026   0.00000  Uiso   1.00
C121   C     0.25220   0.00071   0.97955   0.00000  Uiso   1.00
C122   C     0.25231   0.00064   0.02048   0.00000  Uiso   1.00
C123   C     0.00009   0.24967   0.97953   0.00000  Uiso   1.00
C124   C     0.00023   0.24980   0.02045   0.00000  Uiso   1.00
C125   C     0.46586   0.18178   0.48057   0.00000  Uiso   1.00
C126   C     0.16999   0.08002   0.25001   0.00000  Uiso   1.00
C127   C     0.03795   0.31787   0.52005   0.00000  Uiso   1.00
C128   C     0.32273   0.02165   0.47874   0.00000  Uiso   1.00
C129   C     0.17226   0.49056   0.52064   0.00000  Uiso   1.00
C130   C     0.03519   0.31892   0.47924   0.00000  Uiso   1.00
C131   C     0.46194   0.18418   0.52124   0.00000  Uiso   1.00
C132   C     0.17202   0.49181   0.47968   0.00000  Uiso   1.00
C133   C     0.32352   0.01940   0.51959   0.00000  Uiso   1.00
C134   C     0.27157   0.42612   0.97946   0.00000  Uiso   1.00
C135   C     0.23573   0.07599   0.02049   0.00000  Uiso   1.00
C136   C     0.07420   0.27030   0.97903   0.00000  Uiso   1.00
H137   H     0.03197   0.30917   0.40157   0.00000  Uiso   1.00
H138   H     0.26973   0.43556   0.09819   0.00000  Uiso   1.00
H139   H     0.43544   0.23091   0.90211   0.00000  Uiso   1.00
H140   H     0.06519   0.26774   0.09781   0.00000  Uiso   1.00
H141   H     0.26940   0.43575   0.90183   0.00000  Uiso   1.00
H142   H     0.23028   0.06394   0.09824   0.00000  Uiso   1.00
H143   H     0.06415   0.26924   0.90146   0.00000  Uiso   1.00
H144   H     0.43569   0.23209   0.09854   0.00000  Uiso   1.00
H145   H     0.49737   0.10904   0.49039   0.00000  Uiso   1.00
H146   H     0.01375   0.13084   0.44382   0.00000  Uiso   1.00
H147   H     0.44863   0.06101   0.45759   0.00000  Uiso   1.00
H148   H     0.46822   0.19228   0.59878   0.00000  Uiso   1.00
H149   H     0.46122   0.08420   0.41071   0.00000  Uiso   1.00
H150   H     0.00073   0.05551   0.43760   0.00000  Uiso   1.00
H151   H     0.10608   0.31004   0.54988   0.00000  Uiso   1.00
H152   H     0.10350   0.35703   0.57806   0.00000  Uiso   1.00
H153   H     0.11672   0.40016   0.51691   0.00000  Uiso   1.00
H154   H     0.15930   0.36553   0.53060   0.00000  Uiso   1.00
H155   H     0.12520   0.35132   0.49100   0.00000  Uiso   1.00
H156   H     0.32459   0.08079   0.43015   0.00000  Uiso   1.00
H157   H     0.37967   0.07856   0.42139   0.00000  Uiso   1.00
H158   H     0.39209   0.09888   0.49205   0.00000  Uiso   1.00
H159   H     0.18289   0.48730   0.40180   0.00000  Uiso   1.00
H160   H     0.36595   0.13834   0.46263   0.00000  Uiso   1.00
H161   H     0.33606   0.10725   0.49674   0.00000  Uiso   1.00
H162   H     0.12531   0.04859   0.53474   0.00000  Uiso   1.00
H163   H     0.12799   0.02765   0.58336   0.00000  Uiso   1.00
H164   H     0.06018   0.49083   0.57408   0.00000  Uiso   1.00
H165   H     0.05505   0.04650   0.56447   0.00000  Uiso   1.00
H166   H     0.05760   0.00974   0.52446   0.00000  Uiso   1.00
H167   H     0.00515   0.39162   0.48621   0.00000  Uiso   1.00
H168   H     0.49226   0.37238   0.43791   0.00000  Uiso   1.00
H169   H     0.04879   0.41754   0.40991   0.00000  Uiso   1.00
H170   H     0.31467   0.01653   0.59740   0.00000  Uiso   1.00
H171   H     0.01060   0.44787   0.43713   0.00000  Uiso   1.00
H172   H     0.06129   0.43617   0.45831   0.00000  Uiso   1.00
H173   H     0.38104   0.17034   0.52566   0.00000  Uiso   1.00
H174   H     0.40157   0.19685   0.56757   0.00000  Uiso   1.00
H175   H     0.39917   0.13168   0.60624   0.00000  Uiso   1.00
H176   H     0.34818   0.14375   0.58589   0.00000  Uiso   1.00
H177   H     0.38026   0.10285   0.56463   0.00000  Uiso   1.00
H178   H     0.14610   0.04912   0.43877   0.00000  Uiso   1.00
H179   H     0.10219   0.04300   0.47163   0.00000  Uiso   1.00
H180   H     0.08125   0.05450   0.40242   0.00000  Uiso   1.00
H181   H     0.46857   0.19057   0.40270   0.00000  Uiso   1.00
H182   H     0.10703   0.00588   0.38919   0.00000  Uiso   1.00
H183   H     0.06226   0.00548   0.42181   0.00000  Uiso   1.00
H184   H     0.39291   0.48142   0.51047   0.00000  Uiso   1.00
H185   H     0.37219   0.46872   0.55841   0.00000  Uiso   1.00
H186   H     0.42339   0.01835   0.58810   0.00000  Uiso   1.00
H187   H     0.44961   0.47861   0.55925   0.00000  Uiso   1.00
H188   H     0.44348   0.03128   0.54020   0.00000  Uiso   1.00
H189   H     0.33635   0.37512   0.98609   0.00000  Uiso   1.00
H190   H     0.33963   0.41149   0.94531   0.00000  Uiso   1.00
H191   H     0.32155   0.35478   0.89963   0.00000  Uiso   1.00
H192   H     0.03394   0.30918   0.59805   0.00000  Uiso   1.00
H193   H     0.36657   0.34009   0.92869   0.00000  Uiso   1.00
H194   H     0.31546   0.31807   0.93948   0.00000  Uiso   1.00
H195   H     0.29493   0.12040   0.03608   0.00000  Uiso   1.00
H196   H     0.27263   0.11874   0.08417   0.00000  Uiso   1.00
H197   H     0.23920   0.18806   0.07432   0.00000  Uiso   1.00
H198   H     0.29518   0.19043   0.06567   0.00000  Uiso   1.00
H199   H     0.25934   0.19007   0.02502   0.00000  Uiso   1.00
H200   H     0.12372   0.33559   0.98672   0.00000  Uiso   1.00
H201   H     0.08761   0.33932   0.94592   0.00000  Uiso   1.00
H202   H     0.14510   0.32295   0.90005   0.00000  Uiso   1.00
H203   H     0.31456   0.01260   0.40138   0.00000  Uiso   1.00
H204   H     0.15855   0.36765   0.92996   0.00000  Uiso   1.00
H205   H     0.18155   0.31672   0.93995   0.00000  Uiso   1.00
H206   H     0.39149   0.28740   0.05935   0.00000  Uiso   1.00
H207   H     0.35001   0.25587   0.07849   0.00000  Uiso   1.00
H208   H     0.31665   0.25237   0.01193   0.00000  Uiso   1.00
H209   H     0.32069   0.30502   0.03134   0.00000  Uiso   1.00
H210   H     0.35699   0.28782   0.99430   0.00000  Uiso   1.00
H211   H     0.27743   0.11529   0.92620   0.00000  Uiso   1.00
H212   H     0.28007   0.14069   0.97301   0.00000  Uiso   1.00
H213   H     0.22896   0.19477   0.95103   0.00000  Uiso   1.00
H214   H     0.18421   0.48442   0.59846   0.00000  Uiso   1.00
H215   H     0.27519   0.19284   0.92036   0.00000  Uiso   1.00
H216   H     0.22655   0.16971   0.90380   0.00000  Uiso   1.00
H217   H     0.21434   0.39244   0.06081   0.00000  Uiso   1.00
H218   H     0.24536   0.34936   0.07753   0.00000  Uiso   1.00
H219   H     0.24544   0.31853   0.00951   0.00000  Uiso   1.00
H220   H     0.19400   0.32271   0.03161   0.00000  Uiso   1.00
H221   H     0.20979   0.36020   0.99511   0.00000  Uiso   1.00
H222   H     0.42070   0.16317   0.94104   0.00000  Uiso   1.00
H223   H     0.36735   0.17034   0.92664   0.00000  Uiso   1.00
H224   H     0.34561   0.16273   0.99851   0.00000  Uiso   1.00
H225   H     0.23007   0.06428   0.90182   0.00000  Uiso   1.00
H226   H     0.36594   0.11604   0.97503   0.00000  Uiso   1.00
H227   H     0.39880   0.14540   0.00782   0.00000  Uiso   1.00
H228   H     0.10837   0.21088   0.05798   0.00000  Uiso   1.00
H229   H     0.15158   0.24100   0.07533   0.00000  Uiso   1.00
H230   H     0.18292   0.24327   0.00795   0.00000  Uiso   1.00
H231   H     0.17695   0.19061   0.02706   0.00000  Uiso   1.00
H232   H     0.14066   0.20971   0.99123   0.00000  Uiso   1.00
O233   O     0.25000   0.00000   0.25000   0.00000  Uiso   1.00
O234   O     0.25000   0.46539   0.66251   0.00000  Uiso   1.00
O235   O     0.46539   0.25000   0.33749   0.00000  Uiso   1.00
O236   O     0.03462   0.25000   0.66251   0.00000  Uiso   1.00
O237   O     0.00000   0.21538   0.83749   0.00000  Uiso   1.00
O238   O     0.00000   0.28461   0.16251   0.00000  Uiso   1.00
O239   O     0.28462   0.00000   0.83749   0.00000  Uiso   1.00
O240   O     0.21539   0.00000   0.16251   0.00000  Uiso   1.00
O241   O     0.00000   0.28461   0.83749   0.00000  Uiso   1.00
O242   O     0.00000   0.21538   0.16251   0.00000  Uiso   1.00
O243   O     0.21539   0.00000   0.83749   0.00000  Uiso   1.00
O244   O     0.25000   0.00000   0.75000   0.00000  Uiso   1.00
O245   O     0.28462   0.00000   0.16251   0.00000  Uiso   1.00
O246   O     0.20127   0.08332   0.27298   0.00000  Uiso   1.00
O247   O     0.29874   0.41668   0.72702   0.00000  Uiso   1.00
O248   O     0.41668   0.20127   0.27298   0.00000  Uiso   1.00
O249   O     0.08332   0.29874   0.72702   0.00000  Uiso   1.00
O250   O     0.29874   0.41668   0.27298   0.00000  Uiso   1.00
O251   O     0.20127   0.08332   0.72702   0.00000  Uiso   1.00
O252   O     0.08332   0.29874   0.27298   0.00000  Uiso   1.00
O253   O     0.41668   0.20127   0.72702   0.00000  Uiso   1.00
O254   O     0.20127   0.41668   0.72702   0.00000  Uiso   1.00
O255   O     0.00000   0.25000   0.25000   0.00000  Uiso   1.00
O256   O     0.29874   0.08332   0.27298   0.00000  Uiso   1.00
O257   O     0.41668   0.29874   0.72702   0.00000  Uiso   1.00
O258   O     0.08332   0.20127   0.27298   0.00000  Uiso   1.00
O259   O     0.29874   0.08332   0.72702   0.00000  Uiso   1.00
O260   O     0.20127   0.41668   0.27298   0.00000  Uiso   1.00
O261   O     0.08332   0.20127   0.72702   0.00000  Uiso   1.00
O262   O     0.41668   0.29874   0.27298   0.00000  Uiso   1.00
O263   O     0.45127   0.33332   0.77298   0.00000  Uiso   1.00
O264   O     0.04874   0.16668   0.22702   0.00000  Uiso   1.00
O265   O     0.16668   0.45127   0.77298   0.00000  Uiso   1.00
O266   O     0.00000   0.25000   0.75000   0.00000  Uiso   1.00
O267   O     0.33332   0.04874   0.22702   0.00000  Uiso   1.00
O268   O     0.04874   0.16668   0.77298   0.00000  Uiso   1.00
O269   O     0.45127   0.33332   0.22702   0.00000  Uiso   1.00
O270   O     0.33332   0.04874   0.77298   0.00000  Uiso   1.00
O271   O     0.16668   0.45127   0.22702   0.00000  Uiso   1.00
O272   O     0.45127   0.16668   0.22702   0.00000  Uiso   1.00
O273   O     0.04874   0.33332   0.77298   0.00000  Uiso   1.00
O274   O     0.16668   0.04874   0.22702   0.00000  Uiso   1.00
O275   O     0.33332   0.45127   0.77298   0.00000  Uiso   1.00
O276   O     0.04874   0.33332   0.22702   0.00000  Uiso   1.00
O277   O     0.25000   0.46539   0.33749   0.00000  Uiso   1.00
O278   O     0.45127   0.16668   0.77298   0.00000  Uiso   1.00
O279   O     0.33332   0.45127   0.22702   0.00000  Uiso   1.00
O280   O     0.16668   0.04874   0.77298   0.00000  Uiso   1.00
O281   O     0.45269   0.14594   0.46145   0.00000  Uiso   1.00
O282   O     0.05488   0.35204   0.53938   0.00000  Uiso   1.00
O283   O     0.35913   0.03276   0.45898   0.00000  Uiso   1.00
O284   O     0.13493   0.48267   0.54015   0.00000  Uiso   1.00
O285   O     0.05049   0.35341   0.45925   0.00000  Uiso   1.00
O286   O     0.44168   0.15220   0.54116   0.00000  Uiso   1.00
O287   O     0.13426   0.48749   0.46004   0.00000  Uiso   1.00
O288   O     0.25000   0.03462   0.66251   0.00000  Uiso   1.00
O289   O     0.36004   0.02956   0.53914   0.00000  Uiso   1.00
O290   O     0.27945   0.38930   0.95930   0.00000  Uiso   1.00
O291   O     0.22855   0.11358   0.03984   0.00000  Uiso   1.00
O292   O     0.11073   0.27915   0.95865   0.00000  Uiso   1.00
O293   O     0.38817   0.22380   0.04056   0.00000  Uiso   1.00
O294   O     0.22274   0.11208   0.96008   0.00000  Uiso   1.00
O295   O     0.27707   0.38788   0.03968   0.00000  Uiso   1.00
O296   O     0.38936   0.21810   0.96079   0.00000  Uiso   1.00
O297   O     0.11285   0.27436   0.03896   0.00000  Uiso   1.00
O298   O     0.03462   0.25000   0.33749   0.00000  Uiso   1.00
O299   O     0.46539   0.25000   0.66251   0.00000  Uiso   1.00
O300   O     0.25000   0.03462   0.33749   0.00000  Uiso   1.00
Zn301  Zn    0.20053   0.00000   0.21730   0.00000  Uiso   1.00
Zn302  Zn    0.04948   0.25000   0.28270   0.00000  Uiso   1.00
Zn303  Zn    0.25000   0.45053   0.71730   0.00000  Uiso   1.00
Zn304  Zn    0.25000   0.04948   0.28270   0.00000  Uiso   1.00
Zn305  Zn    0.04948   0.25000   0.71730   0.00000  Uiso   1.00
Zn306  Zn    0.45053   0.25000   0.28270   0.00000  Uiso   1.00
Zn307  Zn    0.25000   0.04948   0.71730   0.00000  Uiso   1.00
Zn308  Zn    0.25000   0.45053   0.28270   0.00000  Uiso   1.00
Zn309  Zn    0.29948   0.00000   0.78270   0.00000  Uiso   1.00
Zn310  Zn    0.00000   0.20052   0.21730   0.00000  Uiso   1.00
Zn311  Zn    0.00000   0.29947   0.78270   0.00000  Uiso   1.00
Zn312  Zn    0.29948   0.00000   0.21730   0.00000  Uiso   1.00
Zn313  Zn    0.20053   0.00000   0.78270   0.00000  Uiso   1.00
Zn314  Zn    0.00000   0.29947   0.21730   0.00000  Uiso   1.00
Zn315  Zn    0.00000   0.20052   0.78270   0.00000  Uiso   1.00
Zn316  Zn    0.45053   0.25000   0.71730   0.00000  Uiso   1.00
C317   C     0.74934   0.49993   0.35587   0.00000  Uiso   1.00
C318   C     0.83001   0.41998   0.75000   0.00000  Uiso   1.00
C319   C     0.92533   0.23198   0.02081   0.00000  Uiso   1.00
C320   C     0.73438   0.07573   0.97956   0.00000  Uiso   1.00
C321   C     0.76919   0.42534   0.02031   0.00000  Uiso   1.00
C322   C     0.92613   0.22829   0.98008   0.00000  Uiso   1.00
C323   C     0.57525   0.26721   0.01983   0.00000  Uiso   1.00
C324   C     0.98679   0.11735   0.46043   0.00000  Uiso   1.00
C325   C     0.97337   0.07704   0.44028   0.00000  Uiso   1.00
C326   C     0.59754   0.34410   0.54857   0.00000  Uiso   1.00
C327   C     0.62640   0.36675   0.51992   0.00000  Uiso   1.00
C328   C     0.85537   0.07428   0.44429   0.00000  Uiso   1.00
C329   C     0.91994   0.16997   0.25002   0.00000  Uiso   1.00
C330   C     0.86289   0.10669   0.47601   0.00000  Uiso   1.00
C331   C     0.61715   0.02095   0.55331   0.00000  Uiso   1.00
C332   C     0.56950   0.01672   0.55412   0.00000  Uiso   1.00
C333   C     0.51815   0.38377   0.45691   0.00000  Uiso   1.00
C334   C     0.53587   0.42386   0.43941   0.00000  Uiso   1.00
C335   C     0.90101   0.16627   0.55185   0.00000  Uiso   1.00
C336   C     0.88088   0.13408   0.57882   0.00000  Uiso   1.00
C337   C     0.62009   0.02768   0.44780   0.00000  Uiso   1.00
C338   C     0.59087   0.02296   0.41312   0.00000  Uiso   1.00
C339   C     0.88653   0.49394   0.54020   0.00000  Uiso   1.00
C340   C     0.58006   0.33003   0.74998   0.00000  Uiso   1.00
C341   C     0.92839   0.00635   0.55809   0.00000  Uiso   1.00
C342   C     0.82332   0.38309   0.95695   0.00000  Uiso   1.00
C343   C     0.83229   0.34669   0.92947   0.00000  Uiso   1.00
C344   C     0.76713   0.12978   0.05395   0.00000  Uiso   1.00
C345   C     0.76501   0.17758   0.05475   0.00000  Uiso   1.00
C346   C     0.61621   0.32314   0.95729   0.00000  Uiso   1.00
C347   C     0.65267   0.33324   0.93011   0.00000  Uiso   1.00
C348   C     0.86875   0.26206   0.05177   0.00000  Uiso   1.00
C349   C     0.83886   0.27768   0.02028   0.00000  Uiso   1.00
C350   C     0.75928   0.13375   0.94803   0.00000  Uiso   1.00
C351   C     0.83004   0.41996   0.24999   0.00000  Uiso   1.00
C352   C     0.74665   0.17539   0.92963   0.00000  Uiso   1.00
C353   C     0.73871   0.36920   0.05163   0.00000  Uiso   1.00
C354   C     0.72101   0.34086   0.01989   0.00000  Uiso   1.00
C355   C     0.88946   0.17480   0.95125   0.00000  Uiso   1.00
C356   C     0.87395   0.14810   0.98534   0.00000  Uiso   1.00
C357   C     0.63159   0.23548   0.04939   0.00000  Uiso   1.00
C358   C     0.65979   0.21891   0.01678   0.00000  Uiso   1.00
C359   C     0.66996   0.08004   0.75001   0.00000  Uiso   1.00
C360   C     0.58002   0.33006   0.24998   0.00000  Uiso   1.00
C361   C     0.91998   0.16994   0.75002   0.00000  Uiso   1.00
C362   C     0.66994   0.41997   0.75002   0.00000  Uiso   1.00
C363   C     0.83006   0.08003   0.24998   0.00000  Uiso   1.00
C364   C     0.91999   0.33002   0.75001   0.00000  Uiso   1.00
C365   C     0.74988   0.00005   0.64402   0.00000  Uiso   1.00
C366   C     0.58001   0.16998   0.25000   0.00000  Uiso   1.00
C367   C     0.83002   0.08005   0.74998   0.00000  Uiso   1.00
C368   C     0.66998   0.41995   0.25002   0.00000  Uiso   1.00
C369   C     0.58004   0.16997   0.75000   0.00000  Uiso   1.00
C370   C     0.91996   0.33003   0.25000   0.00000  Uiso   1.00
C371   C     0.63834   0.38830   0.25003   0.00000  Uiso   1.00
C372   C     0.86166   0.11170   0.74996   0.00000  Uiso   1.00
C373   C     0.61166   0.13832   0.25000   0.00000  Uiso   1.00
C374   C     0.88833   0.36167   0.75002   0.00000  Uiso   1.00
C375   C     0.86170   0.11166   0.24998   0.00000  Uiso   1.00
C376   C     0.99997   0.24987   0.35597   0.00000  Uiso   1.00
C377   C     0.63830   0.38834   0.75003   0.00000  Uiso   1.00
C378   C     0.88832   0.36167   0.25000   0.00000  Uiso   1.00
C379   C     0.61168   0.13833   0.75000   0.00000  Uiso   1.00
C380   C     0.63832   0.11167   0.75001   0.00000  Uiso   1.00
C381   C     0.86168   0.38833   0.24999   0.00000  Uiso   1.00
C382   C     0.61170   0.36166   0.74998   0.00000  Uiso   1.00
C383   C     0.88830   0.13834   0.25003   0.00000  Uiso   1.00
C384   C     0.86166   0.38832   0.75000   0.00000  Uiso   1.00
C385   C     0.63834   0.11167   0.25001   0.00000  Uiso   1.00
C386   C     0.88835   0.13830   0.75002   0.00000  Uiso   1.00
C387   C     0.50013   0.25061   0.64413   0.00000  Uiso   1.00
C388   C     0.61165   0.36170   0.24998   0.00000  Uiso   1.00
C389   C     0.51827   0.28358   0.41816   0.00000  Uiso   1.00
C390   C     0.98174   0.21790   0.58212   0.00000  Uiso   1.00
C391   C     0.71121   0.49360   0.41818   0.00000  Uiso   1.00
C392   C     0.78616   0.01016   0.58125   0.00000  Uiso   1.00
C393   C     0.98233   0.21639   0.41878   0.00000  Uiso   1.00
C394   C     0.51973   0.28380   0.58174   0.00000  Uiso   1.00
C395   C     0.78582   0.00820   0.41794   0.00000  Uiso   1.00
C396   C     0.71206   0.49231   0.58179   0.00000  Uiso   1.00
C397   C     0.73928   0.03669   0.91830   0.00000  Uiso   1.00
C398   C     0.99984   0.24997   0.85592   0.00000  Uiso   1.00
C399   C     0.76165   0.46353   0.08175   0.00000  Uiso   1.00
C400   C     0.96343   0.23883   0.91842   0.00000  Uiso   1.00
C401   C     0.53713   0.25994   0.08154   0.00000  Uiso   1.00
C402   C     0.76147   0.46375   0.91826   0.00000  Uiso   1.00
C403   C     0.74008   0.03663   0.08175   0.00000  Uiso   1.00
C404   C     0.53632   0.26092   0.91804   0.00000  Uiso   1.00
C405   C     0.96362   0.23997   0.08194   0.00000  Uiso   1.00
C406   C     0.50004   0.24999   0.39832   0.00000  Uiso   1.00
C407   C     0.50053   0.25089   0.60196   0.00000  Uiso   1.00
C408   C     0.74882   0.49993   0.39805   0.00000  Uiso   1.00
C409   C     0.50027   0.25003   0.14408   0.00000  Uiso   1.00
C410   C     0.74946   0.00035   0.60164   0.00000  Uiso   1.00
C411   C     0.74990   0.00009   0.89820   0.00000  Uiso   1.00
C412   C     0.75039   0.49993   0.10182   0.00000  Uiso   1.00
C413   C     0.99983   0.24993   0.89816   0.00000  Uiso   1.00
C414   C     0.50036   0.25007   0.10182   0.00000  Uiso   1.00
C415   C     0.98275   0.21596   0.45958   0.00000  Uiso   1.00
C416   C     0.51974   0.28426   0.54093   0.00000  Uiso   1.00
C417   C     0.78579   0.01094   0.45858   0.00000  Uiso   1.00
C418   C     0.71056   0.49524   0.54104   0.00000  Uiso   1.00
C419   C     0.51819   0.28447   0.45894   0.00000  Uiso   1.00
C420   C     0.74993   0.00004   0.85593   0.00000  Uiso   1.00
C421   C     0.98117   0.21749   0.54143   0.00000  Uiso   1.00
C422   C     0.71021   0.49596   0.45898   0.00000  Uiso   1.00
C423   C     0.78624   0.01094   0.54046   0.00000  Uiso   1.00
C424   C     0.76187   0.46332   0.95903   0.00000  Uiso   1.00
C425   C     0.74280   0.03808   0.04104   0.00000  Uiso   1.00
C426   C     0.53707   0.26046   0.95880   0.00000  Uiso   1.00
C427   C     0.96281   0.24059   0.04117   0.00000  Uiso   1.00
C428   C     0.74177   0.03796   0.95904   0.00000  Uiso   1.00
C429   C     0.76121   0.46293   0.04096   0.00000  Uiso   1.00
C430   C     0.96299   0.23874   0.95923   0.00000  Uiso   1.00
C431   C     0.75008   0.49986   0.14408   0.00000  Uiso   1.00
C432   C     0.53779   0.25909   0.04073   0.00000  Uiso   1.00
C433   C     0.50043   0.25042   0.47974   0.00000  Uiso   1.00
C434   C     0.50054   0.25069   0.52066   0.00000  Uiso   1.00
C435   C     0.74806   0.00340   0.47933   0.00000  Uiso   1.00
C436   C     0.74822   0.00341   0.52026   0.00000  Uiso   1.00
C437   C     0.75220   0.00071   0.97955   0.00000  Uiso   1.00
C438   C     0.75231   0.00064   0.02048   0.00000  Uiso   1.00
C439   C     0.50009   0.24967   0.97953   0.00000  Uiso   1.00
C440   C     0.50023   0.24980   0.02045   0.00000  Uiso   1.00
C441   C     0.96586   0.18178   0.48057   0.00000  Uiso   1.00
C442   C     0.66999   0.08002   0.25001   0.00000  Uiso   1.00
C443   C     0.53795   0.31787   0.52005   0.00000  Uiso   1.00
C444   C     0.82273   0.02165   0.47874   0.00000  Uiso   1.00
C445   C     0.67226   0.49056   0.52064   0.00000  Uiso   1.00
C446   C     0.53519   0.31892   0.47924   0.00000  Uiso   1.00
C447   C     0.96194   0.18418   0.52124   0.00000  Uiso   1.00
C448   C     0.67202   0.49181   0.47968   0.00000  Uiso   1.00
C449   C     0.82352   0.01940   0.51959   0.00000  Uiso   1.00
C450   C     0.77157   0.42612   0.97946   0.00000  Uiso   1.00
C451   C     0.73573   0.07599   0.02049   0.00000  Uiso   1.00
C452   C     0.57420   0.27030   0.97903   0.00000  Uiso   1.00
H453   H     0.53197   0.30917   0.40157   0.00000  Uiso   1.00
H454   H     0.76973   0.43556   0.09819   0.00000  Uiso   1.00
H455   H     0.93544   0.23091   0.90211   0.00000  Uiso   1.00
H456   H     0.56519   0.26774   0.09781   0.00000  Uiso   1.00
H457   H     0.76940   0.43575   0.90183   0.00000  Uiso   1.00
H458   H     0.73028   0.06394   0.09824   0.00000  Uiso   1.00
H459   H     0.56415   0.26924   0.90146   0.00000  Uiso   1.00
H460   H     0.93569   0.23209   0.09854   0.00000  Uiso   1.00
H461   H     0.99737   0.10904   0.49039   0.00000  Uiso   1.00
H462   H     0.51375   0.13084   0.44382   0.00000  Uiso   1.00
H463   H     0.94863   0.06101   0.45759   0.00000  Uiso   1.00
H464   H     0.96822   0.19228   0.59878   0.00000  Uiso   1.00
H465   H     0.96122   0.08420   0.41071   0.00000  Uiso   1.00
H466   H     0.50073   0.05551   0.43760   0.00000  Uiso   1.00
H467   H     0.60608   0.31004   0.54988   0.00000  Uiso   1.00
H468   H     0.60350   0.35703   0.57806   0.00000  Uiso   1.00
H469   H     0.61672   0.40016   0.51691   0.00000  Uiso   1.00
H470   H     0.65930   0.36553   0.53060   0.00000  Uiso   1.00
H471   H     0.62520   0.35132   0.49100   0.00000  Uiso   1.00
H472   H     0.82459   0.08079   0.43015   0.00000  Uiso   1.00
H473   H     0.87967   0.07856   0.42139   0.00000  Uiso   1.00
H474   H     0.89209   0.09888   0.49205   0.00000  Uiso   1.00
H475   H     0.68289   0.48730   0.40180   0.00000  Uiso   1.00
H476   H     0.86595   0.13834   0.46263   0.00000  Uiso   1.00
H477   H     0.83606   0.10725   0.49674   0.00000  Uiso   1.00
H478   H     0.62531   0.04859   0.53474   0.00000  Uiso   1.00
H479   H     0.62799   0.02765   0.58336   0.00000  Uiso   1.00
H480   H     0.56018   0.49083   0.57408   0.00000  Uiso   1.00
H481   H     0.55505   0.04650   0.56447   0.00000  Uiso   1.00
H482   H     0.55760   0.00974   0.52446   0.00000  Uiso   1.00
H483   H     0.50515   0.39162   0.48621   0.00000  Uiso   1.00
H484   H     0.99226   0.37238   0.43791   0.00000  Uiso   1.00
H485   H     0.54879   0.41754   0.40991   0.00000  Uiso   1.00
H486   H     0.81467   0.01653   0.59740   0.00000  Uiso   1.00
H487   H     0.51060   0.44787   0.43713   0.00000  Uiso   1.00
H488   H     0.56129   0.43617   0.45831   0.00000  Uiso   1.00
H489   H     0.88104   0.17034   0.52566   0.00000  Uiso   1.00
H490   H     0.90157   0.19685   0.56757   0.00000  Uiso   1.00
H491   H     0.89917   0.13168   0.60624   0.00000  Uiso   1.00
H492   H     0.84818   0.14375   0.58589   0.00000  Uiso   1.00
H493   H     0.88026   0.10285   0.56463   0.00000  Uiso   1.00
H494   H     0.64610   0.04912   0.43877   0.00000  Uiso   1.00
H495   H     0.60219   0.04300   0.47163   0.00000  Uiso   1.00
H496   H     0.58125   0.05450   0.40242   0.00000  Uiso   1.00
H497   H     0.96857   0.19057   0.40270   0.00000  Uiso   1.00
H498   H     0.60703   0.00588   0.38919   0.00000  Uiso   1.00
H499   H     0.56226   0.00548   0.42181   0.00000  Uiso   1.00
H500   H     0.89291   0.48142   0.51047   0.00000  Uiso   1.00
H501   H     0.87219   0.46872   0.55841   0.00000  Uiso   1.00
H502   H     0.92339   0.01835   0.58810   0.00000  Uiso   1.00
H503   H     0.94961   0.47861   0.55925   0.00000  Uiso   1.00
H504   H     0.94348   0.03128   0.54020   0.00000  Uiso   1.00
H505   H     0.83635   0.37512   0.98609   0.00000  Uiso   1.00
H506   H     0.83963   0.41149   0.94531   0.00000  Uiso   1.00
H507   H     0.82155   0.35478   0.89963   0.00000  Uiso   1.00
H508   H     0.53394   0.30918   0.59805   0.00000  Uiso   1.00
H509   H     0.86657   0.34009   0.92869   0.00000  Uiso   1.00
H510   H     0.81546   0.31807   0.93948   0.00000  Uiso   1.00
H511   H     0.79493   0.12040   0.03608   0.00000  Uiso   1.00
H512   H     0.77263   0.11874   0.08417   0.00000  Uiso   1.00
H513   H     0.73920   0.18806   0.07432   0.00000  Uiso   1.00
H514   H     0.79518   0.19043   0.06567   0.00000  Uiso   1.00
H515   H     0.75934   0.19007   0.02502   0.00000  Uiso   1.00
H516   H     0.62372   0.33559   0.98672   0.00000  Uiso   1.00
H517   H     0.58761   0.33932   0.94592   0.00000  Uiso   1.00
H518   H     0.64510   0.32295   0.90005   0.00000  Uiso   1.00
H519   H     0.81456   0.01260   0.40138   0.00000  Uiso   1.00
H520   H     0.65855   0.36765   0.92996   0.00000  Uiso   1.00
H521   H     0.68155   0.31672   0.93995   0.00000  Uiso   1.00
H522   H     0.89149   0.28740   0.05935   0.00000  Uiso   1.00
H523   H     0.85001   0.25587   0.07849   0.00000  Uiso   1.00
H524   H     0.81665   0.25237   0.01193   0.00000  Uiso   1.00
H525   H     0.82069   0.30502   0.03134   0.00000  Uiso   1.00
H526   H     0.85699   0.28782   0.99430   0.00000  Uiso   1.00
H527   H     0.77743   0.11529   0.92620   0.00000  Uiso   1.00
H528   H     0.78007   0.14069   0.97301   0.00000  Uiso   1.00
H529   H     0.72896   0.19477   0.95103   0.00000  Uiso   1.00
H530   H     0.68421   0.48442   0.59846   0.00000  Uiso   1.00
H531   H     0.77519   0.19284   0.92036   0.00000  Uiso   1.00
H532   H     0.72655   0.16971   0.90380   0.00000  Uiso   1.00
H533   H     0.71434   0.39244   0.06081   0.00000  Uiso   1.00
H534   H     0.74536   0.34936   0.07753   0.00000  Uiso   1.00
H535   H     0.74544   0.31853   0.00951   0.00000  Uiso   1.00
H536   H     0.69400   0.32271   0.03161   0.00000  Uiso   1.00
H537   H     0.70979   0.36020   0.99511   0.00000  Uiso   1.00
H538   H     0.92070   0.16317   0.94104   0.00000  Uiso   1.00
H539   H     0.86735   0.17034   0.92664   0.00000  Uiso   1.00
H540   H     0.84561   0.16273   0.99851   0.00000  Uiso   1.00
H541   H     0.73007   0.06428   0.90182   0.00000  Uiso   1.00
H542   H     0.86594   0.11604   0.97503   0.00000  Uiso   1.00
H543   H     0.89880   0.14540   0.00782   0.00000  Uiso   1.00
H544   H     0.60837   0.21088   0.05798   0.00000  Uiso   1.00
H545   H     0.65158   0.24100   0.07533   0.00000  Uiso   1.00
H546   H     0.68292   0.24327   0.00795   0.00000  Uiso   1.00
H547   H     0.67695   0.19061   0.02706   0.00000  Uiso   1.00
H548   H     0.64066   0.20971   0.99123   0.00000  Uiso   1.00
O549   O     0.75000   0.00000   0.25000   0.00000  Uiso   1.00
O550   O     0.75000   0.46539   0.66251   0.00000  Uiso   1.00
O551   O     0.96539   0.25000   0.33749   0.00000  Uiso   1.00
O552   O     0.53462   0.25000   0.66251   0.00000  Uiso   1.00
O553   O     0.50000   0.21538   0.83749   0.00000  Uiso   1.00
O554   O     0.50000   0.28461   0.16251   0.00000  Uiso   1.00
O555   O     0.78462   0.00000   0.83749   0.00000  Uiso   1.00
O556   O     0.71539   0.00000   0.16251   0.00000  Uiso   1.00
O557   O     0.50000   0.28461   0.83749   0.00000  Uiso   1.00
O558   O     0.50000   0.21538   0.16251   0.00000  Uiso   1.00
O559   O     0.71539   0.00000   0.83749   0.00000  Uiso   1.00
O560   O     0.75000   0.00000   0.75000   0.00000  Uiso   1.00
O561   O     0.78462   0.00000   0.16251   0.00000  Uiso   1.00
O562   O     0.70127   0.08332   0.27298   0.00000  Uiso   1.00
O563   O     0.79874   0.41668   0.72702   0.00000  Uiso   1.00
O564   O     0.91668   0.20127   0.27298   0.00000  Uiso   1.00
O565   O     0.58332   0.29874   0.72702   0.00000  Uiso   1.00
O566   O     0.79874   0.41668   0.27298   0.00000  Uiso   1.00
O567   O     0.70127   0.08332   0.72702   0.00000  Uiso   1.00
O568   O     0.58332   0.29874   0.27298   0.00000  Uiso   1.00
O569   O     0.91668   0.20127   0.72702   0.00000  Uiso   1.00
O570   O     0.70127   0.41668   0.72702   0.00000  Uiso   1.00
O571   O     0.50000   0.25000   0.25000   0.00000  Uiso   1.00
O572   O     0.79874   0.08332   0.27298   0.00000  Uiso   1.00
O573   O     0.91668   0.29874   0.72702   0.00000  Uiso   1.00
O574   O     0.58332   0.20127   0.27298   0.00000  Uiso   1.00
O575   O     0.79874   0.08332   0.72702   0.00000  Uiso   1.00
O576   O     0.70127   0.41668   0.27298   0.00000  Uiso   1.00
O577   O     0.58332   0.20127   0.72702   0.00000  Uiso   1.00
O578   O     0.91668   0.29874   0.27298   0.00000  Uiso   1.00
O579   O     0.95127   0.33332   0.77298   0.00000  Uiso   1.00
O580   O     0.54874   0.16668   0.22702   0.00000  Uiso   1.00
O581   O     0.66668   0.45127   0.77298   0.00000  Uiso   1.00
O582   O     0.50000   0.25000   0.75000   0.00000  Uiso   1.00
O583   O     0.83332   0.04874   0.22702   0.00000  Uiso   1.00
O584   O     0.54874   0.16668   0.77298   0.00000  Uiso   1.00
O585   O     0.95127   0.33332   0.22702   0.00000  Uiso   1.00
O586   O     0.83332   0.04874   0.77298   0.00000  Uiso   1.00
O587   O     0.66668   0.45127   0.22702   0.00000  Uiso   1.00
O588   O     0.95127   0.16668   0.22702   0.00000  Uiso   1.00
O589   O     0.54874   0.33332   0.77298   0.00000  Uiso   1.00
O590   O     0.66668   0.04874   0.22702   0.00000  Uiso   1.00
O591   O     0.83332   0.45127   0.77298   0.00000  Uiso   1.00
O592   O     0.54874   0.33332   0.22702   0.00000  Uiso   1.00
O593   O     0.75000   0.46539   0.33749   0.00000  Uiso   1.00
O594   O     0.95127   0.16668   0.77298   0.00000  Uiso   1.00
O595   O     0.83332   0.45127   0.22702   0.00000  Uiso   1.00
O596   O     0.66668   0.04874   0.77298   0.00000  Uiso   1.00
O597   O     0.95269   0.14594   0.46145   0.00000  Uiso   1.00
O598   O     0.55488   0.35204   0.53938   0.00000  Uiso   1.00
O599   O     0.85913   0.03276   0.45898   0.00000  Uiso   1.00
O600   O     0.63493   0.48267   0.54015   0.00000  Uiso   1.00
O601   O     0.55049   0.35341   0.45925   0.00000  Uiso   1.00
O602   O     0.94168   0.15220   0.54116   0.00000  Uiso   1.00
O603   O     0.63426   0.48749   0.46004   0.00000  Uiso   1.00
O604   O     0.75000   0.03462   0.66251   0.00000  Uiso   1.00
O605   O     0.86004   0.02956   0.53914   0.00000  Uiso   1.00
O606   O     0.77945   0.38930   0.95930   0.00000  Uiso   1.00
O607   O     0.72855   0.11358   0.03984   0.00000  Uiso   1.00
O608   O     0.61073   0.27915   0.95865   0.00000  Uiso   1.00
O609   O     0.88817   0.22380   0.04056   0.00000  Uiso   1.00
O610   O     0.72274   0.11208   0.96008   0.00000  Uiso   1.00
O611   O     0.77707   0.38788   0.03968   0.00000  Uiso   1.00
O612   O     0.88936   0.21810   0.96079   0.00000  Uiso   1.00
O613   O     0.61285   0.27436   0.03896   0.00000  Uiso   1.00
O614   O     0.53462   0.25000   0.33749   0.00000  Uiso   1.00
O615   O     0.96539   0.25000   0.66251   0.00000  Uiso   1.00
O616   O     0.75000   0.03462   0.33749   0.00000  Uiso   1.00
Zn617  Zn    0.70053   0.00000   0.21730   0.00000  Uiso   1.00
Zn618  Zn    0.54948   0.25000   0.28270   0.00000  Uiso   1.00
Zn619  Zn    0.75000   0.45053   0.71730   0.00000  Uiso   1.00
Zn620  Zn    0.75000   0.04948   0.28270   0.00000  Uiso   1.00
Zn621  Zn    0.54948   0.25000   0.71730   0.00000  Uiso   1.00
Zn622  Zn    0.95053   0.25000   0.28270   0.00000  Uiso   1.00
Zn623  Zn    0.75000   0.04948   0.71730   0.00000  Uiso   1.00
Zn624  Zn    0.75000   0.45053   0.28270   0.00000  Uiso   1.00
Zn625  Zn    0.79948   0.00000   0.78270   0.00000  Uiso   1.00
Zn626  Zn    0.50000   0.20052   0.21730   0.00000  Uiso   1.00
Zn627  Zn    0.50000   0.29947   0.78270   0.00000  Uiso   1.00
Zn628  Zn    0.79948   0.00000   0.21730   0.00000  Uiso   1.00
Zn629  Zn    0.70053   0.00000   0.78270   0.00000  Uiso   1.00
Zn630  Zn    0.50000   0.29947   0.21730   0.00000  Uiso   1.00
Zn631  Zn    0.50000   0.20052   0.78270   0.00000  Uiso   1.00
Zn632  Zn    0.95053   0.25000   0.71730   0.00000  Uiso   1.00
C633   C     0.24934   0.99993   0.35587   0.00000  Uiso   1.00
C634   C     0.33001   0.91998   0.75000   0.00000  Uiso   1.00
C635   C     0.42533   0.73198   0.02081   0.00000  Uiso   1.00
C636   C     0.23438   0.57573   0.97956   0.00000  Uiso   1.00
C637   C     0.26919   0.92534   0.02031   0.00000  Uiso   1.00
C638   C     0.42613   0.72829   0.98008   0.00000  Uiso   1.00
C639   C     0.07525   0.76721   0.01983   0.00000  Uiso   1.00
C640   C     0.48679   0.61735   0.46043   0.00000  Uiso   1.00
C641   C     0.47337   0.57704   0.44028   0.00000  Uiso   1.00
C642   C     0.09754   0.84410   0.54857   0.00000  Uiso   1.00
C643   C     0.12640   0.86675   0.51992   0.00000  Uiso   1.00
C644   C     0.35537   0.57428   0.44429   0.00000  Uiso   1.00
C645   C     0.41994   0.66997   0.25002   0.00000  Uiso   1.00
C646   C     0.36289   0.60669   0.47601   0.00000  Uiso   1.00
C647   C     0.11715   0.52095   0.55331   0.00000  Uiso   1.00
C648   C     0.06950   0.51672   0.55412   0.00000  Uiso   1.00
C649   C     0.01815   0.88377   0.45691   0.00000  Uiso   1.00
C650   C     0.03587   0.92386   0.43941   0.00000  Uiso   1.00
C651   C     0.40101   0.66627   0.55185   0.00000  Uiso   1.00
C652   C     0.38088   0.63408   0.57882   0.00000  Uiso   1.00
C653   C     0.12009   0.52768   0.44780   0.00000  Uiso   1.00
C654   C     0.09087   0.52296   0.41312   0.00000  Uiso   1.00
C655   C     0.38653   0.99394   0.54020   0.00000  Uiso   1.00
C656   C     0.08006   0.83003   0.74998   0.00000  Uiso   1.00
C657   C     0.42839   0.50635   0.55809   0.00000  Uiso   1.00
C658   C     0.32332   0.88309   0.95695   0.00000  Uiso   1.00
C659   C     0.33229   0.84669   0.92947   0.00000  Uiso   1.00
C660   C     0.26713   0.62978   0.05395   0.00000  Uiso   1.00
C661   C     0.26501   0.67758   0.05475   0.00000  Uiso   1.00
C662   C     0.11621   0.82314   0.95729   0.00000  Uiso   1.00
C663   C     0.15267   0.83324   0.93011   0.00000  Uiso   1.00
C664   C     0.36875   0.76206   0.05177   0.00000  Uiso   1.00
C665   C     0.33886   0.77768   0.02028   0.00000  Uiso   1.00
C666   C     0.25928   0.63375   0.94803   0.00000  Uiso   1.00
C667   C     0.33004   0.91996   0.24999   0.00000  Uiso   1.00
C668   C     0.24665   0.67539   0.92963   0.00000  Uiso   1.00
C669   C     0.23871   0.86920   0.05163   0.00000  Uiso   1.00
C670   C     0.22101   0.84086   0.01989   0.00000  Uiso   1.00
C671   C     0.38946   0.67480   0.95125   0.00000  Uiso   1.00
C672   C     0.37395   0.64810   0.98534   0.00000  Uiso   1.00
C673   C     0.13159   0.73548   0.04939   0.00000  Uiso   1.00
C674   C     0.15979   0.71891   0.01678   0.00000  Uiso   1.00
C675   C     0.16996   0.58004   0.75001   0.00000  Uiso   1.00
C676   C     0.08002   0.83006   0.24998   0.00000  Uiso   1.00
C677   C     0.41998   0.66994   0.75002   0.00000  Uiso   1.00
C678   C     0.16994   0.91997   0.75002   0.00000  Uiso   1.00
C679   C     0.33006   0.58003   0.24998   0.00000  Uiso   1.00
C680   C     0.41999   0.83002   0.75001   0.00000  Uiso   1.00
C681   C     0.24988   0.50005   0.64402   0.00000  Uiso   1.00
C682   C     0.08001   0.66998   0.25000   0.00000  Uiso   1.00
C683   C     0.33002   0.58005   0.74998   0.00000  Uiso   1.00
C684   C     0.16998   0.91995   0.25002   0.00000  Uiso   1.00
C685   C     0.08004   0.66997   0.75000   0.00000  Uiso   1.00
C686   C     0.41996   0.83003   0.25000   0.00000  Uiso   1.00
C687   C     0.13834   0.88830   0.25003   0.00000  Uiso   1.00
C688   C     0.36166   0.61170   0.74996   0.00000  Uiso   1.00
C689   C     0.11166   0.63832   0.25000   0.00000  Uiso   1.00
C690   C     0.38833   0.86167   0.75002   0.00000  Uiso   1.00
C691   C     0.36170   0.61166   0.24998   0.00000  Uiso   1.00
C692   C     0.49997   0.74987   0.35597   0.00000  Uiso   1.00
C693   C     0.13830   0.88834   0.75003   0.00000  Uiso   1.00
C694   C     0.38832   0.86167   0.25000   0.00000  Uiso   1.00
C695   C     0.11168   0.63833   0.75000   0.00000  Uiso   1.00
C696   C     0.13832   0.61167   0.75001   0.00000  Uiso   1.00
C697   C     0.36168   0.88833   0.24999   0.00000  Uiso   1.00
C698   C     0.11170   0.86166   0.74998   0.00000  Uiso   1.00
C699   C     0.38830   0.63834   0.25003   0.00000  Uiso   1.00
C700   C     0.36166   0.88832   0.75000   0.00000  Uiso   1.00
C701   C     0.13834   0.61167   0.25001   0.00000  Uiso   1.00
C702   C     0.38835   0.63830   0.75002   0.00000  Uiso   1.00
C703   C     0.00013   0.75061   0.64413   0.00000  Uiso   1.00
C704   C     0.11165   0.86170   0.24998   0.00000  Uiso   1.00
C705   C     0.01827   0.78358   0.41816   0.00000  Uiso   1.00
C706   C     0.48174   0.71790   0.58212   0.00000  Uiso   1.00
C707   C     0.21121   0.99360   0.41818   0.00000  Uiso   1.00
C708   C     0.28616   0.51016   0.58125   0.00000  Uiso   1.00
C709   C     0.48233   0.71639   0.41878   0.00000  Uiso   1.00
C710   C     0.01973   0.78380   0.58174   0.00000  Uiso   1.00
C711   C     0.28582   0.50820   0.41794   0.00000  Uiso   1.00
C712   C     0.21206   0.99231   0.58179   0.00000  Uiso   1.00
C713   C     0.23928   0.53669   0.91830   0.00000  Uiso   1.00
C714   C     0.49984   0.74997   0.85592   0.00000  Uiso   1.00
C715   C     0.26165   0.96353   0.08175   0.00000  Uiso   1.00
C716   C     0.46343   0.73883   0.91842   0.00000  Uiso   1.00
C717   C     0.03713   0.75994   0.08154   0.00000  Uiso   1.00
C718   C     0.26147   0.96375   0.91826   0.00000  Uiso   1.00
C719   C     0.24008   0.53663   0.08175   0.00000  Uiso   1.00
C720   C     0.03632   0.76092   0.91804   0.00000  Uiso   1.00
C721   C     0.46362   0.73997   0.08194   0.00000  Uiso   1.00
C722   C     0.00004   0.74999   0.39832   0.00000  Uiso   1.00
C723   C     0.00053   0.75089   0.60196   0.00000  Uiso   1.00
C724   C     0.24882   0.99993   0.39805   0.00000  Uiso   1.00
C725   C     0.00027   0.75003   0.14408   0.00000  Uiso   1.00
C726   C     0.24946   0.50035   0.60164   0.00000  Uiso   1.00
C727   C     0.24990   0.50009   0.89820   0.00000  Uiso   1.00
C728   C     0.25039   0.99993   0.10182   0.00000  Uiso   1.00
C729   C     0.49983   0.74993   0.89816   0.00000  Uiso   1.00
C730   C     0.00036   0.75007   0.10182   0.00000  Uiso   1.00
C731   C     0.48275   0.71596   0.45958   0.00000  Uiso   1.00
C732   C     0.01974   0.78426   0.54093   0.00000  Uiso   1.00
C733   C     0.28579   0.51094   0.45858   0.00000  Uiso   1.00
C734   C     0.21056   0.99524   0.54104   0.00000  Uiso   1.00
C735   C     0.01819   0.78447   0.45894   0.00000  Uiso   1.00
C736   C     0.24993   0.50004   0.85593   0.00000  Uiso   1.00
C737   C     0.48117   0.71749   0.54143   0.00000  Uiso   1.00
C738   C     0.21021   0.99596   0.45898   0.00000  Uiso   1.00
C739   C     0.28624   0.51094   0.54046   0.00000  Uiso   1.00
C740   C     0.26187   0.96332   0.95903   0.00000  Uiso   1.00
C741   C     0.24280   0.53808   0.04104   0.00000  Uiso   1.00
C742   C     0.03707   0.76046   0.95880   0.00000  Uiso   1.00
C743   C     0.46281   0.74059   0.04117   0.00000  Uiso   1.00
C744   C     0.24177   0.53796   0.95904   0.00000  Uiso   1.00
C745   C     0.26121   0.96293   0.04096   0.00000  Uiso   1.00
C746   C     0.46299   0.73874   0.95923   0.00000  Uiso   1.00
C747   C     0.25008   0.99986   0.14408   0.00000  Uiso   1.00
C748   C     0.03779   0.75909   0.04073   0.00000  Uiso   1.00
C749   C     0.00043   0.75042   0.47974   0.00000  Uiso   1.00
C750   C     0.00054   0.75069   0.52066   0.00000  Uiso   1.00
C751   C     0.24806   0.50340   0.47933   0.00000  Uiso   1.00
C752   C     0.24822   0.50341   0.52026   0.00000  Uiso   1.00
C753   C     0.25220   0.50071   0.97955   0.00000  Uiso   1.00
C754   C     0.25231   0.50064   0.02048   0.00000  Uiso   1.00
C755   C     0.00009   0.74967   0.97953   0.00000  Uiso   1.00
C756   C     0.00023   0.74980   0.02045   0.00000  Uiso   1.00
C757   C     0.46586   0.68178   0.48057   0.00000  Uiso   1.00
C758   C     0.16999   0.58002   0.25001   0.00000  Uiso   1.00
C759   C     0.03795   0.81787   0.52005   0.00000  Uiso   1.00
C760   C     0.32273   0.52165   0.47874   0.00000  Uiso   1.00
C761   C     0.17226   0.99056   0.52064   0.00000  Uiso   1.00
C762   C     0.03519   0.81892   0.47924   0.00000  Uiso   1.00
C763   C     0.46194   0.68418   0.52124   0.00000  Uiso   1.00
C764   C     0.17202   0.99181   0.47968   0.00000  Uiso   1.00
C765   C     0.32352   0.51940   0.51959   0.00000  Uiso   1.00
C766   C     0.27157   0.92612   0.97946   0.00000  Uiso   1.00
C767   C     0.23573   0.57599   0.02049   0.00000  Uiso   1.00
C768   C     0.07420   0.77030   0.97903   0.00000  Uiso   1.00
H769   H     0.03197   0.80917   0.40157   0.00000  Uiso   1.00
H770   H     0.26973   0.93556   0.09819   0.00000  Uiso   1.00
H771   H     0.43544   0.73091   0.90211   0.00000  Uiso   1.00
H772   H     0.06519   0.76774   0.09781   0.00000  Uiso   1.00
H773   H     0.26940   0.93575   0.90183   0.00000  Uiso   1.00
H774   H     0.23028   0.56394   0.09824   0.00000  Uiso   1.00
H775   H     0.06415   0.76924   0.90146   0.00000  Uiso   1.00
H776   H     0.43569   0.73209   0.09854   0.00000  Uiso   1.00
H777   H     0.49737   0.60904   0.49039   0.00000  Uiso   1.00
H778   H     0.01375   0.63084   0.44382   0.00000  Uiso   1.00
H779   H     0.44863   0.56101   0.45759   0.00000  Uiso   1.00
H780   H     0.46822   0.69228   0.59878   0.00000  Uiso   1.00
H781   H     0.46122   0.58420   0.41071   0.00000  Uiso   1.00
H782   H     0.00073   0.55551   0.43760   0.00000  Uiso   1.00
H783   H     0.10608   0.81004   0.54988   0.00000  Uiso   1.00
H784   H     0.10350   0.85703   0.57806   0.00000  Uiso   1.00
H785   H     0.11672   0.90016   0.51691   0.00000  Uiso   1.00
H786   H     0.15930   0.86553   0.53060   0.00000  Uiso   1.00
H787   H     0.12520   0.85132   0.49100   0.00000  Uiso   1.00
H788   H     0.32459   0.58079   0.43015   0.00000  Uiso   1.00
H789   H     0.37967   0.57856   0.42139   0.00000  Uiso   1.00
H790   H     0.39209   0.59888   0.49205   0.00000  Uiso   1.00
H791   H     0.18289   0.98730   0.40180   0.00000  Uiso   1.00
H792   H     0.36595   0.63834   0.46263   0.00000  Uiso   1.00
H793   H     0.33606   0.60725   0.49674   0.00000  Uiso   1.00
H794   H     0.12531   0.54859   0.53474   0.00000  Uiso   1.00
H795   H     0.12799   0.52765   0.58336   0.00000  Uiso   1.00
H796   H     0.06018   0.99083   0.57408   0.00000  Uiso   1.00
H797   H     0.05505   0.54650   0.56447   0.00000  Uiso   1.00
H798   H     0.05760   0.50974   0.52446   0.00000  Uiso   1.00
H799   H     0.00515   0.89162   0.48621   0.00000  Uiso   1.00
H800   H     0.49226   0.87238   0.43791   0.00000  Uiso   1.00
H801   H     0.04879   0.91754   0.40991   0.00000  Uiso   1.00
H802   H     0.31467   0.51653   0.59740   0.00000  Uiso   1.00
H803   H     0.01060   0.94787   0.43713   0.00000  Uiso   1.00
H804   H     0.06129   0.93617   0.45831   0.00000  Uiso   1.00
H805   H     0.38104   0.67034   0.52566   0.00000  Uiso   1.00
H806   H     0.40157   0.69685   0.56757   0.00000  Uiso   1.00
H807   H     0.39917   0.63168   0.60624   0.00000  Uiso   1.00
H808   H     0.34818   0.64375   0.58589   0.00000  Uiso   1.00
H809   H     0.38026   0.60285   0.56463   0.00000  Uiso   1.00
H810   H     0.14610   0.54912   0.43877   0.00000  Uiso   1.00
H811   H     0.10219   0.54300   0.47163   0.00000  Uiso   1.00
H812   H     0.08125   0.55450   0.40242   0.00000  Uiso   1.00
H813   H     0.46857   0.69057   0.40270   0.00000  Uiso   1.00
H814   H     0.10703   0.50588   0.38919   0.00000  Uiso   1.00
H815   H     0.06226   0.50548   0.42181   0.00000  Uiso   1.00
H816   H     0.39291   0.98142   0.51047   0.00000  Uiso   1.00
H817   H     0.37219   0.96872   0.55841   0.00000  Uiso   1.00
H818   H     0.42339   0.51835   0.58810   0.00000  Uiso   1.00
H819   H     0.44961   0.97861   0.55925   0.00000  Uiso   1.00
H820   H     0.44348   0.53128   0.54020   0.00000  Uiso   1.00
H821   H     0.33635   0.87512   0.98609   0.00000  Uiso   1.00
H822   H     0.33963   0.91149   0.94531   0.00000  Uiso   1.00
H823   H     0.32155   0.85478   0.89963   0.00000  Uiso   1.00
H824   H     0.03394   0.80918   0.59805   0.00000  Uiso   1.00
H825   H     0.36657   0.84009   0.92869   0.00000  Uiso   1.00
H826   H     0.31546   0.81807   0.93948   0.00000  Uiso   1.00
H827   H     0.29493   0.62040   0.03608   0.00000  Uiso   1.00
H828   H     0.27263   0.61874   0.08417   0.00000  Uiso   1.00
H829   H     0.23920   0.68806   0.07432   0.00000  Uiso   1.00
H830   H     0.29518   0.69043   0.06567   0.00000  Uiso   1.00
H831   H     0.25934   0.69007   0.02502   0.00000  Uiso   1.00
H832   H     0.12372   0.83559   0.98672   0.00000  Uiso   1.00
H833   H     0.08761   0.83932   0.94592   0.00000  Uiso   1.00
H834   H     0.14510   0.82295   0.90005   0.00000  Uiso   1.00
H835   H     0.31456   0.51260   0.40138   0.00000  Uiso   1.00
H836   H     0.15855   0.86765   0.92996   0.00000  Uiso   1.00
H837   H     0.18155   0.81672   0.93995   0.00000  Uiso   1.00
H838   H     0.39149   0.78740   0.05935   0.00000  Uiso   1.00
H839   H     0.35001   0.75587   0.07849   0.00000  Uiso   1.00
H840   H     0.31665   0.75237   0.01193   0.00000  Uiso   1.00
H841   H     0.32069   0.80502   0.03134   0.00000  Uiso   1.00
H842   H     0.35699   0.78782   0.99430   0.00000  Uiso   1.00
H843   H     0.27743   0.61529   0.92620   0.00000  Uiso   1.00
H844   H     0.28007   0.64069   0.97301   0.00000  Uiso   1.00
H845   H     0.22896   0.69477   0.95103   0.00000  Uiso   1.00
H846   H     0.18421   0.98442   0.59846   0.00000  Uiso   1.00
H847   H     0.27519   0.69284   0.92036   0.00000  Uiso   1.00
H848   H     0.22655   0.66971   0.90380   0.00000  Uiso   1.00
H849   H     0.21434   0.89244   0.06081   0.00000  Uiso   1.00
H850   H     0.24536   0.84936   0.07753   0.00000  Uiso   1.00
H851   H     0.24544   0.81853   0.00951   0.00000  Uiso   1.00
H852   H     0.19400   0.82271   0.03161   0.00000  Uiso   1.00
H853   H     0.20979   0.86020   0.99511   0.00000  Uiso   1.00
H854   H     0.42070   0.66317   0.94104   0.00000  Uiso   1.00
H855   H     0.36735   0.67034   0.92664   0.00000  Uiso   1.00
H856   H     0.34561   0.66273   0.99851   0.00000  Uiso   1.00
H857   H     0.23007   0.56428   0.90182   0.00000  Uiso   1.00
H858   H     0.36594   0.61604   0.97503   0.00000  Uiso   1.00
H859   H     0.39880   0.64540   0.00782   0.00000  Uiso   1.00
H860   H     0.10837   0.71088   0.05798   0.00000  Uiso   1.00
H861   H     0.15158   0.74100   0.07533   0.00000  Uiso   1.00
H862   H     0.18292   0.74327   0.00795   0.00000  Uiso   1.00
H863   H     0.17695   0.69061   0.02706   0.00000  Uiso   1.00
H864   H     0.14066   0.70971   0.99123   0.00000  Uiso   1.00
O865   O     0.25000   0.50000   0.25000   0.00000  Uiso   1.00
O866   O     0.25000   0.96539   0.66251   0.00000  Uiso   1.00
O867   O     0.46539   0.75000   0.33749   0.00000  Uiso   1.00
O868   O     0.03462   0.75000   0.66251   0.00000  Uiso   1.00
O869   O     0.00000   0.71538   0.83749   0.00000  Uiso   1.00
O870   O     0.00000   0.78461   0.16251   0.00000  Uiso   1.00
O871   O     0.28462   0.50000   0.83749   0.00000  Uiso   1.00
O872   O     0.21539   0.50000   0.16251   0.00000  Uiso   1.00
O873   O     0.00000   0.78461   0.83749   0.00000  Uiso   1.00
O874   O     0.00000   0.71538   0.16251   0.00000  Uiso   1.00
O875   O     0.21539   0.50000   0.83749   0.00000  Uiso   1.00
O876   O     0.25000   0.50000   0.75000   0.00000  Uiso   1.00
O877   O     0.28462   0.50000   0.16251   0.00000  Uiso   1.00
O878   O     0.20127   0.58332   0.27298   0.00000  Uiso   1.00
O879   O     0.29874   0.91668   0.72702   0.00000  Uiso   1.00
O880   O     0.41668   0.70127   0.27298   0.00000  Uiso   1.00
O881   O     0.08332   0.79874   0.72702   0.00000  Uiso   1.00
O882   O     0.29874   0.91668   0.27298   0.00000  Uiso   1.00
O883   O     0.20127   0.58332   0.72702   0.00000  Uiso   1.00
O884   O     0.08332   0.79874   0.27298   0.00000  Uiso   1.00
O885   O     0.41668   0.70127   0.72702   0.00000  Uiso   1.00
O886   O     0.20127   0.91668   0.72702   0.00000  Uiso   1.00
O887   O     0.00000   0.75000   0.25000   0.00000  Uiso   1.00
O888   O     0.29874   0.58332   0.27298   0.00000  Uiso   1.00
O889   O     0.41668   0.79874   0.72702   0.00000  Uiso   1.00
O890   O     0.08332   0.70127   0.27298   0.00000  Uiso   1.00
O891   O     0.29874   0.58332   0.72702   0.00000  Uiso   1.00
O892   O     0.20127   0.91668   0.27298   0.00000  Uiso   1.00
O893   O     0.08332   0.70127   0.72702   0.00000  Uiso   1.00
O894   O     0.41668   0.79874   0.27298   0.00000  Uiso   1.00
O895   O     0.45127   0.83332   0.77298   0.00000  Uiso   1.00
O896   O     0.04874   0.66668   0.22702   0.00000  Uiso   1.00
O897   O     0.16668   0.95127   0.77298   0.00000  Uiso   1.00
O898   O     0.00000   0.75000   0.75000   0.00000  Uiso   1.00
O899   O     0.33332   0.54874   0.22702   0.00000  Uiso   1.00
O900   O     0.04874   0.66668   0.77298   0.00000  Uiso   1.00
O901   O     0.45127   0.83332   0.22702   0.00000  Uiso   1.00
O902   O     0.33332   0.54874   0.77298   0.00000  Uiso   1.00
O903   O     0.16668   0.95127   0.22702   0.00000  Uiso   1.00
O904   O     0.45127   0.66668   0.22702   0.00000  Uiso   1.00
O905   O     0.04874   0.83332   0.77298   0.00000  Uiso   1.00
O906   O     0.16668   0.54874   0.22702   0.00000  Uiso   1.00
O907   O     0.33332   0.95127   0.77298   0.00000  Uiso   1.00
O908   O     0.04874   0.83332   0.22702   0.00000  Uiso   1.00
O909   O     0.25000   0.96539   0.33749   0.00000  Uiso   1.00
O910   O     0.45127   0.66668   0.77298   0.00000  Uiso   1.00
O911   O     0.33332   0.95127   0.22702   0.00000  Uiso   1.00
O912   O     0.16668   0.54874   0.77298   0.00000  Uiso   1.00
O913   O     0.45269   0.64594   0.46145   0.00000  Uiso   1.00
O914   O     0.05488   0.85204   0.53938   0.00000  Uiso   1.00
O915   O     0.35913   0.53276   0.45898   0.00000  Uiso   1.00
O916   O     0.13493   0.98267   0.54015   0.00000  Uiso   1.00
O917   O     0.05049   0.85341   0.45925   0.00000  Uiso   1.00
O918   O     0.44168   0.65220   0.54116   0.00000  Uiso   1.00
O919   O     0.13426   0.98749   0.46004   0.00000  Uiso   1.00
O920   O     0.25000   0.53462   0.66251   0.00000  Uiso   1.00
O921   O     0.36004   0.52956   0.53914   0.00000  Uiso   1.00
O922   O     0.27945   0.88930   0.95930   0.00000  Uiso   1.00
O923   O     0.22855   0.61358   0.03984   0.00000  Uiso   1.00
O924   O     0.11073   0.77915   0.95865   0.00000  Uiso   1.00
O925   O     0.38817   0.72380   0.04056   0.00000  Uiso   1.00
O926   O     0.22274   0.61208   0.96008   0.00000  Uiso   1.00
O927   O     0.27707   0.88788   0.03968   0.00000  Uiso   1.00
O928   O     0.38936   0.71810   0.96079   0.00000  Uiso   1.00
O929   O     0.11285   0.77436   0.03896   0.00000  Uiso   1.00
O930   O     0.03462   0.75000   0.33749   0.00000  Uiso   1.00
O931   O     0.46539   0.75000   0.66251   0.00000  Uiso   1.00
O932   O     0.25000   0.53462   0.33749   0.00000  Uiso   1.00
Zn933  Zn    0.20053   0.50000   0.21730   0.00000  Uiso   1.00
Zn934  Zn    0.04948   0.75000   0.28270   0.00000  Uiso   1.00
Zn935  Zn    0.25000   0.95053   0.71730   0.00000  Uiso   1.00
Zn936  Zn    0.25000   0.54948   0.28270   0.00000  Uiso   1.00
Zn937  Zn    0.04948   0.75000   0.71730   0.00000  Uiso   1.00
Zn938  Zn    0.45053   0.75000   0.28270   0.00000  Uiso   1.00
Zn939  Zn    0.25000   0.54948   0.71730   0.00000  Uiso   1.00
Zn940  Zn    0.25000   0.95053   0.28270   0.00000  Uiso   1.00
Zn941  Zn    0.29948   0.50000   0.78270   0.00000  Uiso   1.00
Zn942  Zn    0.00000   0.70052   0.21730   0.00000  Uiso   1.00
Zn943  Zn    0.00000   0.79947   0.78270   0.00000  Uiso   1.00
Zn944  Zn    0.29948   0.50000   0.21730   0.00000  Uiso   1.00
Zn945  Zn    0.20053   0.50000   0.78270   0.00000  Uiso   1.00
Zn946  Zn    0.00000   0.79947   0.21730   0.00000  Uiso   1.00
Zn947  Zn    0.00000   0.70052   0.78270   0.00000  Uiso   1.00
Zn948  Zn    0.45053   0.75000   0.71730   0.00000  Uiso   1.00
C949   C     0.74934   0.99993   0.35587   0.00000  Uiso   1.00
C950   C     0.83001   0.91998   0.75000   0.00000  Uiso   1.00
C951   C     0.92533   0.73198   0.02081   0.00000  Uiso   1.00
C952   C     0.73438   0.57573   0.97956   0.00000  Uiso   1.00
C953   C     0.76919   0.92534   0.02031   0.00000  Uiso   1.00
C954   C     0.92613   0.72829   0.98008   0.00000  Uiso   1.00
C955   C     0.57525   0.76721   0.01983   0.00000  Uiso   1.00
C956   C     0.98679   0.61735   0.46043   0.00000  Uiso   1.00
C957   C     0.97337   0.57704   0.44028   0.00000  Uiso   1.00
C958   C     0.59754   0.84410   0.54857   0.00000  Uiso   1.00
C959   C     0.62640   0.86675   0.51992   0.00000  Uiso   1.00
C960   C     0.85537   0.57428   0.44429   0.00000  Uiso   1.00
C961   C     0.91994   0.66997   0.25002   0.00000  Uiso   1.00
C962   C     0.86289   0.60669   0.47601   0.00000  Uiso   1.00
C963   C     0.61715   0.52095   0.55331   0.00000  Uiso   1.00
C964   C     0.56950   0.51672   0.55412   0.00000  Uiso   1.00
C965   C     0.51815   0.88377   0.45691   0.00000  Uiso   1.00
C966   C     0.53587   0.92386   0.43941   0.00000  Uiso   1.00
C967   C     0.90101   0.66627   0.55185   0.00000  Uiso   1.00
C968   C     0.88088   0.63408   0.57882   0.00000  Uiso   1.00
C969   C     0.62009   0.52768   0.44780   0.00000  Uiso   1.00
C970   C     0.59087   0.52296   0.41312   0.00000  Uiso   1.00
C971   C     0.88653   0.99394   0.54020   0.00000  Uiso   1.00
C972   C     0.58006   0.83003   0.74998   0.00000  Uiso   1.00
C973   C     0.92839   0.50635   0.55809   0.00000  Uiso   1.00
C974   C     0.82332   0.88309   0.95695   0.00000  Uiso   1.00
C975   C     0.83229   0.84669   0.92947   0.00000  Uiso   1.00
C976   C     0.76713   0.62978   0.05395   0.00000  Uiso   1.00
C977   C     0.76501   0.67758   0.05475   0.00000  Uiso   1.00
C978   C     0.61621   0.82314   0.95729   0.00000  Uiso   1.00
C979   C     0.65267   0.83324   0.93011   0.00000  Uiso   1.00
C980   C     0.86875   0.76206   0.05177   0.00000  Uiso   1.00
C981   C     0.83886   0.77768   0.02028   0.00000  Uiso   1.00
C982   C     0.75928   0.63375   0.94803   0.00000  Uiso   1.00
C983   C     0.83004   0.91996   0.24999   0.00000  Uiso   1.00
C984   C     0.74665   0.67539   0.92963   0.00000  Uiso   1.00
C985   C     0.73871   0.86920   0.05163   0.00000  Uiso   1.00
C986   C     0.72101   0.84086   0.01989   0.00000  Uiso   1.00
C987   C     0.88946   0.67480   0.95125   0.00000  Uiso   1.00
C988   C     0.87395   0.64810   0.98534   0.00000  Uiso   1.00
C989   C     0.63159   0.73548   0.04939   0.00000  Uiso   1.00
C990   C     0.65979   0.71891   0.01678   0.00000  Uiso   1.00
C991   C     0.66996   0.58004   0.75001   0.00000  Uiso   1.00
C992   C     0.58002   0.83006   0.24998   0.00000  Uiso   1.00
C993   C     0.91998   0.66994   0.75002   0.00000  Uiso   1.00
C994   C     0.66994   0.91997   0.75002   0.00000  Uiso   1.00
C995   C     0.83006   0.58003   0.24998   0.00000  Uiso   1.00
C996   C     0.91999   0.83002   0.75001   0.00000  Uiso   1.00
C997   C     0.74988   0.50005   0.64402   0.00000  Uiso   1.00
C998   C     0.58001   0.66998   0.25000   0.00000  Uiso   1.00
C999   C     0.83002   0.58005   0.74998   0.00000  Uiso   1.00
C1000  C     0.66998   0.91995   0.25002   0.00000  Uiso   1.00
C1001  C     0.58004   0.66997   0.75000   0.00000  Uiso   1.00
C1002  C     0.91996   0.83003   0.25000   0.00000  Uiso   1.00
C1003  C     0.63834   0.88830   0.25003   0.00000  Uiso   1.00
C1004  C     0.86166   0.61170   0.74996   0.00000  Uiso   1.00
C1005  C     0.61166   0.63832   0.25000   0.00000  Uiso   1.00
C1006  C     0.88833   0.86167   0.75002   0.00000  Uiso   1.00
C1007  C     0.86170   0.61166   0.24998   0.00000  Uiso   1.00
C1008  C     0.99997   0.74987   0.35597   0.00000  Uiso   1.00
C1009  C     0.63830   0.88834   0.75003   0.00000  Uiso   1.00
C1010  C     0.88832   0.86167   0.25000   0.00000  Uiso   1.00
C1011  C     0.61168   0.63833   0.75000   0.00000  Uiso   1.00
C1012  C     0.63832   0.61167   0.75001   0.00000  Uiso   1.00
C1013  C     0.86168   0.88833   0.24999   0.00000  Uiso   1.00
C1014  C     0.61170   0.86166   0.74998   0.00000  Uiso   1.00
C1015  C     0.88830   0.63834   0.25003   0.00000  Uiso   1.00
C1016  C     0.86166   0.88832   0.75000   0.00000  Uiso   1.00
C1017  C     0.63834   0.61167   0.25001   0.00000  Uiso   1.00
C1018  C     0.88835   0.63830   0.75002   0.00000  Uiso   1.00
C1019  C     0.50013   0.75061   0.64413   0.00000  Uiso   1.00
C1020  C     0.61165   0.86170   0.24998   0.00000  Uiso   1.00
C1021  C     0.51827   0.78358   0.41816   0.00000  Uiso   1.00
C1022  C     0.98174   0.71790   0.58212   0.00000  Uiso   1.00
C1023  C     0.71121   0.99360   0.41818   0.00000  Uiso   1.00
C1024  C     0.78616   0.51016   0.58125   0.00000  Uiso   1.00
C1025  C     0.98233   0.71639   0.41878   0.00000  Uiso   1.00
C1026  C     0.51973   0.78380   0.58174   0.00000  Uiso   1.00
C1027  C     0.78582   0.50820   0.41794   0.00000  Uiso   1.00
C1028  C     0.71206   0.99231   0.58179   0.00000  Uiso   1.00
C1029  C     0.73928   0.53669   0.91830   0.00000  Uiso   1.00
C1030  C     0.99984   0.74997   0.85592   0.00000  Uiso   1.00
C1031  C     0.76165   0.96353   0.08175   0.00000  Uiso   1.00
C1032  C     0.96343   0.73883   0.91842   0.00000  Uiso   1.00
C1033  C     0.53713   0.75994   0.08154   0.00000  Uiso   1.00
C1034  C     0.76147   0.96375   0.91826   0.00000  Uiso   1.00
C1035  C     0.74008   0.53663   0.08175   0.00000  Uiso   1.00
C1036  C     0.53632   0.76092   0.91804   0.00000  Uiso   1.00
C1037  C     0.96362   0.73997   0.08194   0.00000  Uiso   1.00
C1038  C     0.50004   0.74999   0.39832   0.00000  Uiso   1.00
C1039  C     0.50053   0.75089   0.60196   0.00000  Uiso   1.00
C1040  C     0.74882   0.99993   0.39805   0.00000  Uiso   1.00
C1041  C     0.50027   0.75003   0.14408   0.00000  Uiso   1.00
C1042  C     0.74946   0.50035   0.60164   0.00000  Uiso   1.00
C1043  C     0.74990   0.50009   0.89820   0.00000  Uiso   1.00
C1044  C     0.75039   0.99993   0.10182   0.00000  Uiso   1.00
C1045  C     0.99983   0.74993   0.89816   0.00000  Uiso   1.00
C1046  C     0.50036   0.75007   0.10182   0.00000  Uiso   1.00
C1047  C     0.98275   0.71596   0.45958   0.00000  Uiso   1.00
C1048  C     0.51974   0.78426   0.54093   0.00000  Uiso   1.00
C1049  C     0.78579   0.51094   0.45858   0.00000  Uiso   1.00
C1050  C     0.71056   0.99524   0.54104   0.00000  Uiso   1.00
C1051  C     0.51819   0.78447   0.45894   0.00000  Uiso   1.00
C1052  C     0.74993   0.50004   0.85593   0.00000  Uiso   1.00
C1053  C     0.98117   0.71749   0.54143   0.00000  Uiso   1.00
C1054  C     0.71021   0.99596   0.45898   0.00000  Uiso   1.00
C1055  C     0.78624   0.51094   0.54046   0.00000  Uiso   1.00
C1056  C     0.76187   0.96332   0.95903   0.00000  Uiso   1.00
C1057  C     0.74280   0.53808   0.04104   0.00000  Uiso   1.00
C1058  C     0.53707   0.76046   0.95880   0.00000  Uiso   1.00
C1059  C     0.96281   0.74059   0.04117   0.00000  Uiso   1.00
C1060  C     0.74177   0.53796   0.95904   0.00000  Uiso   1.00
C1061  C     0.76121   0.96293   0.04096   0.00000  Uiso   1.00
C1062  C     0.96299   0.73874   0.95923   0.00000  Uiso   1.00
C1063  C     0.75008   0.99986   0.14408   0.00000  Uiso   1.00
C1064  C     0.53779   0.75909   0.04073   0.00000  Uiso   1.00
C1065  C     0.50043   0.75042   0.47974   0.00000  Uiso   1.00
C1066  C     0.50054   0.75069   0.52066   0.00000  Uiso   1.00
C1067  C     0.74806   0.50340   0.47933   0.00000  Uiso   1.00
C1068  C     0.74822   0.50341   0.52026   0.00000  Uiso   1.00
C1069  C     0.75220   0.50071   0.97955   0.00000  Uiso   1.00
C1070  C     0.75231   0.50064   0.02048   0.00000  Uiso   1.00
C1071  C     0.50009   0.74967   0.97953   0.00000  Uiso   1.00
C1072  C     0.50023   0.74980   0.02045   0.00000  Uiso   1.00
C1073  C     0.96586   0.68178   0.48057   0.00000  Uiso   1.00
C1074  C     0.66999   0.58002   0.25001   0.00000  Uiso   1.00
C1075  C     0.53795   0.81787   0.52005   0.00000  Uiso   1.00
C1076  C     0.82273   0.52165   0.47874   0.00000  Uiso   1.00
C1077  C     0.67226   0.99056   0.52064   0.00000  Uiso   1.00
C1078  C     0.53519   0.81892   0.47924   0.00000  Uiso   1.00
C1079  C     0.96194   0.68418   0.52124   0.00000  Uiso   1.00
C1080  C     0.67202   0.99181   0.47968   0.00000  Uiso   1.00
C1081  C     0.82352   0.51940   0.51959   0.00000  Uiso   1.00
C1082  C     0.77157   0.92612   0.97946   0.00000  Uiso   1.00
C1083  C     0.73573   0.57599   0.02049   0.00000  Uiso   1.00
C1084  C     0.57420   0.77030   0.97903   0.00000  Uiso   1.00
H1085  H     0.53197   0.80917   0.40157   0.00000  Uiso   1.00
H1086  H     0.76973   0.93556   0.09819   0.00000  Uiso   1.00
H1087  H     0.93544   0.73091   0.90211   0.00000  Uiso   1.00
H1088  H     0.56519   0.76774   0.09781   0.00000  Uiso   1.00
H1089  H     0.76940   0.93575   0.90183   0.00000  Uiso   1.00
H1090  H     0.73028   0.56394   0.09824   0.00000  Uiso   1.00
H1091  H     0.56415   0.76924   0.90146   0.00000  Uiso   1.00
H1092  H     0.93569   0.73209   0.09854   0.00000  Uiso   1.00
H1093  H     0.99737   0.60904   0.49039   0.00000  Uiso   1.00
H1094  H     0.51375   0.63084   0.44382   0.00000  Uiso   1.00
H1095  H     0.94863   0.56101   0.45759   0.00000  Uiso   1.00
H1096  H     0.96822   0.69228   0.59878   0.00000  Uiso   1.00
H1097  H     0.96122   0.58420   0.41071   0.00000  Uiso   1.00
H1098  H     0.50073   0.55551   0.43760   0.00000  Uiso   1.00
H1099  H     0.60608   0.81004   0.54988   0.00000  Uiso   1.00
H1100  H     0.60350   0.85703   0.57806   0.00000  Uiso   1.00
H1101  H     0.61672   0.90016   0.51691   0.00000  Uiso   1.00
H1102  H     0.65930   0.86553   0.53060   0.00000  Uiso   1.00
H1103  H     0.62520   0.85132   0.49100   0.00000  Uiso   1.00
H1104  H     0.82459   0.58079   0.43015   0.00000  Uiso   1.00
H1105  H     0.87967   0.57856   0.42139   0.00000  Uiso   1.00
H1106  H     0.89209   0.59888   0.49205   0.00000  Uiso   1.00
H1107  H     0.68289   0.98730   0.40180   0.00000  Uiso   1.00
H1108  H     0.86595   0.63834   0.46263   0.00000  Uiso   1.00
H1109  H     0.83606   0.60725   0.49674   0.00000  Uiso   1.00
H1110  H     0.62531   0.54859   0.53474   0.00000  Uiso   1.00
H1111  H     0.62799   0.52765   0.58336   0.00000  Uiso   1.00
H1112  H     0.56018   0.99083   0.57408   0.00000  Uiso   1.00
H1113  H     0.55505   0.54650   0.56447   0.00000  Uiso   1.00
H1114  H     0.55760   0.50974   0.52446   0.00000  Uiso   1.00
H1115  H     0.50515   0.89162   0.48621   0.00000  Uiso   1.00
H1116  H     0.99226   0.87238   0.43791   0.00000  Uiso   1.00
H1117  H     0.54879   0.91754   0.40991   0.00000  Uiso   1.00
H1118  H     0.81467   0.51653   0.59740   0.00000  Uiso   1.00
H1119  H     0.51060   0.94787   0.43713   0.00000  Uiso   1.00
H1120  H     0.56129   0.93617   0.45831   0.00000  Uiso   1.00
H1121  H     0.88104   0.67034   0.52566   0.00000  Uiso   1.00
H1122  H     0.90157   0.69685   0.56757   0.00000  Uiso   1.00
H1123  H     0.89917   0.63168   0.60624   0.00000  Uiso   1.00
H1124  H     0.84818   0.64375   0.58589   0.00000  Uiso   1.00
H1125  H     0.88026   0.60285   0.56463   0.00000  Uiso   1.00
H1126  H     0.64610   0.54912   0.43877   0.00000  Uiso   1.00
H1127  H     0.60219   0.54300   0.47163   0.00000  Uiso   1.00
H1128  H     0.58125   0.55450   0.40242   0.00000  Uiso   1.00
H1129  H     0.96857   0.69057   0.40270   0.00000  Uiso   1.00
H1130  H     0.60703   0.50588   0.38919   0.00000  Uiso   1.00
H1131  H     0.56226   0.50548   0.42181   0.00000  Uiso   1.00
H1132  H     0.89291   0.98142   0.51047   0.00000  Uiso   1.00
H1133  H     0.87219   0.96872   0.55841   0.00000  Uiso   1.00
H1134  H     0.92339   0.51835   0.58810   0.00000  Uiso   1.00
H1135  H     0.94961   0.97861   0.55925   0.00000  Uiso   1.00
H1136  H     0.94348   0.53128   0.54020   0.00000  Uiso   1.00
H1137  H     0.83635   0.87512   0.98609   0.00000  Uiso   1.00
H1138  H     0.83963   0.91149   0.94531   0.00000  Uiso   1.00
H1139  H     0.82155   0.85478   0.89963   0.00000  Uiso   1.00
H1140  H     0.53394   0.80918   0.59805   0.00000  Uiso   1.00
H1141  H     0.86657   0.84009   0.92869   0.00000  Uiso   1.00
H1142  H     0.81546   0.81807   0.93948   0.00000  Uiso   1.00
H1143  H     0.79493   0.62040   0.03608   0.00000  Uiso   1.00
H1144  H     0.77263   0.61874   0.08417   0.00000  Uiso   1.00
H1145  H     0.73920   0.68806   0.07432   0.00000  Uiso   1.00
H1146  H     0.79518   0.69043   0.06567   0.00000  Uiso   1.00
H1147  H     0.75934   0.69007   0.02502   0.00000  Uiso   1.00
H1148  H     0.62372   0.83559   0.98672   0.00000  Uiso   1.00
H1149  H     0.58761   0.83932   0.94592   0.00000  Uiso   1.00
H1150  H     0.64510   0.82295   0.90005   0.00000  Uiso   1.00
H1151  H     0.81456   0.51260   0.40138   0.00000  Uiso   1.00
H1152  H     0.65855   0.86765   0.92996   0.00000  Uiso   1.00
H1153  H     0.68155   0.81672   0.93995   0.00000  Uiso   1.00
H1154  H     0.89149   0.78740   0.05935   0.00000  Uiso   1.00
H1155  H     0.85001   0.75587   0.07849   0.00000  Uiso   1.00
H1156  H     0.81665   0.75237   0.01193   0.00000  Uiso   1.00
H1157  H     0.82069   0.80502   0.03134   0.00000  Uiso   1.00
H1158  H     0.85699   0.78782   0.99430   0.00000  Uiso   1.00
H1159  H     0.77743   0.61529   0.92620   0.00000  Uiso   1.00
H1160  H     0.78007   0.64069   0.97301   0.00000  Uiso   1.00
H1161  H     0.72896   0.69477   0.95103   0.00000  Uiso   1.00
H1162  H     0.68421   0.98442   0.59846   0.00000  Uiso   1.00
H1163  H     0.77519   0.69284   0.92036   0.00000  Uiso   1.00
H1164  H     0.72655   0.66971   0.90380   0.00000  Uiso   1.00
H1165  H     0.71434   0.89244   0.06081   0.00000  Uiso   1.00
H1166  H     0.74536   0.84936   0.07753   0.00000  Uiso   1.00
H1167  H     0.74544   0.81853   0.00951   0.00000  Uiso   1.00
H1168  H     0.69400   0.82271   0.03161   0.00000  Uiso   1.00
H1169  H     0.70979   0.86020   0.99511   0.00000  Uiso   1.00
H1170  H     0.92070   0.66317   0.94104   0.00000  Uiso   1.00
H1171  H     0.86735   0.67034   0.92664   0.00000  Uiso   1.00
H1172  H     0.84561   0.66273   0.99851   0.00000  Uiso   1.00
H1173  H     0.73007   0.56428   0.90182   0.00000  Uiso   1.00
H1174  H     0.86594   0.61604   0.97503   0.00000  Uiso   1.00
H1175  H     0.89880   0.64540   0.00782   0.00000  Uiso   1.00
H1176  H     0.60837   0.71088   0.05798   0.00000  Uiso   1.00
H1177  H     0.65158   0.74100   0.07533   0.00000  Uiso   1.00
H1178  H     0.68292   0.74327   0.00795   0.00000  Uiso   1.00
H1179  H     0.67695   0.69061   0.02706   0.00000  Uiso   1.00
H1180  H     0.64066   0.70971   0.99123   0.00000  Uiso   1.00
O1181  O     0.75000   0.50000   0.25000   0.00000  Uiso   1.00
O1182  O     0.75000   0.96539   0.66251   0.00000  Uiso   1.00
O1183  O     0.96539   0.75000   0.33749   0.00000  Uiso   1.00
O1184  O     0.53462   0.75000   0.66251   0.00000  Uiso   1.00
O1185  O     0.50000   0.71538   0.83749   0.00000  Uiso   1.00
O1186  O     0.50000   0.78461   0.16251   0.00000  Uiso   1.00
O1187  O     0.78462   0.50000   0.83749   0.00000  Uiso   1.00
O1188  O     0.71539   0.50000   0.16251   0.00000  Uiso   1.00
O1189  O     0.50000   0.78461   0.83749   0.00000  Uiso   1.00
O1190  O     0.50000   0.71538   0.16251   0.00000  Uiso   1.00
O1191  O     0.71539   0.50000   0.83749   0.00000  Uiso   1.00
O1192  O     0.75000   0.50000   0.75000   0.00000  Uiso   1.00
O1193  O     0.78462   0.50000   0.16251   0.00000  Uiso   1.00
O1194  O     0.70127   0.58332   0.27298   0.00000  Uiso   1.00
O1195  O     0.79874   0.91668   0.72702   0.00000  Uiso   1.00
O1196  O     0.91668   0.70127   0.27298   0.00000  Uiso   1.00
O1197  O     0.58332   0.79874   0.72702   0.00000  Uiso   1.00
O1198  O     0.79874   0.91668   0.27298   0.00000  Uiso   1.00
O1199  O     0.70127   0.58332   0.72702   0.00000  Uiso   1.00
O1200  O     0.58332   0.79874   0.27298   0.00000  Uiso   1.00
O1201  O     0.91668   0.70127   0.72702   0.00000  Uiso   1.00
O1202  O     0.70127   0.91668   0.72702   0.00000  Uiso   1.00
O1203  O     0.50000   0.75000   0.25000   0.00000  Uiso   1.00
O1204  O     0.79874   0.58332   0.27298   0.00000  Uiso   1.00
O1205  O     0.91668   0.79874   0.72702   0.00000  Uiso   1.00
O1206  O     0.58332   0.70127   0.27298   0.00000  Uiso   1.00
O1207  O     0.79874   0.58332   0.72702   0.00000  Uiso   1.00
O1208  O     0.70127   0.91668   0.27298   0.00000  Uiso   1.00
O1209  O     0.58332   0.70127   0.72702   0.00000  Uiso   1.00
O1210  O     0.91668   0.79874   0.27298   0.00000  Uiso   1.00
O1211  O     0.95127   0.83332   0.77298   0.00000  Uiso   1.00
O1212  O     0.54874   0.66668   0.22702   0.00000  Uiso   1.00
O1213  O     0.66668   0.95127   0.77298   0.00000  Uiso   1.00
O1214  O     0.50000   0.75000   0.75000   0.00000  Uiso   1.00
O1215  O     0.83332   0.54874   0.22702   0.00000  Uiso   1.00
O1216  O     0.54874   0.66668   0.77298   0.00000  Uiso   1.00
O1217  O     0.95127   0.83332   0.22702   0.00000  Uiso   1.00
O1218  O     0.83332   0.54874   0.77298   0.00000  Uiso   1.00
O1219  O     0.66668   0.95127   0.22702   0.00000  Uiso   1.00
O1220  O     0.95127   0.66668   0.22702   0.00000  Uiso   1.00
O1221  O     0.54874   0.83332   0.77298   0.00000  Uiso   1.00
O1222  O     0.66668   0.54874   0.22702   0.00000  Uiso   1.00
O1223  O     0.83332   0.95127   0.77298   0.00000  Uiso   1.00
O1224  O     0.54874   0.83332   0.22702   0.00000  Uiso   1.00
O1225  O     0.75000   0.96539   0.33749   0.00000  Uiso   1.00
O1226  O     0.95127   0.66668   0.77298   0.00000  Uiso   1.00
O1227  O     0.83332   0.95127   0.22702   0.00000  Uiso   1.00
O1228  O     0.66668   0.54874   0.77298   0.00000  Uiso   1.00
O1229  O     0.95269   0.64594   0.46145   0.00000  Uiso   1.00
O1230  O     0.55488   0.85204   0.53938   0.00000  Uiso   1.00
O1231  O     0.85913   0.53276   0.45898   0.00000  Uiso   1.00
O1232  O     0.63493   0.98267   0.54015   0.00000  Uiso   1.00
O1233  O     0.55049   0.85341   0.45925   0.00000  Uiso   1.00
O1234  O     0.94168   0.65220   0.54116   0.00000  Uiso   1.00
O1235  O     0.63426   0.98749   0.46004   0.00000  Uiso   1.00
O1236  O     0.75000   0.53462   0.66251   0.00000  Uiso   1.00
O1237  O     0.86004   0.52956   0.53914   0.00000  Uiso   1.00
O1238  O     0.77945   0.88930   0.95930   0.00000  Uiso   1.00
O1239  O     0.72855   0.61358   0.03984   0.00000  Uiso   1.00
O1240  O     0.61073   0.77915   0.95865   0.00000  Uiso   1.00
O1241  O     0.88817   0.72380   0.04056   0.00000  Uiso   1.00
O1242  O     0.72274   0.61208   0.96008   0.00000  Uiso   1.00
O1243  O     0.77707   0.88788   0.03968   0.00000  Uiso   1.00
O1244  O     0.88936   0.71810   0.96079   0.00000  Uiso   1.00
O1245  O     0.61285   0.77436   0.03896   0.00000  Uiso   1.00
O1246  O     0.53462   0.75000   0.33749   0.00000  Uiso   1.00
O1247  O     0.96539   0.75000   0.66251   0.00000  Uiso   1.00
O1248  O     0.75000   0.53462   0.33749   0.00000  Uiso   1.00
Zn1249 Zn    0.70053   0.50000   0.21730   0.00000  Uiso   1.00
Zn1250 Zn    0.54948   0.75000   0.28270   0.00000  Uiso   1.00
Zn1251 Zn    0.75000   0.95053   0.71730   0.00000  Uiso   1.00
Zn1252 Zn    0.75000   0.54948   0.28270   0.00000  Uiso   1.00
Zn1253 Zn    0.54948   0.75000   0.71730   0.00000  Uiso   1.00
Zn1254 Zn    0.95053   0.75000   0.28270   0.00000  Uiso   1.00
Zn1255 Zn    0.75000   0.54948   0.71730   0.00000  Uiso   1.00
Zn1256 Zn    0.75000   0.95053   0.28270   0.00000  Uiso   1.00
Zn1257 Zn    0.79948   0.50000   0.78270   0.00000  Uiso   1.00
Zn1258 Zn    0.50000   0.70052   0.21730   0.00000  Uiso   1.00
Zn1259 Zn    0.50000   0.79947   0.78270   0.00000  Uiso   1.00
Zn1260 Zn    0.79948   0.50000   0.21730   0.00000  Uiso   1.00
Zn1261 Zn    0.70053   0.50000   0.78270   0.00000  Uiso   1.00
Zn1262 Zn    0.50000   0.79947   0.21730   0.00000  Uiso   1.00
Zn1263 Zn    0.50000   0.70052   0.78270   0.00000  Uiso   1.00
Zn1264 Zn    0.95053   0.75000   0.71730   0.00000  Uiso   1.00
loop_
_geom_bond_atom_site_label_1
_geom_bond_atom_site_label_2
_geom_bond_distance
_geom_bond_site_symmetry_2
_ccdc_geom_bond_type
C1     O277    1.268   .     A
C1     C92     1.448   .     S
C1     O932    1.270   .     S
C2     O247    1.276   .     A
C2     C68     1.422   .     S
C2     O275    1.276   .     A
C3     C111    1.412   .     A
C3     O293    1.386   .     S
C3     C6      1.404   1_554 S
C4     O294    1.385   .     S
C4     C112    1.413   .     A
C4     C135    1.406   1_556 S
C5     C113    1.413   .     A
C5     O295    1.386   .     S
C5     C134    1.405   1_554 S
C6     C114    1.412   .     A
C6     O296    1.385   .     S
C6     C3      1.404   1_556 S
C7     O297    1.386   .     S
C7     C116    1.413   .     A
C7     C136    1.405   1_554 S
C8     H145    1.115   .     S
C8     C9      1.521   .     S
C8     O281    1.414   .     S
C8     H462    1.115   .     S
C9     H149    1.111   .     S
C9     H147    1.110   .     S
C9     H466    1.110   .     S
C10    O282    1.416   .     S
C10    C11     1.525   .     S
C10    H152    1.111   .     S
C10    H151    1.117   .     S
C11    H154    1.110   .     S
C11    H155    1.109   .     S
C11    H153    1.111   .     S
C12    H157    1.110   .     S
C12    H156    1.113   .     S
C12    C14     1.521   .     S
C12    O283    1.418   .     S
C13    O272    1.274   .     A
C13    O248    1.275   .     A
C13    C67     1.425   .     S
C14    H158    1.109   .     S
C14    H161    1.110   .     S
C14    H160    1.110   .     S
C15    H163    1.110   .     S
C15    H162    1.116   .     S
C15    C16     1.522   .     S
C15    O916    1.416   1_545 S
C16    H165    1.111   .     S
C16    H166    1.111   .     S
C16    H796    1.111   1_545 S
C17    C18     1.518   .     S
C17    H167    1.115   .     S
C17    O285    1.412   .     S
C17    H484    1.114   1_455 S
C18    H171    1.111   .     S
C18    H169    1.111   .     S
C18    H172    1.111   .     S
C19    C20     1.521   .     S
C19    H174    1.113   .     S
C19    O286    1.416   .     S
C19    H173    1.110   .     S
C20    H175    1.111   .     S
C20    H177    1.107   .     S
C20    H176    1.110   .     S
C21    C22     1.521   .     S
C21    H179    1.109   .     S
C21    H178    1.116   .     S
C21    O919    1.418   1_545 S
C22    H182    1.110   .     S
C22    H180    1.111   .     S
C22    H183    1.107   .     S
C23    H185    1.114   .     S
C23    H184    1.114   .     S
C23    C657    1.521   .     S
C23    O921    1.411   .     S
C24    O249    1.275   .     A
C24    C66     1.425   .     S
C24    O273    1.274   .     A
C25    H186    1.111   .     S
C25    H188    1.111   .     S
C25    C655    1.521   1_545 S
C25    H819    1.111   1_545 S
C26    O290    1.411   .     S
C26    H189    1.113   .     S
C26    C27     1.521   .     S
C26    H190    1.116   .     S
C27    H194    1.111   .     S
C27    H193    1.111   .     S
C27    H191    1.111   .     S
C28    H195    1.116   .     S
C28    H196    1.109   .     S
C28    C29     1.522   .     S
C28    O291    1.419   .     S
C29    H199    1.110   .     S
C29    H197    1.111   .     S
C29    H198    1.110   .     S
C30    H200    1.113   .     S
C30    C31     1.521   .     S
C30    H201    1.116   .     S
C30    O292    1.411   .     S
C31    H205    1.111   .     S
C31    H204    1.111   .     S
C31    H202    1.111   .     S
C32    O293    1.417   .     S
C32    H206    1.116   .     S
C32    C33     1.524   .     S
C32    H207    1.110   .     S
C33    H208    1.111   .     S
C33    H209    1.110   .     S
C33    H210    1.109   1_554 S
C34    H212    1.107   .     S
C34    O294    1.413   .     S
C34    H211    1.112   .     S
C34    C36     1.520   .     S
C35    O250    1.273   .     A
C35    C65     1.422   .     S
C35    O279    1.273   .     A
C36    H215    1.111   .     S
C36    H216    1.111   .     S
C36    H213    1.111   .     S
C37    H218    1.110   .     S
C37    C38     1.525   .     S
C37    O295    1.417   .     S
C37    H217    1.115   .     S
C38    H219    1.110   .     S
C38    H220    1.110   .     S
C38    H221    1.109   1_554 S
C39    H222    1.115   .     S
C39    C40     1.526   .     S
C39    H223    1.111   .     S
C39    O296    1.416   .     S
C40    H226    1.111   .     S
C40    H224    1.109   .     S
C40    H227    1.110   1_556 S
C41    H228    1.116   .     S
C41    C42     1.527   .     S
C41    O297    1.418   .     S
C41    H229    1.110   .     S
C42    H231    1.109   .     S
C42    H230    1.111   .     S
C42    H232    1.109   1_554 S
C43    O251    1.273   .     A
C43    C64     1.422   .     S
C43    O280    1.273   .     A
C44    O276    1.276   .     A
C44    C72     1.425   .     S
C44    O252    1.275   .     A
C45    C70     1.425   .     S
C45    O278    1.276   .     A
C45    O253    1.275   .     A
C46    O265    1.275   .     A
C46    C61     1.425   .     S
C46    O254    1.274   .     A
C47    O267    1.275   .     A
C47    O256    1.274   .     A
C47    C59     1.425   .     S
C48    O263    1.276   .     A
C48    C58     1.422   .     S
C48    O257    1.276   .     A
C49    O288    1.271   .     A
C49    C94     1.455   .     S
C49    O866    1.271   1_545 S
C50    C57     1.422   .     S
C50    O258    1.276   .     A
C50    O264    1.276   .     A
C51    O270    1.275   .     A
C51    O259    1.276   .     A
C51    C56     1.425   .     S
C52    O260    1.276   .     A
C52    C55     1.425   .     S
C52    O271    1.275   .     A
C53    O261    1.273   .     A
C53    C63     1.422   .     S
C53    O268    1.273   .     A
C54    O269    1.273   .     A
C54    C62     1.422   .     S
C54    O262    1.273   .     A
C55    C72     1.200   .     T
C56    C70     1.200   .     T
C57    C69     1.198   .     T
C58    C68     1.198   .     T
C59    C67     1.200   .     T
C60    O235    1.272   .     A
C60    C406    1.454   .     S
C60    O614    1.270   .     S
C61    C66     1.200   .     T
C62    C65     1.198   .     T
C63    C64     1.198   .     T
C69    C126    1.422   .     S
C71    C91     1.448   .     S
C71    O236    1.267   .     A
C71    O615    1.271   1_455 S
C73    H137    1.084   .     S
C73    C90     1.396   .     A
C73    C103    1.401   .     A
C74    C105    1.398   .     A
C74    H148    1.084   .     S
C74    C407    1.389   .     S
C75    C106    1.404   .     A
C75    C92     1.395   .     A
C75    H159    1.083   .     S
C76    C94     1.395   .     A
C76    H170    1.084   .     S
C76    C107    1.401   .     A
C77    H181    1.084   .     S
C77    C99     1.401   .     A
C77    C406    1.397   .     S
C78    H192    1.084   .     S
C78    C100    1.402   .     A
C78    C91     1.396   .     A
C79    C101    1.399   .     A
C79    H203    1.084   .     S
C79    C724    1.389   1_545 S
C80    C102    1.404   .     A
C80    H214    1.083   .     S
C80    C726    1.397   .     S
C81    C95     1.395   .     A
C81    C112    1.402   .     A
C81    H225    1.084   .     S
C82    C97     1.451   .     S
C82    O553    1.270   .     S
C82    O557    1.270   .     S
C83    H138    1.084   .     S
C83    C96     1.394   .     A
C83    C113    1.401   .     A
C84    C114    1.402   .     A
C84    C97     1.395   .     A
C84    H139    1.084   .     S
C85    C116    1.402   .     A
C85    H140    1.084   .     S
C85    C98     1.396   .     A
C86    C108    1.400   .     A
C86    H141    1.084   .     S
C86    C727    1.394   .     S
C87    C109    1.401   .     A
C87    H142    1.082   .     S
C87    C728    1.394   1_545 S
C88    H143    1.084   .     S
C88    C110    1.400   .     A
C88    C413    1.394   1_455 S
C89    H144    1.084   .     S
C89    C111    1.400   .     A
C89    C414    1.394   .     S
C90    C376    1.454   1_455 S
C90    C393    1.397   1_455 S
C91    C390    1.389   1_455 S
C92    C711    1.389   .     S
C93    O242    1.270   .     A
C93    O238    1.270   .     A
C93    C98     1.451   .     S
C94    C712    1.397   1_545 S
C95    C104    1.452   .     S
C95    C718    1.394   1_545 S
C96    C115    1.451   .     S
C96    C719    1.394   .     S
C97    C404    1.394   .     S
C98    C405    1.394   1_455 S
C99    C125    1.410   .     A
C99    C433    1.416   .     S
C100   C127    1.410   .     A
C100   C118    1.416   .     A
C101   C119    1.415   .     A
C101   C128    1.408   .     A
C102   C129    1.415   .     A
C102   C752    1.417   .     S
C103   C117    1.414   .     A
C103   C130    1.409   .     A
C104   O243    1.270   .     A
C104   O239    1.270   .     A
C105   C131    1.409   .     A
C105   C434    1.414   .     S
C106   C132    1.412   .     A
C106   C751    1.414   .     S
C107   C120    1.417   .     A
C107   C133    1.410   .     A
C108   C134    1.409   .     A
C108   C753    1.416   .     S
C109   C135    1.414   .     A
C109   C122    1.417   .     A
C110   C123    1.416   .     A
C110   C136    1.408   .     A
C111   C440    1.416   .     S
C112   C121    1.417   .     A
C113   C754    1.418   .     S
C114   C439    1.417   .     S
C115   O872    1.271   .     S
C115   O877    1.270   .     S
C116   C124    1.417   .     A
C117   C118    1.405   .     A
C117   C415    1.416   1_455 S
C118   C421    1.414   1_455 S
C119   C120    1.406   .     A
C119   C738    1.414   1_545 S
C120   C734    1.417   1_545 S
C121   C740    1.416   1_545 S
C121   C122    1.406   1_556 S
C122   C745    1.418   1_545 S
C122   C121    1.406   1_554 S
C123   C430    1.417   1_455 S
C123   C124    1.406   1_556 S
C124   C427    1.416   1_455 S
C124   C123    1.406   1_554 S
C125   C131    1.404   .     A
C125   O281    1.383   .     S
C126   O246    1.276   .     A
C126   O274    1.276   .     A
C127   O282    1.385   .     S
C127   C130    1.405   .     A
C128   C133    1.405   .     A
C128   O283    1.387   .     S
C129   C132    1.407   .     A
C129   O284    1.385   .     S
C130   O285    1.382   .     S
C131   O286    1.384   .     S
C132   O287    1.386   .     S
C133   O289    1.383   .     S
C134   O290    1.384   .     S
C134   C5      1.405   1_556 S
C135   O291    1.387   .     S
C135   C4      1.406   1_554 S
C136   O292    1.384   .     S
C136   C7      1.405   1_556 S
H146   C324    1.115   1_455 S
H150   C325    1.110   1_455 S
H164   C648    1.111   .     S
H168   C333    1.114   .     S
H187   C657    1.111   .     S
H210   C33     1.109   1_556 S
H221   C38     1.109   1_556 S
H227   C40     1.110   1_554 S
H232   C42     1.109   1_556 S
O233   Zn304   1.935   .     S
O233   Zn312   1.931   .     S
O233   Zn301   1.936   .     S
O233   Zn940   1.932   1_545 S
O234   Zn303   1.939   .     S
O234   C681    1.271   .     S
O235   Zn306   1.941   .     S
O236   Zn305   1.941   .     S
O237   Zn315   1.941   .     S
O237   C398    1.270   1_455 S
O238   Zn314   1.941   .     S
O239   Zn309   1.939   .     S
O240   Zn301   1.939   .     S
O240   C747    1.271   1_545 S
O241   Zn311   1.939   .     S
O241   C398    1.270   1_455 S
O242   Zn310   1.939   .     S
O243   Zn313   1.941   .     S
O244   Zn935   1.935   1_545 S
O244   Zn307   1.932   .     S
O244   Zn309   1.936   .     S
O244   Zn313   1.931   .     S
O245   Zn312   1.941   .     S
O245   C747    1.270   1_545 S
O246   Zn304   1.915   .     S
O247   Zn303   1.915   .     S
O248   Zn306   1.919   .     S
O249   Zn305   1.919   .     S
O250   Zn308   1.914   .     S
O251   Zn307   1.914   .     S
O252   Zn302   1.917   .     S
O253   Zn316   1.917   .     S
O254   Zn303   1.917   .     S
O255   Zn310   1.935   .     S
O255   Zn314   1.932   .     S
O255   Zn302   1.936   .     S
O255   Zn622   1.931   1_455 S
O256   Zn304   1.917   .     S
O257   Zn316   1.915   .     S
O258   Zn302   1.915   .     S
O259   Zn307   1.920   .     S
O260   Zn308   1.920   .     S
O261   Zn305   1.915   .     S
O262   Zn306   1.915   .     S
O263   Zn627   1.915   .     S
O264   Zn310   1.915   .     S
O265   Zn945   1.919   .     S
O266   Zn315   1.932   .     S
O266   Zn305   1.931   .     S
O266   Zn311   1.935   .     S
O266   Zn632   1.936   1_455 S
O267   Zn312   1.919   .     S
O268   Zn315   1.914   .     S
O269   Zn630   1.914   .     S
O270   Zn309   1.917   .     S
O271   Zn933   1.917   .     S
O272   Zn626   1.917   .     S
O273   Zn311   1.917   .     S
O274   Zn301   1.915   .     S
O275   Zn941   1.915   .     S
O276   Zn314   1.920   .     S
O277   Zn308   1.941   .     S
O278   Zn631   1.920   .     S
O279   Zn944   1.915   .     S
O280   Zn313   1.915   .     S
O284   C647    1.416   .     S
O287   C653    1.418   .     S
O288   Zn307   1.941   .     S
O289   C655    1.411   1_545 S
O298   Zn302   1.939   .     S
O298   C376    1.270   1_455 S
O299   Zn316   1.939   .     S
O299   C387    1.271   .     S
O300   Zn304   1.939   .     S
O300   C633    1.270   1_545 S
Zn301  O903    1.917   1_545 S
Zn303  O876    1.935   .     S
Zn306  O571    1.931   .     S
Zn308  O865    1.932   .     S
Zn309  O907    1.915   1_545 S
Zn310  O588    1.917   1_455 S
Zn311  O579    1.915   1_455 S
Zn312  O911    1.915   1_545 S
Zn313  O897    1.919   1_545 S
Zn314  O585    1.914   1_455 S
Zn315  O594    1.920   1_455 S
Zn316  O582    1.936   .     S
C317   O593    1.268   .     A
C317   C408    1.448   .     S
C317   O1248   1.270   .     S
C318   O563    1.276   .     A
C318   C384    1.422   .     S
C318   O591    1.276   .     A
C319   C427    1.412   .     A
C319   O609    1.386   .     S
C319   C322    1.404   1_554 S
C320   O610    1.385   .     S
C320   C428    1.413   .     A
C320   C451    1.406   1_556 S
C321   C429    1.413   .     A
C321   O611    1.386   .     S
C321   C450    1.405   1_554 S
C322   C430    1.412   .     A
C322   O612    1.385   .     S
C322   C319    1.404   1_556 S
C323   O613    1.386   .     S
C323   C432    1.413   .     A
C323   C452    1.405   1_554 S
C324   H461    1.115   .     S
C324   C325    1.521   .     S
C324   O597    1.414   .     S
C324   H146    1.115   1_655 S
C325   H465    1.111   .     S
C325   H463    1.110   .     S
C325   H150    1.110   1_655 S
C326   O598    1.416   .     S
C326   C327    1.525   .     S
C326   H468    1.111   .     S
C326   H467    1.117   .     S
C327   H470    1.110   .     S
C327   H471    1.109   .     S
C327   H469    1.111   .     S
C328   H473    1.110   .     S
C328   H472    1.113   .     S
C328   C330    1.521   .     S
C328   O599    1.418   .     S
C329   O588    1.274   .     A
C329   O564    1.275   .     A
C329   C383    1.425   .     S
C330   H474    1.109   .     S
C330   H477    1.110   .     S
C330   H476    1.110   .     S
C331   H479    1.110   .     S
C331   H478    1.116   .     S
C331   C332    1.522   .     S
C331   O1232   1.416   1_545 S
C332   H481    1.111   .     S
C332   H482    1.111   .     S
C332   H1112   1.111   1_545 S
C333   C334    1.518   .     S
C333   H483    1.115   .     S
C333   O601    1.412   .     S
C334   H487    1.111   .     S
C334   H485    1.111   .     S
C334   H488    1.111   .     S
C335   C336    1.521   .     S
C335   H490    1.113   .     S
C335   O602    1.416   .     S
C335   H489    1.110   .     S
C336   H491    1.111   .     S
C336   H493    1.107   .     S
C336   H492    1.110   .     S
C337   C338    1.521   .     S
C337   H495    1.109   .     S
C337   H494    1.116   .     S
C337   O1235   1.418   1_545 S
C338   H498    1.110   .     S
C338   H496    1.111   .     S
C338   H499    1.107   .     S
C339   H501    1.114   .     S
C339   H500    1.114   .     S
C339   C973    1.521   .     S
C339   O1237   1.411   .     S
C340   O565    1.275   .     A
C340   C382    1.425   .     S
C340   O589    1.274   .     A
C341   H502    1.111   .     S
C341   H504    1.111   .     S
C341   C971    1.521   1_545 S
C341   H1135   1.111   1_545 S
C342   O606    1.411   .     S
C342   H505    1.113   .     S
C342   C343    1.521   .     S
C342   H506    1.116   .     S
C343   H510    1.111   .     S
C343   H509    1.111   .     S
C343   H507    1.111   .     S
C344   H511    1.116   .     S
C344   H512    1.109   .     S
C344   C345    1.522   .     S
C344   O607    1.419   .     S
C345   H515    1.110   .     S
C345   H513    1.111   .     S
C345   H514    1.110   .     S
C346   H516    1.113   .     S
C346   C347    1.521   .     S
C346   H517    1.116   .     S
C346   O608    1.411   .     S
C347   H521    1.111   .     S
C347   H520    1.111   .     S
C347   H518    1.111   .     S
C348   O609    1.417   .     S
C348   H522    1.116   .     S
C348   C349    1.524   .     S
C348   H523    1.110   .     S
C349   H524    1.111   .     S
C349   H525    1.110   .     S
C349   H526    1.109   1_554 S
C350   H528    1.107   .     S
C350   O610    1.413   .     S
C350   H527    1.112   .     S
C350   C352    1.520   .     S
C351   O566    1.273   .     A
C351   C381    1.422   .     S
C351   O595    1.273   .     A
C352   H531    1.111   .     S
C352   H532    1.111   .     S
C352   H529    1.111   .     S
C353   H534    1.110   .     S
C353   C354    1.525   .     S
C353   O611    1.417   .     S
C353   H533    1.115   .     S
C354   H535    1.110   .     S
C354   H536    1.110   .     S
C354   H537    1.109   1_554 S
C355   H538    1.115   .     S
C355   C356    1.526   .     S
C355   H539    1.111   .     S
C355   O612    1.416   .     S
C356   H542    1.111   .     S
C356   H540    1.109   .     S
C356   H543    1.110   1_556 S
C357   H544    1.116   .     S
C357   C358    1.527   .     S
C357   O613    1.418   .     S
C357   H545    1.110   .     S
C358   H547    1.109   .     S
C358   H546    1.111   .     S
C358   H548    1.109   1_554 S
C359   O567    1.273   .     A
C359   C380    1.422   .     S
C359   O596    1.273   .     A
C360   O592    1.276   .     A
C360   C388    1.425   .     S
C360   O568    1.275   .     A
C361   C386    1.425   .     S
C361   O594    1.276   .     A
C361   O569    1.275   .     A
C362   O581    1.275   .     A
C362   C377    1.425   .     S
C362   O570    1.274   .     A
C363   O583    1.275   .     A
C363   O572    1.274   .     A
C363   C375    1.425   .     S
C364   O579    1.276   .     A
C364   C374    1.422   .     S
C364   O573    1.276   .     A
C365   O604    1.271   .     A
C365   C410    1.455   .     S
C365   O1182   1.271   1_545 S
C366   C373    1.422   .     S
C366   O574    1.276   .     A
C366   O580    1.276   .     A
C367   O586    1.275   .     A
C367   O575    1.276   .     A
C367   C372    1.425   .     S
C368   O576    1.276   .     A
C368   C371    1.425   .     S
C368   O587    1.275   .     A
C369   O577    1.273   .     A
C369   C379    1.422   .     S
C369   O584    1.273   .     A
C370   O585    1.273   .     A
C370   C378    1.422   .     S
C370   O578    1.273   .     A
C371   C388    1.200   .     T
C372   C386    1.200   .     T
C373   C385    1.198   .     T
C374   C384    1.198   .     T
C375   C383    1.200   .     T
C376   O551    1.272   .     A
C376   C90     1.454   1_655 S
C376   O298    1.270   1_655 S
C377   C382    1.200   .     T
C378   C381    1.198   .     T
C379   C380    1.198   .     T
C385   C442    1.422   .     S
C387   C407    1.448   .     S
C387   O552    1.267   .     A
C389   H453    1.084   .     S
C389   C406    1.396   .     A
C389   C419    1.401   .     A
C390   C421    1.398   .     A
C390   H464    1.084   .     S
C390   C91     1.389   1_655 S
C391   C422    1.404   .     A
C391   C408    1.395   .     A
C391   H475    1.083   .     S
C392   C410    1.395   .     A
C392   H486    1.084   .     S
C392   C423    1.401   .     A
C393   H497    1.084   .     S
C393   C415    1.401   .     A
C393   C90     1.397   1_655 S
C394   H508    1.084   .     S
C394   C416    1.402   .     A
C394   C407    1.396   .     A
C395   C417    1.399   .     A
C395   H519    1.084   .     S
C395   C1040   1.389   1_545 S
C396   C418    1.404   .     A
C396   H530    1.083   .     S
C396   C1042   1.397   .     S
C397   C411    1.395   .     A
C397   C428    1.402   .     A
C397   H541    1.084   .     S
C398   C413    1.451   .     S
C398   O237    1.270   1_655 S
C398   O241    1.270   1_655 S
C399   H454    1.084   .     S
C399   C412    1.394   .     A
C399   C429    1.401   .     A
C400   C430    1.402   .     A
C400   C413    1.395   .     A
C400   H455    1.084   .     S
C401   C432    1.402   .     A
C401   H456    1.084   .     S
C401   C414    1.396   .     A
C402   C424    1.400   .     A
C402   H457    1.084   .     S
C402   C1043   1.394   .     S
C403   C425    1.401   .     A
C403   H458    1.082   .     S
C403   C1044   1.394   1_545 S
C404   H459    1.084   .     S
C404   C426    1.400   .     A
C405   H460    1.084   .     S
C405   C427    1.400   .     A
C405   C98     1.394   1_655 S
C408   C1027   1.389   .     S
C409   O558    1.270   .     A
C409   O554    1.270   .     A
C409   C414    1.451   .     S
C410   C1028   1.397   1_545 S
C411   C420    1.452   .     S
C411   C1034   1.394   1_545 S
C412   C431    1.451   .     S
C412   C1035   1.394   .     S
C413   C88     1.394   1_655 S
C415   C441    1.410   .     A
C415   C117    1.416   1_655 S
C416   C443    1.410   .     A
C416   C434    1.416   .     A
C417   C435    1.415   .     A
C417   C444    1.408   .     A
C418   C445    1.415   .     A
C418   C1068   1.417   .     S
C419   C433    1.414   .     A
C419   C446    1.409   .     A
C420   O559    1.270   .     A
C420   O555    1.270   .     A
C421   C447    1.409   .     A
C421   C118    1.414   1_655 S
C422   C448    1.412   .     A
C422   C1067   1.414   .     S
C423   C436    1.417   .     A
C423   C449    1.410   .     A
C424   C450    1.409   .     A
C424   C1069   1.416   .     S
C425   C451    1.414   .     A
C425   C438    1.417   .     A
C426   C439    1.416   .     A
C426   C452    1.408   .     A
C427   C124    1.416   1_655 S
C428   C437    1.417   .     A
C429   C1070   1.418   .     S
C430   C123    1.417   1_655 S
C431   O1188   1.271   .     S
C431   O1193   1.270   .     S
C432   C440    1.417   .     A
C433   C434    1.405   .     A
C435   C436    1.406   .     A
C435   C1054   1.414   1_545 S
C436   C1050   1.417   1_545 S
C437   C1056   1.416   1_545 S
C437   C438    1.406   1_556 S
C438   C1061   1.418   1_545 S
C438   C437    1.406   1_554 S
C439   C440    1.406   1_556 S
C440   C439    1.406   1_554 S
C441   C447    1.404   .     A
C441   O597    1.383   .     S
C442   O562    1.276   .     A
C442   O590    1.276   .     A
C443   O598    1.385   .     S
C443   C446    1.405   .     A
C444   C449    1.405   .     A
C444   O599    1.387   .     S
C445   C448    1.407   .     A
C445   O600    1.385   .     S
C446   O601    1.382   .     S
C447   O602    1.384   .     S
C448   O603    1.386   .     S
C449   O605    1.383   .     S
C450   O606    1.384   .     S
C450   C321    1.405   1_556 S
C451   O607    1.387   .     S
C451   C320    1.406   1_554 S
C452   O608    1.384   .     S
C452   C323    1.405   1_556 S
H480   C964    1.111   .     S
H484   C17     1.114   1_655 S
H503   C973    1.111   .     S
H526   C349    1.109   1_556 S
H537   C354    1.109   1_556 S
H543   C356    1.110   1_554 S
H548   C358    1.109   1_556 S
O549   Zn620   1.935   .     S
O549   Zn628   1.931   .     S
O549   Zn617   1.936   .     S
O549   Zn1256  1.932   1_545 S
O550   Zn619   1.939   .     S
O550   C997    1.271   .     S
O551   Zn622   1.941   .     S
O552   Zn621   1.941   .     S
O553   Zn631   1.941   .     S
O554   Zn630   1.941   .     S
O555   Zn625   1.939   .     S
O556   Zn617   1.939   .     S
O556   C1063   1.271   1_545 S
O557   Zn627   1.939   .     S
O558   Zn626   1.939   .     S
O559   Zn629   1.941   .     S
O560   Zn1251  1.935   1_545 S
O560   Zn623   1.932   .     S
O560   Zn625   1.936   .     S
O560   Zn629   1.931   .     S
O561   Zn628   1.941   .     S
O561   C1063   1.270   1_545 S
O562   Zn620   1.915   .     S
O563   Zn619   1.915   .     S
O564   Zn622   1.919   .     S
O565   Zn621   1.919   .     S
O566   Zn624   1.914   .     S
O567   Zn623   1.914   .     S
O568   Zn618   1.917   .     S
O569   Zn632   1.917   .     S
O570   Zn619   1.917   .     S
O571   Zn626   1.935   .     S
O571   Zn630   1.932   .     S
O571   Zn618   1.936   .     S
O572   Zn620   1.917   .     S
O573   Zn632   1.915   .     S
O574   Zn618   1.915   .     S
O575   Zn623   1.920   .     S
O576   Zn624   1.920   .     S
O577   Zn621   1.915   .     S
O578   Zn622   1.915   .     S
O579   Zn311   1.915   1_655 S
O580   Zn626   1.915   .     S
O581   Zn1261  1.919   .     S
O582   Zn631   1.932   .     S
O582   Zn621   1.931   .     S
O582   Zn627   1.935   .     S
O583   Zn628   1.919   .     S
O584   Zn631   1.914   .     S
O585   Zn314   1.914   1_655 S
O586   Zn625   1.917   .     S
O587   Zn1249  1.917   .     S
O588   Zn310   1.917   1_655 S
O589   Zn627   1.917   .     S
O590   Zn617   1.915   .     S
O591   Zn1257  1.915   .     S
O592   Zn630   1.920   .     S
O593   Zn624   1.941   .     S
O594   Zn315   1.920   1_655 S
O595   Zn1260  1.915   .     S
O596   Zn629   1.915   .     S
O600   C963    1.416   .     S
O603   C969    1.418   .     S
O604   Zn623   1.941   .     S
O605   C971    1.411   1_545 S
O614   Zn618   1.939   .     S
O615   Zn632   1.939   .     S
O615   C71     1.271   1_655 S
O616   Zn620   1.939   .     S
O616   C949    1.270   1_545 S
Zn617  O1219   1.917   1_545 S
Zn619  O1192   1.935   .     S
Zn622  O255    1.931   1_655 S
Zn624  O1181   1.932   .     S
Zn625  O1223   1.915   1_545 S
Zn628  O1227   1.915   1_545 S
Zn629  O1213   1.919   1_545 S
Zn632  O266    1.936   1_655 S
C633   O909    1.268   .     A
C633   C724    1.448   .     S
C633   O300    1.270   1_565 S
C634   O879    1.276   .     A
C634   C700    1.422   .     S
C634   O907    1.276   .     A
C635   C743    1.412   .     A
C635   O925    1.386   .     S
C635   C638    1.404   1_554 S
C636   O926    1.385   .     S
C636   C744    1.413   .     A
C636   C767    1.406   1_556 S
C637   C745    1.413   .     A
C637   O927    1.386   .     S
C637   C766    1.405   1_554 S
C638   C746    1.412   .     A
C638   O928    1.385   .     S
C638   C635    1.404   1_556 S
C639   O929    1.386   .     S
C639   C748    1.413   .     A
C639   C768    1.405   1_554 S
C640   H777    1.115   .     S
C640   C641    1.521   .     S
C640   O913    1.414   .     S
C640   H1094   1.115   .     S
C641   H781    1.111   .     S
C641   H779    1.110   .     S
C641   H1098   1.110   .     S
C642   O914    1.416   .     S
C642   C643    1.525   .     S
C642   H784    1.111   .     S
C642   H783    1.117   .     S
C643   H786    1.110   .     S
C643   H787    1.109   .     S
C643   H785    1.111   .     S
C644   H789    1.110   .     S
C644   H788    1.113   .     S
C644   C646    1.521   .     S
C644   O915    1.418   .     S
C645   O904    1.274   .     A
C645   O880    1.275   .     A
C645   C699    1.425   .     S
C646   H790    1.109   .     S
C646   H793    1.110   .     S
C646   H792    1.110   .     S
C647   H795    1.110   .     S
C647   H794    1.116   .     S
C647   C648    1.522   .     S
C648   H797    1.111   .     S
C648   H798    1.111   .     S
C649   C650    1.518   .     S
C649   H799    1.115   .     S
C649   O917    1.412   .     S
C649   H1116   1.114   1_455 S
C650   H803    1.111   .     S
C650   H801    1.111   .     S
C650   H804    1.111   .     S
C651   C652    1.521   .     S
C651   H806    1.113   .     S
C651   O918    1.416   .     S
C651   H805    1.110   .     S
C652   H807    1.111   .     S
C652   H809    1.107   .     S
C652   H808    1.110   .     S
C653   C654    1.521   .     S
C653   H811    1.109   .     S
C653   H810    1.116   .     S
C654   H814    1.110   .     S
C654   H812    1.111   .     S
C654   H815    1.107   .     S
C655   H817    1.114   .     S
C655   H816    1.114   .     S
C655   C25     1.521   1_565 S
C655   O289    1.411   1_565 S
C656   O881    1.275   .     A
C656   C698    1.425   .     S
C656   O905    1.274   .     A
C657   H818    1.111   .     S
C657   H820    1.111   .     S
C658   O922    1.411   .     S
C658   H821    1.113   .     S
C658   C659    1.521   .     S
C658   H822    1.116   .     S
C659   H826    1.111   .     S
C659   H825    1.111   .     S
C659   H823    1.111   .     S
C660   H827    1.116   .     S
C660   H828    1.109   .     S
C660   C661    1.522   .     S
C660   O923    1.419   .     S
C661   H831    1.110   .     S
C661   H829    1.111   .     S
C661   H830    1.110   .     S
C662   H832    1.113   .     S
C662   C663    1.521   .     S
C662   H833    1.116   .     S
C662   O924    1.411   .     S
C663   H837    1.111   .     S
C663   H836    1.111   .     S
C663   H834    1.111   .     S
C664   O925    1.417   .     S
C664   H838    1.116   .     S
C664   C665    1.524   .     S
C664   H839    1.110   .     S
C665   H840    1.111   .     S
C665   H841    1.110   .     S
C665   H842    1.109   1_554 S
C666   H844    1.107   .     S
C666   O926    1.413   .     S
C666   H843    1.112   .     S
C666   C668    1.520   .     S
C667   O882    1.273   .     A
C667   C697    1.422   .     S
C667   O911    1.273   .     A
C668   H847    1.111   .     S
C668   H848    1.111   .     S
C668   H845    1.111   .     S
C669   H850    1.110   .     S
C669   C670    1.525   .     S
C669   O927    1.417   .     S
C669   H849    1.115   .     S
C670   H851    1.110   .     S
C670   H852    1.110   .     S
C670   H853    1.109   1_554 S
C671   H854    1.115   .     S
C671   C672    1.526   .     S
C671   H855    1.111   .     S
C671   O928    1.416   .     S
C672   H858    1.111   .     S
C672   H856    1.109   .     S
C672   H859    1.110   1_556 S
C673   H860    1.116   .     S
C673   C674    1.527   .     S
C673   O929    1.418   .     S
C673   H861    1.110   .     S
C674   H863    1.109   .     S
C674   H862    1.111   .     S
C674   H864    1.109   1_554 S
C675   O883    1.273   .     A
C675   C696    1.422   .     S
C675   O912    1.273   .     A
C676   O908    1.276   .     A
C676   C704    1.425   .     S
C676   O884    1.275   .     A
C677   C702    1.425   .     S
C677   O910    1.276   .     A
C677   O885    1.275   .     A
C678   O897    1.275   .     A
C678   C693    1.425   .     S
C678   O886    1.274   .     A
C679   O899    1.275   .     A
C679   O888    1.274   .     A
C679   C691    1.425   .     S
C680   O895    1.276   .     A
C680   C690    1.422   .     S
C680   O889    1.276   .     A
C681   O920    1.271   .     A
C681   C726    1.455   .     S
C682   C689    1.422   .     S
C682   O890    1.276   .     A
C682   O896    1.276   .     A
C683   O902    1.275   .     A
C683   O891    1.276   .     A
C683   C688    1.425   .     S
C684   O892    1.276   .     A
C684   C687    1.425   .     S
C684   O903    1.275   .     A
C685   O893    1.273   .     A
C685   C695    1.422   .     S
C685   O900    1.273   .     A
C686   O901    1.273   .     A
C686   C694    1.422   .     S
C686   O894    1.273   .     A
C687   C704    1.200   .     T
C688   C702    1.200   .     T
C689   C701    1.198   .     T
C690   C700    1.198   .     T
C691   C699    1.200   .     T
C692   O867    1.272   .     A
C692   C1038   1.454   .     S
C692   O1246   1.270   .     S
C693   C698    1.200   .     T
C694   C697    1.198   .     T
C695   C696    1.198   .     T
C701   C758    1.422   .     S
C703   C723    1.448   .     S
C703   O868    1.267   .     A
C703   O1247   1.271   1_455 S
C705   H769    1.084   .     S
C705   C722    1.396   .     A
C705   C735    1.401   .     A
C706   C737    1.398   .     A
C706   H780    1.084   .     S
C706   C1039   1.389   .     S
C707   C738    1.404   .     A
C707   C724    1.395   .     A
C707   H791    1.083   .     S
C708   C726    1.395   .     A
C708   H802    1.084   .     S
C708   C739    1.401   .     A
C709   H813    1.084   .     S
C709   C731    1.401   .     A
C709   C1038   1.397   .     S
C710   H824    1.084   .     S
C710   C732    1.402   .     A
C710   C723    1.396   .     A
C711   C733    1.399   .     A
C711   H835    1.084   .     S
C712   C734    1.404   .     A
C712   H846    1.083   .     S
C712   C94     1.397   1_565 S
C713   C727    1.395   .     A
C713   C744    1.402   .     A
C713   H857    1.084   .     S
C714   C729    1.451   .     S
C714   O1185   1.270   .     S
C714   O1189   1.270   .     S
C715   H770    1.084   .     S
C715   C728    1.394   .     A
C715   C745    1.401   .     A
C716   C746    1.402   .     A
C716   C729    1.395   .     A
C716   H771    1.084   .     S
C717   C748    1.402   .     A
C717   H772    1.084   .     S
C717   C730    1.396   .     A
C718   C740    1.400   .     A
C718   H773    1.084   .     S
C718   C95     1.394   1_565 S
C719   C741    1.401   .     A
C719   H774    1.082   .     S
C720   H775    1.084   .     S
C720   C742    1.400   .     A
C720   C1045   1.394   1_455 S
C721   H776    1.084   .     S
C721   C743    1.400   .     A
C721   C1046   1.394   .     S
C722   C1008   1.454   1_455 S
C722   C1025   1.397   1_455 S
C723   C1022   1.389   1_455 S
C724   C79     1.389   1_565 S
C725   O874    1.270   .     A
C725   O870    1.270   .     A
C725   C730    1.451   .     S
C727   C736    1.452   .     S
C728   C747    1.451   .     S
C728   C87     1.394   1_565 S
C729   C1036   1.394   .     S
C730   C1037   1.394   1_455 S
C731   C757    1.410   .     A
C731   C1065   1.416   .     S
C732   C759    1.410   .     A
C732   C750    1.416   .     A
C733   C751    1.415   .     A
C733   C760    1.408   .     A
C734   C761    1.415   .     A
C734   C120    1.417   1_565 S
C735   C749    1.414   .     A
C735   C762    1.409   .     A
C736   O875    1.270   .     A
C736   O871    1.270   .     A
C737   C763    1.409   .     A
C737   C1066   1.414   .     S
C738   C764    1.412   .     A
C738   C119    1.414   1_565 S
C739   C752    1.417   .     A
C739   C765    1.410   .     A
C740   C766    1.409   .     A
C740   C121    1.416   1_565 S
C741   C767    1.414   .     A
C741   C754    1.417   .     A
C742   C755    1.416   .     A
C742   C768    1.408   .     A
C743   C1072   1.416   .     S
C744   C753    1.417   .     A
C745   C122    1.418   1_565 S
C746   C1071   1.417   .     S
C747   O240    1.271   1_565 S
C747   O245    1.270   1_565 S
C748   C756    1.417   .     A
C749   C750    1.405   .     A
C749   C1047   1.416   1_455 S
C750   C1053   1.414   1_455 S
C751   C752    1.406   .     A
C753   C754    1.406   1_556 S
C754   C753    1.406   1_554 S
C755   C1062   1.417   1_455 S
C755   C756    1.406   1_556 S
C756   C1059   1.416   1_455 S
C756   C755    1.406   1_554 S
C757   C763    1.404   .     A
C757   O913    1.383   .     S
C758   O878    1.276   .     A
C758   O906    1.276   .     A
C759   O914    1.385   .     S
C759   C762    1.405   .     A
C760   C765    1.405   .     A
C760   O915    1.387   .     S
C761   C764    1.407   .     A
C761   O916    1.385   .     S
C762   O917    1.382   .     S
C763   O918    1.384   .     S
C764   O919    1.386   .     S
C765   O921    1.383   .     S
C766   O922    1.384   .     S
C766   C637    1.405   1_556 S
C767   O923    1.387   .     S
C767   C636    1.406   1_554 S
C768   O924    1.384   .     S
C768   C639    1.405   1_556 S
H778   C956    1.115   1_455 S
H782   C957    1.110   1_455 S
H796   C16     1.111   1_565 S
H800   C965    1.114   .     S
H819   C25     1.111   1_565 S
H842   C665    1.109   1_556 S
H853   C670    1.109   1_556 S
H859   C672    1.110   1_554 S
H864   C674    1.109   1_556 S
O865   Zn936   1.935   .     S
O865   Zn944   1.931   .     S
O865   Zn933   1.936   .     S
O866   Zn935   1.939   .     S
O866   C49     1.271   1_565 S
O867   Zn938   1.941   .     S
O868   Zn937   1.941   .     S
O869   Zn947   1.941   .     S
O869   C1030   1.270   1_455 S
O870   Zn946   1.941   .     S
O871   Zn941   1.939   .     S
O872   Zn933   1.939   .     S
O873   Zn943   1.939   .     S
O873   C1030   1.270   1_455 S
O874   Zn942   1.939   .     S
O875   Zn945   1.941   .     S
O876   Zn939   1.932   .     S
O876   Zn941   1.936   .     S
O876   Zn945   1.931   .     S
O877   Zn944   1.941   .     S
O878   Zn936   1.915   .     S
O879   Zn935   1.915   .     S
O880   Zn938   1.919   .     S
O881   Zn937   1.919   .     S
O882   Zn940   1.914   .     S
O883   Zn939   1.914   .     S
O884   Zn934   1.917   .     S
O885   Zn948   1.917   .     S
O886   Zn935   1.917   .     S
O887   Zn942   1.935   .     S
O887   Zn946   1.932   .     S
O887   Zn934   1.936   .     S
O887   Zn1254  1.931   1_455 S
O888   Zn936   1.917   .     S
O889   Zn948   1.915   .     S
O890   Zn934   1.915   .     S
O891   Zn939   1.920   .     S
O892   Zn940   1.920   .     S
O893   Zn937   1.915   .     S
O894   Zn938   1.915   .     S
O895   Zn1259  1.915   .     S
O896   Zn942   1.915   .     S
O897   Zn313   1.919   1_565 S
O898   Zn947   1.932   .     S
O898   Zn937   1.931   .     S
O898   Zn943   1.935   .     S
O898   Zn1264  1.936   1_455 S
O899   Zn944   1.919   .     S
O900   Zn947   1.914   .     S
O901   Zn1262  1.914   .     S
O902   Zn941   1.917   .     S
O903   Zn301   1.917   1_565 S
O904   Zn1258  1.917   .     S
O905   Zn943   1.917   .     S
O906   Zn933   1.915   .     S
O907   Zn309   1.915   1_565 S
O908   Zn946   1.920   .     S
O909   Zn940   1.941   .     S
O910   Zn1263  1.920   .     S
O911   Zn312   1.915   1_565 S
O912   Zn945   1.915   .     S
O916   C15     1.416   1_565 S
O919   C21     1.418   1_565 S
O920   Zn939   1.941   .     S
O930   Zn934   1.939   .     S
O930   C1008   1.270   1_455 S
O931   Zn948   1.939   .     S
O931   C1019   1.271   .     S
O932   Zn936   1.939   .     S
Zn935  O244    1.935   1_565 S
Zn938  O1203   1.931   .     S
Zn940  O233    1.932   1_565 S
Zn942  O1220   1.917   1_455 S
Zn943  O1211   1.915   1_455 S
Zn946  O1217   1.914   1_455 S
Zn947  O1226   1.920   1_455 S
Zn948  O1214   1.936   .     S
C949   O1225   1.268   .     A
C949   C1040   1.448   .     S
C949   O616    1.270   1_565 S
C950   O1195   1.276   .     A
C950   C1016   1.422   .     S
C950   O1223   1.276   .     A
C951   C1059   1.412   .     A
C951   O1241   1.386   .     S
C951   C954    1.404   1_554 S
C952   O1242   1.385   .     S
C952   C1060   1.413   .     A
C952   C1083   1.406   1_556 S
C953   C1061   1.413   .     A
C953   O1243   1.386   .     S
C953   C1082   1.405   1_554 S
C954   C1062   1.412   .     A
C954   O1244   1.385   .     S
C954   C951    1.404   1_556 S
C955   O1245   1.386   .     S
C955   C1064   1.413   .     A
C955   C1084   1.405   1_554 S
C956   H1093   1.115   .     S
C956   C957    1.521   .     S
C956   O1229   1.414   .     S
C956   H778    1.115   1_655 S
C957   H1097   1.111   .     S
C957   H1095   1.110   .     S
C957   H782    1.110   1_655 S
C958   O1230   1.416   .     S
C958   C959    1.525   .     S
C958   H1100   1.111   .     S
C958   H1099   1.117   .     S
C959   H1102   1.110   .     S
C959   H1103   1.109   .     S
C959   H1101   1.111   .     S
C960   H1105   1.110   .     S
C960   H1104   1.113   .     S
C960   C962    1.521   .     S
C960   O1231   1.418   .     S
C961   O1220   1.274   .     A
C961   O1196   1.275   .     A
C961   C1015   1.425   .     S
C962   H1106   1.109   .     S
C962   H1109   1.110   .     S
C962   H1108   1.110   .     S
C963   H1111   1.110   .     S
C963   H1110   1.116   .     S
C963   C964    1.522   .     S
C964   H1113   1.111   .     S
C964   H1114   1.111   .     S
C965   C966    1.518   .     S
C965   H1115   1.115   .     S
C965   O1233   1.412   .     S
C966   H1119   1.111   .     S
C966   H1117   1.111   .     S
C966   H1120   1.111   .     S
C967   C968    1.521   .     S
C967   H1122   1.113   .     S
C967   O1234   1.416   .     S
C967   H1121   1.110   .     S
C968   H1123   1.111   .     S
C968   H1125   1.107   .     S
C968   H1124   1.110   .     S
C969   C970    1.521   .     S
C969   H1127   1.109   .     S
C969   H1126   1.116   .     S
C970   H1130   1.110   .     S
C970   H1128   1.111   .     S
C970   H1131   1.107   .     S
C971   H1133   1.114   .     S
C971   H1132   1.114   .     S
C971   C341    1.521   1_565 S
C971   O605    1.411   1_565 S
C972   O1197   1.275   .     A
C972   C1014   1.425   .     S
C972   O1221   1.274   .     A
C973   H1134   1.111   .     S
C973   H1136   1.111   .     S
C974   O1238   1.411   .     S
C974   H1137   1.113   .     S
C974   C975    1.521   .     S
C974   H1138   1.116   .     S
C975   H1142   1.111   .     S
C975   H1141   1.111   .     S
C975   H1139   1.111   .     S
C976   H1143   1.116   .     S
C976   H1144   1.109   .     S
C976   C977    1.522   .     S
C976   O1239   1.419   .     S
C977   H1147   1.110   .     S
C977   H1145   1.111   .     S
C977   H1146   1.110   .     S
C978   H1148   1.113   .     S
C978   C979    1.521   .     S
C978   H1149   1.116   .     S
C978   O1240   1.411   .     S
C979   H1153   1.111   .     S
C979   H1152   1.111   .     S
C979   H1150   1.111   .     S
C980   O1241   1.417   .     S
C980   H1154   1.116   .     S
C980   C981    1.524   .     S
C980   H1155   1.110   .     S
C981   H1156   1.111   .     S
C981   H1157   1.110   .     S
C981   H1158   1.109   1_554 S
C982   H1160   1.107   .     S
C982   O1242   1.413   .     S
C982   H1159   1.112   .     S
C982   C984    1.520   .     S
C983   O1198   1.273   .     A
C983   C1013   1.422   .     S
C983   O1227   1.273   .     A
C984   H1163   1.111   .     S
C984   H1164   1.111   .     S
C984   H1161   1.111   .     S
C985   H1166   1.110   .     S
C985   C986    1.525   .     S
C985   O1243   1.417   .     S
C985   H1165   1.115   .     S
C986   H1167   1.110   .     S
C986   H1168   1.110   .     S
C986   H1169   1.109   1_554 S
C987   H1170   1.115   .     S
C987   C988    1.526   .     S
C987   H1171   1.111   .     S
C987   O1244   1.416   .     S
C988   H1174   1.111   .     S
C988   H1172   1.109   .     S
C988   H1175   1.110   1_556 S
C989   H1176   1.116   .     S
C989   C990    1.527   .     S
C989   O1245   1.418   .     S
C989   H1177   1.110   .     S
C990   H1179   1.109   .     S
C990   H1178   1.111   .     S
C990   H1180   1.109   1_554 S
C991   O1199   1.273   .     A
C991   C1012   1.422   .     S
C991   O1228   1.273   .     A
C992   O1224   1.276   .     A
C992   C1020   1.425   .     S
C992   O1200   1.275   .     A
C993   C1018   1.425   .     S
C993   O1226   1.276   .     A
C993   O1201   1.275   .     A
C994   O1213   1.275   .     A
C994   C1009   1.425   .     S
C994   O1202   1.274   .     A
C995   O1215   1.275   .     A
C995   O1204   1.274   .     A
C995   C1007   1.425   .     S
C996   O1211   1.276   .     A
C996   C1006   1.422   .     S
C996   O1205   1.276   .     A
C997   O1236   1.271   .     A
C997   C1042   1.455   .     S
C998   C1005   1.422   .     S
C998   O1206   1.276   .     A
C998   O1212   1.276   .     A
C999   O1218   1.275   .     A
C999   O1207   1.276   .     A
C999   C1004   1.425   .     S
C1000  O1208   1.276   .     A
C1000  C1003   1.425   .     S
C1000  O1219   1.275   .     A
C1001  O1209   1.273   .     A
C1001  C1011   1.422   .     S
C1001  O1216   1.273   .     A
C1002  O1217   1.273   .     A
C1002  C1010   1.422   .     S
C1002  O1210   1.273   .     A
C1003  C1020   1.200   .     T
C1004  C1018   1.200   .     T
C1005  C1017   1.198   .     T
C1006  C1016   1.198   .     T
C1007  C1015   1.200   .     T
C1008  O1183   1.272   .     A
C1008  C722    1.454   1_655 S
C1008  O930    1.270   1_655 S
C1009  C1014   1.200   .     T
C1010  C1013   1.198   .     T
C1011  C1012   1.198   .     T
C1017  C1074   1.422   .     S
C1019  C1039   1.448   .     S
C1019  O1184   1.267   .     A
C1021  H1085   1.084   .     S
C1021  C1038   1.396   .     A
C1021  C1051   1.401   .     A
C1022  C1053   1.398   .     A
C1022  H1096   1.084   .     S
C1022  C723    1.389   1_655 S
C1023  C1054   1.404   .     A
C1023  C1040   1.395   .     A
C1023  H1107   1.083   .     S
C1024  C1042   1.395   .     A
C1024  H1118   1.084   .     S
C1024  C1055   1.401   .     A
C1025  H1129   1.084   .     S
C1025  C1047   1.401   .     A
C1025  C722    1.397   1_655 S
C1026  H1140   1.084   .     S
C1026  C1048   1.402   .     A
C1026  C1039   1.396   .     A
C1027  C1049   1.399   .     A
C1027  H1151   1.084   .     S
C1028  C1050   1.404   .     A
C1028  H1162   1.083   .     S
C1028  C410    1.397   1_565 S
C1029  C1043   1.395   .     A
C1029  C1060   1.402   .     A
C1029  H1173   1.084   .     S
C1030  C1045   1.451   .     S
C1030  O869    1.270   1_655 S
C1030  O873    1.270   1_655 S
C1031  H1086   1.084   .     S
C1031  C1044   1.394   .     A
C1031  C1061   1.401   .     A
C1032  C1062   1.402   .     A
C1032  C1045   1.395   .     A
C1032  H1087   1.084   .     S
C1033  C1064   1.402   .     A
C1033  H1088   1.084   .     S
C1033  C1046   1.396   .     A
C1034  C1056   1.400   .     A
C1034  H1089   1.084   .     S
C1034  C411    1.394   1_565 S
C1035  C1057   1.401   .     A
C1035  H1090   1.082   .     S
C1036  H1091   1.084   .     S
C1036  C1058   1.400   .     A
C1037  H1092   1.084   .     S
C1037  C1059   1.400   .     A
C1037  C730    1.394   1_655 S
C1040  C395    1.389   1_565 S
C1041  O1190   1.270   .     A
C1041  O1186   1.270   .     A
C1041  C1046   1.451   .     S
C1043  C1052   1.452   .     S
C1044  C1063   1.451   .     S
C1044  C403    1.394   1_565 S
C1045  C720    1.394   1_655 S
C1047  C1073   1.410   .     A
C1047  C749    1.416   1_655 S
C1048  C1075   1.410   .     A
C1048  C1066   1.416   .     A
C1049  C1067   1.415   .     A
C1049  C1076   1.408   .     A
C1050  C1077   1.415   .     A
C1050  C436    1.417   1_565 S
C1051  C1065   1.414   .     A
C1051  C1078   1.409   .     A
C1052  O1191   1.270   .     A
C1052  O1187   1.270   .     A
C1053  C1079   1.409   .     A
C1053  C750    1.414   1_655 S
C1054  C1080   1.412   .     A
C1054  C435    1.414   1_565 S
C1055  C1068   1.417   .     A
C1055  C1081   1.410   .     A
C1056  C1082   1.409   .     A
C1056  C437    1.416   1_565 S
C1057  C1083   1.414   .     A
C1057  C1070   1.417   .     A
C1058  C1071   1.416   .     A
C1058  C1084   1.408   .     A
C1059  C756    1.416   1_655 S
C1060  C1069   1.417   .     A
C1061  C438    1.418   1_565 S
C1062  C755    1.417   1_655 S
C1063  O556    1.271   1_565 S
C1063  O561    1.270   1_565 S
C1064  C1072   1.417   .     A
C1065  C1066   1.405   .     A
C1067  C1068   1.406   .     A
C1069  C1070   1.406   1_556 S
C1070  C1069   1.406   1_554 S
C1071  C1072   1.406   1_556 S
C1072  C1071   1.406   1_554 S
C1073  C1079   1.404   .     A
C1073  O1229   1.383   .     S
C1074  O1194   1.276   .     A
C1074  O1222   1.276   .     A
C1075  O1230   1.385   .     S
C1075  C1078   1.405   .     A
C1076  C1081   1.405   .     A
C1076  O1231   1.387   .     S
C1077  C1080   1.407   .     A
C1077  O1232   1.385   .     S
C1078  O1233   1.382   .     S
C1079  O1234   1.384   .     S
C1080  O1235   1.386   .     S
C1081  O1237   1.383   .     S
C1082  O1238   1.384   .     S
C1082  C953    1.405   1_556 S
C1083  O1239   1.387   .     S
C1083  C952    1.406   1_554 S
C1084  O1240   1.384   .     S
C1084  C955    1.405   1_556 S
H1112  C332    1.111   1_565 S
H1116  C649    1.114   1_655 S
H1135  C341    1.111   1_565 S
H1158  C981    1.109   1_556 S
H1169  C986    1.109   1_556 S
H1175  C988    1.110   1_554 S
H1180  C990    1.109   1_556 S
O1181  Zn1252  1.935   .     S
O1181  Zn1260  1.931   .     S
O1181  Zn1249  1.936   .     S
O1182  Zn1251  1.939   .     S
O1182  C365    1.271   1_565 S
O1183  Zn1254  1.941   .     S
O1184  Zn1253  1.941   .     S
O1185  Zn1263  1.941   .     S
O1186  Zn1262  1.941   .     S
O1187  Zn1257  1.939   .     S
O1188  Zn1249  1.939   .     S
O1189  Zn1259  1.939   .     S
O1190  Zn1258  1.939   .     S
O1191  Zn1261  1.941   .     S
O1192  Zn1255  1.932   .     S
O1192  Zn1257  1.936   .     S
O1192  Zn1261  1.931   .     S
O1193  Zn1260  1.941   .     S
O1194  Zn1252  1.915   .     S
O1195  Zn1251  1.915   .     S
O1196  Zn1254  1.919   .     S
O1197  Zn1253  1.919   .     S
O1198  Zn1256  1.914   .     S
O1199  Zn1255  1.914   .     S
O1200  Zn1250  1.917   .     S
O1201  Zn1264  1.917   .     S
O1202  Zn1251  1.917   .     S
O1203  Zn1258  1.935   .     S
O1203  Zn1262  1.932   .     S
O1203  Zn1250  1.936   .     S
O1204  Zn1252  1.917   .     S
O1205  Zn1264  1.915   .     S
O1206  Zn1250  1.915   .     S
O1207  Zn1255  1.920   .     S
O1208  Zn1256  1.920   .     S
O1209  Zn1253  1.915   .     S
O1210  Zn1254  1.915   .     S
O1211  Zn943   1.915   1_655 S
O1212  Zn1258  1.915   .     S
O1213  Zn629   1.919   1_565 S
O1214  Zn1263  1.932   .     S
O1214  Zn1253  1.931   .     S
O1214  Zn1259  1.935   .     S
O1215  Zn1260  1.919   .     S
O1216  Zn1263  1.914   .     S
O1217  Zn946   1.914   1_655 S
O1218  Zn1257  1.917   .     S
O1219  Zn617   1.917   1_565 S
O1220  Zn942   1.917   1_655 S
O1221  Zn1259  1.917   .     S
O1222  Zn1249  1.915   .     S
O1223  Zn625   1.915   1_565 S
O1224  Zn1262  1.920   .     S
O1225  Zn1256  1.941   .     S
O1226  Zn947   1.920   1_655 S
O1227  Zn628   1.915   1_565 S
O1228  Zn1261  1.915   .     S
O1232  C331    1.416   1_565 S
O1235  C337    1.418   1_565 S
O1236  Zn1255  1.941   .     S
O1246  Zn1250  1.939   .     S
O1247  Zn1264  1.939   .     S
O1247  C703    1.271   1_655 S
O1248  Zn1252  1.939   .     S
Zn1251 O560    1.935   1_565 S
Zn1254 O887    1.931   1_655 S
Zn1256 O549    1.932   1_565 S
Zn1264 O898    1.936   1_655 S
