data_str_m1_o2_o5_pcu_sym.39
_audit_creation_date              2020-01-03
_audit_creation_method            'Materials Studio'
_symmetry_space_group_name_H-M    'P1'
_symmetry_Int_Tables_number       1
_symmetry_cell_setting            triclinic
loop_
_symmetry_equiv_pos_as_xyz
  x,y,z
_cell_length_a                    24.5046
_cell_length_b                    24.5042
_cell_length_c                    22.4826
_cell_angle_alpha                 90.0025
_cell_angle_beta                  90.0017
_cell_angle_gamma                 89.9995
loop_
_atom_site_label
_atom_site_type_symbol
_atom_site_fract_x
_atom_site_fract_y
_atom_site_fract_z
_atom_site_U_iso_or_equiv
_atom_site_adp_type
_atom_site_occupancy
Zn1    Zn    0.06497   0.50000   0.29947   0.00000  Uiso   1.00
Zn2    Zn    0.93503   0.50000   0.70053   0.00000  Uiso   1.00
Zn3    Zn    0.50000   0.93503   0.29947   0.00000  Uiso   1.00
Zn4    Zn    0.50000   0.06497   0.70053   0.00000  Uiso   1.00
Zn5    Zn    0.93503   0.50000   0.29947   0.00000  Uiso   1.00
Zn6    Zn    0.06497   0.50000   0.70053   0.00000  Uiso   1.00
Zn7    Zn    0.50000   0.06497   0.29947   0.00000  Uiso   1.00
Zn8    Zn    0.50000   0.93503   0.70053   0.00000  Uiso   1.00
Zn9    Zn    0.56497  -0.00000   0.79947   0.00000  Uiso   1.00
Zn10   Zn    0.43503  -0.00000   0.20053   0.00000  Uiso   1.00
Zn11   Zn    0.00000   0.43503   0.79947   0.00000  Uiso   1.00
Zn12   Zn    0.00000   0.56497   0.20053   0.00000  Uiso   1.00
Zn13   Zn    0.43503  -0.00000   0.79947   0.00000  Uiso   1.00
Zn14   Zn    0.56497  -0.00000   0.20053   0.00000  Uiso   1.00
Zn15   Zn    0.00000   0.56497   0.79947   0.00000  Uiso   1.00
Zn16   Zn    0.00000   0.43503   0.20053   0.00000  Uiso   1.00
C1     C     0.22864   0.27135   0.25001   0.00000  Uiso   1.00
C2     C     0.77111   0.72891   0.74999   0.00000  Uiso   1.00
C3     C     0.27147   0.77156   0.25003   0.00000  Uiso   1.00
C4     C     0.72887   0.22890   0.74999   0.00000  Uiso   1.00
C5     C     0.77150   0.72847   0.24998   0.00000  Uiso   1.00
C6     C     0.22906   0.27095   0.75001   0.00000  Uiso   1.00
C7     C     0.72839   0.22875   0.24980   0.00000  Uiso   1.00
C8     C     0.27108   0.77113   0.74998   0.00000  Uiso   1.00
C9     C     0.77134   0.27136   0.75000   0.00000  Uiso   1.00
C10    C     0.22901   0.72908   0.25004   0.00000  Uiso   1.00
C11    C     0.72865   0.77137   0.74999   0.00000  Uiso   1.00
C12    C     0.27110   0.22889   0.25001   0.00000  Uiso   1.00
C13    C     0.22862   0.72867   0.74999   0.00000  Uiso   1.00
C14    C     0.77088   0.27120   0.24975   0.00000  Uiso   1.00
C15    C     0.27153   0.22848   0.75001   0.00000  Uiso   1.00
C16    C     0.72903   0.77095   0.24998   0.00000  Uiso   1.00
O1     O     0.00000   0.50000   0.25000   0.00000  Uiso   1.00
O2     O     0.00000   0.50000   0.75000   0.00000  Uiso   1.00
O3     O     0.50000  -0.00000   0.25000   0.00000  Uiso   1.00
O4     O     0.50000  -0.00000   0.75000   0.00000  Uiso   1.00
O5     O     0.00000   0.45454   0.11798   0.00000  Uiso   1.00
O6     O     0.00000   0.54546   0.88202   0.00000  Uiso   1.00
O7     O     0.45454  -0.00000   0.11798   0.00000  Uiso   1.00
O8     O     0.54546  -0.00000   0.88202   0.00000  Uiso   1.00
O9     O     0.00000   0.54546   0.11798   0.00000  Uiso   1.00
O10    O     0.00000   0.45454   0.88202   0.00000  Uiso   1.00
O11    O     0.54546  -0.00000   0.11798   0.00000  Uiso   1.00
O12    O     0.45454  -0.00000   0.88202   0.00000  Uiso   1.00
O13    O     0.50000   0.95454   0.61798   0.00000  Uiso   1.00
O14    O     0.50000   0.04546   0.38202   0.00000  Uiso   1.00
O15    O     0.95454   0.50000   0.61798   0.00000  Uiso   1.00
O16    O     0.04546   0.50000   0.38202   0.00000  Uiso   1.00
O17    O     0.50000   0.04546   0.61798   0.00000  Uiso   1.00
O18    O     0.50000   0.95454   0.38202   0.00000  Uiso   1.00
O19    O     0.04546   0.50000   0.61798   0.00000  Uiso   1.00
O20    O     0.95454   0.50000   0.38202   0.00000  Uiso   1.00
O21    O     0.06399   0.60947   0.21539   0.00000  Uiso   1.00
O22    O     0.93601   0.39053   0.78461   0.00000  Uiso   1.00
O23    O     0.60947   0.93601   0.21539   0.00000  Uiso   1.00
O24    O     0.39053   0.06399   0.78461   0.00000  Uiso   1.00
O25    O     0.93601   0.39053   0.21539   0.00000  Uiso   1.00
O26    O     0.06399   0.60947   0.78461   0.00000  Uiso   1.00
O27    O     0.39053   0.06399   0.21539   0.00000  Uiso   1.00
O28    O     0.60947   0.93601   0.78461   0.00000  Uiso   1.00
O29    O     0.93601   0.60947   0.78461   0.00000  Uiso   1.00
O30    O     0.06399   0.39053   0.21539   0.00000  Uiso   1.00
O31    O     0.39053   0.93601   0.78461   0.00000  Uiso   1.00
O32    O     0.60947   0.06399   0.21539   0.00000  Uiso   1.00
O33    O     0.06399   0.39053   0.78461   0.00000  Uiso   1.00
O34    O     0.93601   0.60947   0.21539   0.00000  Uiso   1.00
O35    O     0.60947   0.06399   0.78461   0.00000  Uiso   1.00
O36    O     0.39053   0.93601   0.21539   0.00000  Uiso   1.00
O37    O     0.56399   0.10947   0.71539   0.00000  Uiso   1.00
O38    O     0.43601   0.89053   0.28461   0.00000  Uiso   1.00
O39    O     0.10947   0.43601   0.71539   0.00000  Uiso   1.00
O40    O     0.89053   0.56399   0.28461   0.00000  Uiso   1.00
O41    O     0.43601   0.89053   0.71539   0.00000  Uiso   1.00
O42    O     0.56399   0.10947   0.28461   0.00000  Uiso   1.00
O43    O     0.89053   0.56399   0.71539   0.00000  Uiso   1.00
O44    O     0.10947   0.43601   0.28461   0.00000  Uiso   1.00
O45    O     0.43601   0.10947   0.28461   0.00000  Uiso   1.00
O46    O     0.56399   0.89053   0.71539   0.00000  Uiso   1.00
O47    O     0.89053   0.43601   0.28461   0.00000  Uiso   1.00
O48    O     0.10947   0.56399   0.71539   0.00000  Uiso   1.00
O49    O     0.56399   0.89053   0.28461   0.00000  Uiso   1.00
O50    O     0.43601   0.10947   0.71539   0.00000  Uiso   1.00
O51    O     0.10947   0.56399   0.28461   0.00000  Uiso   1.00
O52    O     0.89053   0.43601   0.71539   0.00000  Uiso   1.00
C17    C     0.00000   0.50000   0.47332   0.00000  Uiso   1.00
C18    C    -0.00000   0.50000   0.52668   0.00000  Uiso   1.00
C19    C     0.50000   0.00000   0.47332   0.00000  Uiso   1.00
C20    C     0.50000  -0.00000   0.52668   0.00000  Uiso   1.00
C21    C     0.50000   0.00000   0.97332   0.00000  Uiso   1.00
C22    C     0.50000   0.00000   0.02668   0.00000  Uiso   1.00
C23    C    -0.00000   0.50000   0.97332   0.00000  Uiso   1.00
C24    C    -0.00000   0.50000   0.02668   0.00000  Uiso   1.00
C25    C    -0.00000   0.50000   0.09003   0.00000  Uiso   1.00
C26    C     0.00000   0.50000   0.90997   0.00000  Uiso   1.00
C27    C     0.50000  -0.00000   0.09003   0.00000  Uiso   1.00
C28    C     0.50000   0.00000   0.90997   0.00000  Uiso   1.00
C29    C     0.50000  -0.00000   0.59003   0.00000  Uiso   1.00
C30    C     0.50000   0.00000   0.40997   0.00000  Uiso   1.00
C31    C     0.00000   0.50000   0.59003   0.00000  Uiso   1.00
C32    C     0.00000   0.50000   0.40997   0.00000  Uiso   1.00
C33    C     0.10525   0.60526   0.25000   0.00000  Uiso   1.00
C34    C     0.89483   0.39484   0.75000   0.00000  Uiso   1.00
C35    C     0.60526   0.89474   0.25000   0.00000  Uiso   1.00
C36    C     0.39487   0.10513   0.75000   0.00000  Uiso   1.00
C37    C     0.89476   0.39477   0.24999   0.00000  Uiso   1.00
C38    C     0.10516   0.60516   0.75000   0.00000  Uiso   1.00
C39    C     0.39478   0.10522   0.25000   0.00000  Uiso   1.00
C40    C     0.60516   0.89484   0.75000   0.00000  Uiso   1.00
C41    C     0.89478   0.60522   0.75000   0.00000  Uiso   1.00
C42    C     0.10516   0.39484   0.25000   0.00000  Uiso   1.00
C43    C     0.39478   0.89478   0.74999   0.00000  Uiso   1.00
C44    C     0.60514   0.10515   0.24999   0.00000  Uiso   1.00
C45    C     0.10526   0.39474   0.75000   0.00000  Uiso   1.00
C46    C     0.89487   0.60513   0.25000   0.00000  Uiso   1.00
C47    C     0.60522   0.10522   0.75000   0.00000  Uiso   1.00
C48    C     0.39487   0.89487   0.25000   0.00000  Uiso   1.00
C49    C     0.20102   0.28407   0.19691   0.00000  Uiso   1.00
C50    C     0.82502   0.74245   0.76582   0.00000  Uiso   1.00
C51    C     0.28619   0.79698   0.19642   0.00000  Uiso   1.00
C52    C     0.74244   0.17495   0.76569   0.00000  Uiso   1.00
C53    C     0.79696   0.71378   0.19638   0.00000  Uiso   1.00
C54    C     0.17574   0.25798   0.76841   0.00000  Uiso   1.00
C55    C     0.71470   0.20223   0.19650   0.00000  Uiso   1.00
C56    C     0.25754   0.82505   0.76577   0.00000  Uiso   1.00
C57    C     0.79912   0.28393   0.80305   0.00000  Uiso   1.00
C58    C     0.17566   0.74206   0.23174   0.00000  Uiso   1.00
C59    C     0.71589   0.79896   0.80310   0.00000  Uiso   1.00
C60    C     0.25755   0.17496   0.23424   0.00000  Uiso   1.00
C61    C     0.20100   0.71594   0.80309   0.00000  Uiso   1.00
C62    C     0.82456   0.25781   0.23301   0.00000  Uiso   1.00
C63    C     0.28632   0.20312   0.80363   0.00000  Uiso   1.00
C64    C     0.74203   0.82429   0.23172   0.00000  Uiso   1.00
C65    C     0.70105   0.78412   0.69688   0.00000  Uiso   1.00
C66    C     0.32502   0.24244   0.26578   0.00000  Uiso   1.00
C67    C     0.78392   0.29914   0.69695   0.00000  Uiso   1.00
C68    C     0.24201   0.67574   0.26834   0.00000  Uiso   1.00
C69    C     0.29689   0.21370   0.69638   0.00000  Uiso   1.00
C70    C     0.67568   0.75795   0.26823   0.00000  Uiso   1.00
C71    C     0.21589   0.70104   0.69689   0.00000  Uiso   1.00
C72    C     0.75759   0.32490   0.26653   0.00000  Uiso   1.00
C73    C     0.29692   0.78627   0.30363   0.00000  Uiso   1.00
C74    C     0.67493   0.24245   0.73428   0.00000  Uiso   1.00
C75    C     0.21591   0.29897   0.30310   0.00000  Uiso   1.00
C76    C     0.75756   0.67499   0.73416   0.00000  Uiso   1.00
C77    C     0.70197   0.21508   0.30316   0.00000  Uiso   1.00
C78    C     0.32500   0.75757   0.73420   0.00000  Uiso   1.00
C79    C     0.78619   0.70302   0.30358   0.00000  Uiso   1.00
C80    C     0.24202   0.32427   0.73161   0.00000  Uiso   1.00
C81    C     0.16062   0.32452   0.19669   0.00000  Uiso   1.00
C82    C     0.86562   0.70221   0.76549   0.00000  Uiso   1.00
C83    C     0.32624   0.83789   0.19622   0.00000  Uiso   1.00
C84    C     0.70220   0.13436   0.76538   0.00000  Uiso   1.00
C85    C     0.83789   0.67374   0.19620   0.00000  Uiso   1.00
C86    C     0.13512   0.29822   0.76822   0.00000  Uiso   1.00
C87    C     0.67466   0.16131   0.19637   0.00000  Uiso   1.00
C88    C     0.29778   0.86565   0.76543   0.00000  Uiso   1.00
C89    C     0.83950   0.32438   0.80328   0.00000  Uiso   1.00
C90    C     0.13505   0.70181   0.23192   0.00000  Uiso   1.00
C91    C     0.67545   0.83935   0.80332   0.00000  Uiso   1.00
C92    C     0.29779   0.13437   0.23457   0.00000  Uiso   1.00
C93    C     0.16062   0.67549   0.80331   0.00000  Uiso   1.00
C94    C     0.86522   0.29802   0.23322   0.00000  Uiso   1.00
C95    C     0.32635   0.16219   0.80382   0.00000  Uiso   1.00
C96    C     0.70180   0.86492   0.23191   0.00000  Uiso   1.00
C97    C     0.66065   0.82456   0.69667   0.00000  Uiso   1.00
C98    C     0.36562   0.20221   0.26545   0.00000  Uiso   1.00
C99    C     0.82437   0.33952   0.69674   0.00000  Uiso   1.00
C100   C     0.20178   0.63511   0.26815   0.00000  Uiso   1.00
C101   C     0.33782   0.17366   0.69619   0.00000  Uiso   1.00
C102   C     0.63506   0.79819   0.26806   0.00000  Uiso   1.00
C103   C     0.17545   0.66064   0.69668   0.00000  Uiso   1.00
C104   C     0.79790   0.36545   0.26646   0.00000  Uiso   1.00
C105   C     0.33786   0.82630   0.30381   0.00000  Uiso   1.00
C106   C     0.63434   0.20221   0.73462   0.00000  Uiso   1.00
C107   C     0.17547   0.33937   0.30332   0.00000  Uiso   1.00
C108   C     0.79780   0.63439   0.73449   0.00000  Uiso   1.00
C109   C     0.66117   0.17491   0.30342   0.00000  Uiso   1.00
C110   C     0.36560   0.79780   0.73453   0.00000  Uiso   1.00
C111   C     0.82624   0.66210   0.30378   0.00000  Uiso   1.00
C112   C     0.20178   0.36489   0.73179   0.00000  Uiso   1.00
C113   C     0.14762   0.35238   0.25000   0.00000  Uiso   1.00
C114   C     0.85221   0.64779   0.75000   0.00000  Uiso   1.00
C115   C     0.35246   0.85248   0.25001   0.00000  Uiso   1.00
C116   C     0.64777   0.14778   0.75001   0.00000  Uiso   1.00
C117   C     0.85247   0.64753   0.24999   0.00000  Uiso   1.00
C118   C     0.14789   0.35212   0.75000   0.00000  Uiso   1.00
C119   C     0.64753   0.14764   0.24993   0.00000  Uiso   1.00
C120   C     0.35220   0.85223   0.74998   0.00000  Uiso   1.00
C121   C     0.85237   0.35238   0.75001   0.00000  Uiso   1.00
C122   C     0.14786   0.64790   0.25002   0.00000  Uiso   1.00
C123   C     0.64762   0.85238   0.75000   0.00000  Uiso   1.00
C124   C     0.35221   0.14778   0.25001   0.00000  Uiso   1.00
C125   C     0.14761   0.64763   0.74999   0.00000  Uiso   1.00
C126   C     0.85212   0.35223   0.24990   0.00000  Uiso   1.00
C127   C     0.35248   0.14753   0.75000   0.00000  Uiso   1.00
C128   C     0.64787   0.85212   0.24999   0.00000  Uiso   1.00
O53    O     0.21157   0.25521   0.14523   0.00000  Uiso   1.00
C129   C     0.25583   0.27957   0.11522   0.00000  Uiso   1.00
H1     H     0.29423   0.27399   0.14065   0.00000  Uiso   1.00
H2     H     0.24858   0.32389   0.10720   0.00000  Uiso   1.00
C130   C     0.26327   0.25163   0.05555   0.00000  Uiso   1.00
H3     H     0.22569   0.25616   0.02842   0.00000  Uiso   1.00
H4     H     0.29816   0.27051   0.03176   0.00000  Uiso   1.00
H5     H     0.27184   0.20753   0.06219   0.00000  Uiso   1.00
O54    O     0.83803   0.79467   0.78473   0.00000  Uiso   1.00
C131   C     0.85164   0.82733   0.73519   0.00000  Uiso   1.00
H6     H     0.81390   0.84071   0.71203   0.00000  Uiso   1.00
H7     H     0.87890   0.80566   0.70321   0.00000  Uiso   1.00
C132   C     0.88133   0.87808   0.75677   0.00000  Uiso   1.00
H8     H     0.91958   0.86631   0.77997   0.00000  Uiso   1.00
H9     H     0.89167   0.90456   0.71831   0.00000  Uiso   1.00
H10    H     0.85493   0.90134   0.78793   0.00000  Uiso   1.00
O55    O     0.25978   0.78253   0.14427   0.00000  Uiso   1.00
C133   C     0.29368   0.74892   0.10884   0.00000  Uiso   1.00
H11    H     0.33411   0.73882   0.12890   0.00000  Uiso   1.00
H12    H     0.30206   0.77063   0.06653   0.00000  Uiso   1.00
C134   C     0.26376   0.69598   0.09489   0.00000  Uiso   1.00
H13    H     0.22414   0.70493   0.07303   0.00000  Uiso   1.00
H14    H     0.28892   0.67035   0.06478   0.00000  Uiso   1.00
H15    H     0.25579   0.67290   0.13641   0.00000  Uiso   1.00
O56    O     0.79469   0.16189   0.78447   0.00000  Uiso   1.00
C135   C     0.82728   0.14834   0.73486   0.00000  Uiso   1.00
H16    H     0.84091   0.18614   0.71198   0.00000  Uiso   1.00
H17    H     0.80547   0.12140   0.70266   0.00000  Uiso   1.00
C136   C     0.87782   0.11820   0.75627   0.00000  Uiso   1.00
H18    H     0.86579   0.07988   0.77918   0.00000  Uiso   1.00
H19    H     0.90426   0.10791   0.71775   0.00000  Uiso   1.00
H20    H     0.90122   0.14427   0.78763   0.00000  Uiso   1.00
O57    O     0.78255   0.74021   0.14423   0.00000  Uiso   1.00
C137   C     0.74894   0.70632   0.10878   0.00000  Uiso   1.00
H21    H     0.73883   0.66588   0.12881   0.00000  Uiso   1.00
H22    H     0.77067   0.69795   0.06647   0.00000  Uiso   1.00
C138   C     0.69601   0.73625   0.09481   0.00000  Uiso   1.00
H23    H     0.70498   0.77587   0.07297   0.00000  Uiso   1.00
H24    H     0.67040   0.71110   0.06469   0.00000  Uiso   1.00
H25    H     0.67292   0.74421   0.13633   0.00000  Uiso   1.00
O58    O     0.16360   0.20628   0.78949   0.00000  Uiso   1.00
C139   C     0.14620   0.17325   0.74174   0.00000  Uiso   1.00
H26    H     0.18047   0.16554   0.71063   0.00000  Uiso   1.00
H27    H     0.11159   0.19223   0.71710   0.00000  Uiso   1.00
C140   C     0.12718   0.11855   0.76596   0.00000  Uiso   1.00
H28    H     0.09245   0.12464   0.79700   0.00000  Uiso   1.00
H29    H     0.11373   0.09195   0.72874   0.00000  Uiso   1.00
H30    H     0.16114   0.09814   0.78998   0.00000  Uiso   1.00
O59    O     0.74212   0.21559   0.14463   0.00000  Uiso   1.00
C141   C     0.70898   0.24858   0.10768   0.00000  Uiso   1.00
H31    H     0.66823   0.25922   0.12663   0.00000  Uiso   1.00
H32    H     0.70127   0.22601   0.06575   0.00000  Uiso   1.00
C142   C     0.73933   0.30111   0.09307   0.00000  Uiso   1.00
H33    H     0.77920   0.29158   0.07204   0.00000  Uiso   1.00
H34    H     0.71470   0.32630   0.06202   0.00000  Uiso   1.00
H35    H     0.74684   0.32491   0.13422   0.00000  Uiso   1.00
O60    O     0.20531   0.83808   0.78464   0.00000  Uiso   1.00
C143   C     0.17268   0.85169   0.73507   0.00000  Uiso   1.00
H36    H     0.15925   0.81395   0.71194   0.00000  Uiso   1.00
H37    H     0.19440   0.87889   0.70306   0.00000  Uiso   1.00
C144   C     0.12198   0.88149   0.75660   0.00000  Uiso   1.00
H38    H     0.13380   0.91975   0.77975   0.00000  Uiso   1.00
H39    H     0.09552   0.89183   0.71812   0.00000  Uiso   1.00
H40    H     0.09867   0.85516   0.78779   0.00000  Uiso   1.00
O61    O     0.78889   0.25472   0.85457   0.00000  Uiso   1.00
C145   C     0.74473   0.27877   0.88504   0.00000  Uiso   1.00
H41    H     0.70654   0.27529   0.85880   0.00000  Uiso   1.00
H42    H     0.75301   0.32248   0.89540   0.00000  Uiso   1.00
C146   C     0.73571   0.24839   0.94301   0.00000  Uiso   1.00
H43    H     0.77290   0.25092   0.97107   0.00000  Uiso   1.00
H44    H     0.70078   0.26689   0.96711   0.00000  Uiso   1.00
H45    H     0.72638   0.20482   0.93387   0.00000  Uiso   1.00
O62    O     0.16348   0.79380   0.21077   0.00000  Uiso   1.00
C147   C     0.14611   0.82674   0.25860   0.00000  Uiso   1.00
H46    H     0.18044   0.83448   0.28964   0.00000  Uiso   1.00
H47    H     0.11159   0.80768   0.28330   0.00000  Uiso   1.00
C148   C     0.12694   0.88144   0.23449   0.00000  Uiso   1.00
H48    H     0.09216   0.87531   0.20353   0.00000  Uiso   1.00
H49    H     0.11352   0.90797   0.27177   0.00000  Uiso   1.00
H50    H     0.16081   0.90193   0.21041   0.00000  Uiso   1.00
O63    O     0.74474   0.78839   0.85478   0.00000  Uiso   1.00
C149   C     0.72039   0.74411   0.88476   0.00000  Uiso   1.00
H51    H     0.72590   0.70573   0.85926   0.00000  Uiso   1.00
H52    H     0.67610   0.75140   0.89287   0.00000  Uiso   1.00
C150   C     0.74843   0.73656   0.94436   0.00000  Uiso   1.00
H53    H     0.74398   0.77410   0.97156   0.00000  Uiso   1.00
H54    H     0.72956   0.70165   0.96814   0.00000  Uiso   1.00
H55    H     0.79250   0.72796   0.93762   0.00000  Uiso   1.00
O64    O     0.20531   0.16194   0.21540   0.00000  Uiso   1.00
C151   C     0.17272   0.14831   0.26499   0.00000  Uiso   1.00
H56    H     0.15929   0.18605   0.28812   0.00000  Uiso   1.00
H57    H     0.19446   0.12112   0.29699   0.00000  Uiso   1.00
C152   C     0.12201   0.11849   0.24349   0.00000  Uiso   1.00
H58    H     0.13384   0.08024   0.22034   0.00000  Uiso   1.00
H59    H     0.09558   0.10814   0.28199   0.00000  Uiso   1.00
H60    H     0.09868   0.14481   0.21232   0.00000  Uiso   1.00
O65    O     0.21155   0.74481   0.85476   0.00000  Uiso   1.00
C153   C     0.25582   0.72046   0.88477   0.00000  Uiso   1.00
H61    H     0.29422   0.72603   0.85933   0.00000  Uiso   1.00
H62    H     0.24857   0.67615   0.89282   0.00000  Uiso   1.00
C154   C     0.26329   0.74844   0.94441   0.00000  Uiso   1.00
H63    H     0.22573   0.74392   0.97156   0.00000  Uiso   1.00
H64    H     0.29820   0.72958   0.96821   0.00000  Uiso   1.00
H65    H     0.27186   0.79253   0.93774   0.00000  Uiso   1.00
O66    O     0.83709   0.20565   0.21359   0.00000  Uiso   1.00
C155   C     0.85356   0.17372   0.26261   0.00000  Uiso   1.00
H66    H     0.81863   0.16656   0.29301   0.00000  Uiso   1.00
H67    H     0.88756   0.19332   0.28765   0.00000  Uiso   1.00
C156   C     0.87325   0.11857   0.24029   0.00000  Uiso   1.00
H68    H     0.90865   0.12412   0.21003   0.00000  Uiso   1.00
H69    H     0.88593   0.09282   0.27851   0.00000  Uiso   1.00
H70    H     0.83990   0.09756   0.21589   0.00000  Uiso   1.00
O67    O     0.25999   0.21764   0.85581   0.00000  Uiso   1.00
C157   C     0.29397   0.25128   0.89113   0.00000  Uiso   1.00
H71    H     0.33438   0.26134   0.87098   0.00000  Uiso   1.00
H72    H     0.30242   0.22960   0.93345   0.00000  Uiso   1.00
C158   C     0.26410   0.30424   0.90509   0.00000  Uiso   1.00
H73    H     0.22452   0.29532   0.92704   0.00000  Uiso   1.00
H74    H     0.28933   0.32988   0.93512   0.00000  Uiso   1.00
H75    H     0.25606   0.32728   0.86356   0.00000  Uiso   1.00
O68    O     0.79378   0.83648   0.21079   0.00000  Uiso   1.00
C159   C     0.82669   0.85383   0.25866   0.00000  Uiso   1.00
H76    H     0.83444   0.81949   0.28966   0.00000  Uiso   1.00
H77    H     0.80761   0.88833   0.28338   0.00000  Uiso   1.00
C160   C     0.88139   0.87305   0.23459   0.00000  Uiso   1.00
H78    H     0.87525   0.90785   0.20365   0.00000  Uiso   1.00
H79    H     0.90790   0.88645   0.27189   0.00000  Uiso   1.00
H80    H     0.90190   0.83920   0.21049   0.00000  Uiso   1.00
O69    O     0.71162   0.75528   0.64520   0.00000  Uiso   1.00
C161   C     0.75591   0.77964   0.61522   0.00000  Uiso   1.00
H81    H     0.79429   0.77409   0.64071   0.00000  Uiso   1.00
H82    H     0.74863   0.82394   0.60716   0.00000  Uiso   1.00
C162   C     0.76343   0.75164   0.55560   0.00000  Uiso   1.00
H83    H     0.72588   0.75613   0.52842   0.00000  Uiso   1.00
H84    H     0.79834   0.77052   0.53182   0.00000  Uiso   1.00
H85    H     0.77202   0.70756   0.56230   0.00000  Uiso   1.00
O70    O     0.33804   0.29469   0.28462   0.00000  Uiso   1.00
C163   C     0.35167   0.32728   0.23504   0.00000  Uiso   1.00
H86    H     0.31393   0.34070   0.21190   0.00000  Uiso   1.00
H87    H     0.37886   0.30554   0.20304   0.00000  Uiso   1.00
C164   C     0.38147   0.37799   0.25654   0.00000  Uiso   1.00
H88    H     0.41973   0.36617   0.27969   0.00000  Uiso   1.00
H89    H     0.39182   0.40442   0.21803   0.00000  Uiso   1.00
H90    H     0.35514   0.40131   0.28771   0.00000  Uiso   1.00
O71    O     0.75480   0.28885   0.64538   0.00000  Uiso   1.00
C165   C     0.77886   0.24460   0.61506   0.00000  Uiso   1.00
H91    H     0.77455   0.20633   0.64101   0.00000  Uiso   1.00
H92    H     0.82281   0.25244   0.60552   0.00000  Uiso   1.00
C166   C     0.74929   0.23622   0.55649   0.00000  Uiso   1.00
H93    H     0.75263   0.27354   0.52874   0.00000  Uiso   1.00
H94    H     0.76779   0.20124   0.53249   0.00000  Uiso   1.00
H95    H     0.70549   0.22730   0.56476   0.00000  Uiso   1.00
O72    O     0.29375   0.66358   0.28931   0.00000  Uiso   1.00
C167   C     0.32669   0.64622   0.24147   0.00000  Uiso   1.00
H96    H     0.33442   0.68055   0.21044   0.00000  Uiso   1.00
H97    H     0.30765   0.61169   0.21677   0.00000  Uiso   1.00
C168   C     0.38140   0.62707   0.26558   0.00000  Uiso   1.00
H98    H     0.37528   0.59229   0.29654   0.00000  Uiso   1.00
H99    H     0.40793   0.61366   0.22830   0.00000  Uiso   1.00
H100   H     0.40188   0.66095   0.28966   0.00000  Uiso   1.00
O73    O     0.28236   0.24002   0.64421   0.00000  Uiso   1.00
C169   C     0.24873   0.20605   0.60889   0.00000  Uiso   1.00
H101   H     0.23866   0.16564   0.62903   0.00000  Uiso   1.00
H102   H     0.27040   0.19760   0.56656   0.00000  Uiso   1.00
C170   C     0.19576   0.23592   0.59494   0.00000  Uiso   1.00
H103   H     0.20468   0.27551   0.57300   0.00000  Uiso   1.00
H104   H     0.17012   0.21070   0.56491   0.00000  Uiso   1.00
H105   H     0.17273   0.24395   0.63647   0.00000  Uiso   1.00
O74    O     0.66349   0.70620   0.28916   0.00000  Uiso   1.00
C171   C     0.64613   0.67329   0.24129   0.00000  Uiso   1.00
H106   H     0.68048   0.66554   0.21028   0.00000  Uiso   1.00
H107   H     0.61164   0.69237   0.21657   0.00000  Uiso   1.00
C172   C     0.62693   0.61859   0.26535   0.00000  Uiso   1.00
H108   H     0.59213   0.62472   0.29629   0.00000  Uiso   1.00
H109   H     0.61352   0.59208   0.22804   0.00000  Uiso   1.00
H110   H     0.66077   0.59807   0.28945   0.00000  Uiso   1.00
O75    O     0.24475   0.71159   0.64521   0.00000  Uiso   1.00
C173   C     0.22040   0.75585   0.61520   0.00000  Uiso   1.00
H111   H     0.22588   0.79424   0.64068   0.00000  Uiso   1.00
H112   H     0.17612   0.74854   0.60706   0.00000  Uiso   1.00
C174   C     0.24847   0.76339   0.55562   0.00000  Uiso   1.00
H113   H     0.24405   0.72584   0.52843   0.00000  Uiso   1.00
H114   H     0.22961   0.79829   0.53182   0.00000  Uiso   1.00
H115   H     0.29254   0.77200   0.56239   0.00000  Uiso   1.00
O76    O     0.70543   0.33759   0.28580   0.00000  Uiso   1.00
C175   C     0.67360   0.35400   0.23668   0.00000  Uiso   1.00
H116   H     0.66566   0.31875   0.20695   0.00000  Uiso   1.00
H117   H     0.69371   0.38726   0.21091   0.00000  Uiso   1.00
C176   C     0.61895   0.37511   0.25894   0.00000  Uiso   1.00
H118   H     0.62533   0.41094   0.28840   0.00000  Uiso   1.00
H119   H     0.59322   0.38758   0.22063   0.00000  Uiso   1.00
H120   H     0.59746   0.34259   0.28419   0.00000  Uiso   1.00
O77    O     0.28247   0.75989   0.35580   0.00000  Uiso   1.00
C177   C     0.24886   0.79381   0.39121   0.00000  Uiso   1.00
H121   H     0.23876   0.83424   0.37112   0.00000  Uiso   1.00
H122   H     0.27059   0.80222   0.43351   0.00000  Uiso   1.00
C178   C     0.19592   0.76391   0.40519   0.00000  Uiso   1.00
H123   H     0.20488   0.72430   0.42707   0.00000  Uiso   1.00
H124   H     0.17031   0.78910   0.43528   0.00000  Uiso   1.00
H125   H     0.17284   0.75591   0.36367   0.00000  Uiso   1.00
O78    O     0.66187   0.29468   0.71540   0.00000  Uiso   1.00
C179   C     0.64831   0.32736   0.76494   0.00000  Uiso   1.00
H126   H     0.68611   0.34118   0.78768   0.00000  Uiso   1.00
H127   H     0.62151   0.30555   0.79728   0.00000  Uiso   1.00
C180   C     0.61796   0.37774   0.74344   0.00000  Uiso   1.00
H128   H     0.57963   0.36552   0.72067   0.00000  Uiso   1.00
H129   H     0.60767   0.40426   0.78189   0.00000  Uiso   1.00
H130   H     0.64388   0.40114   0.71193   0.00000  Uiso   1.00
O79    O     0.24477   0.28842   0.35479   0.00000  Uiso   1.00
C181   C     0.22040   0.24416   0.38480   0.00000  Uiso   1.00
H131   H     0.22600   0.20576   0.35937   0.00000  Uiso   1.00
H132   H     0.17609   0.25141   0.39280   0.00000  Uiso   1.00
C182   C     0.24833   0.23673   0.44447   0.00000  Uiso   1.00
H133   H     0.24379   0.27431   0.47159   0.00000  Uiso   1.00
H134   H     0.22945   0.20184   0.46827   0.00000  Uiso   1.00
H135   H     0.29243   0.22817   0.43785   0.00000  Uiso   1.00
O80    O     0.70534   0.66198   0.71524   0.00000  Uiso   1.00
C183   C     0.67268   0.64838   0.76478   0.00000  Uiso   1.00
H136   H     0.65930   0.68612   0.78794   0.00000  Uiso   1.00
H137   H     0.69434   0.62112   0.79676   0.00000  Uiso   1.00
C184   C     0.62193   0.61869   0.74319   0.00000  Uiso   1.00
H138   H     0.63371   0.58043   0.72000   0.00000  Uiso   1.00
H139   H     0.59545   0.60835   0.78165   0.00000  Uiso   1.00
H140   H     0.59868   0.64509   0.71203   0.00000  Uiso   1.00
O81    O     0.71529   0.24265   0.35496   0.00000  Uiso   1.00
C185   C     0.74840   0.20970   0.39197   0.00000  Uiso   1.00
H141   H     0.75898   0.16885   0.37323   0.00000  Uiso   1.00
H142   H     0.72597   0.20220   0.43403   0.00000  Uiso   1.00
C186   C     0.80098   0.24013   0.40622   0.00000  Uiso   1.00
H143   H     0.79150   0.28012   0.42700   0.00000  Uiso   1.00
H144   H     0.82624   0.21568   0.43736   0.00000  Uiso   1.00
H145   H     0.82468   0.24739   0.36496   0.00000  Uiso   1.00
O82    O     0.33801   0.70533   0.71535   0.00000  Uiso   1.00
C187   C     0.35162   0.67272   0.76492   0.00000  Uiso   1.00
H146   H     0.31388   0.65933   0.78807   0.00000  Uiso   1.00
H147   H     0.37885   0.69443   0.79691   0.00000  Uiso   1.00
C188   C     0.38137   0.62198   0.74341   0.00000  Uiso   1.00
H148   H     0.41963   0.63377   0.72024   0.00000  Uiso   1.00
H149   H     0.39171   0.59554   0.78191   0.00000  Uiso   1.00
H150   H     0.35501   0.59868   0.71225   0.00000  Uiso   1.00
O83    O     0.75975   0.71743   0.35573   0.00000  Uiso   1.00
C189   C     0.79363   0.75105   0.39118   0.00000  Uiso   1.00
H151   H     0.83407   0.76116   0.37116   0.00000  Uiso   1.00
H152   H     0.80199   0.72934   0.43350   0.00000  Uiso   1.00
C190   C     0.76369   0.80399   0.40513   0.00000  Uiso   1.00
H153   H     0.72406   0.79502   0.42695   0.00000  Uiso   1.00
H154   H     0.78883   0.82961   0.43525   0.00000  Uiso   1.00
H155   H     0.75574   0.82707   0.36360   0.00000  Uiso   1.00
O84    O     0.29373   0.33641   0.71053   0.00000  Uiso   1.00
C191   C     0.32675   0.35382   0.75829   0.00000  Uiso   1.00
H156   H     0.33447   0.31955   0.78939   0.00000  Uiso   1.00
H157   H     0.30777   0.38843   0.78292   0.00000  Uiso   1.00
C192   C     0.38146   0.37284   0.73407   0.00000  Uiso   1.00
H158   H     0.37536   0.40757   0.70302   0.00000  Uiso   1.00
H159   H     0.40805   0.38629   0.77128   0.00000  Uiso   1.00
H160   H     0.40187   0.33888   0.71005   0.00000  Uiso   1.00
N1     N     0.13503   0.33875   0.14131   0.00000  Uiso   1.00
O85    O     0.11460   0.30093   0.10733   0.00000  Uiso   1.00
O86    O     0.13794   0.38857   0.12151   0.00000  Uiso   1.00
N2     N     0.92087   0.71787   0.77830   0.00000  Uiso   1.00
O87    O     0.95861   0.71153   0.73817   0.00000  Uiso   1.00
O88    O     0.93217   0.74469   0.82671   0.00000  Uiso   1.00
N3     N     0.34132   0.86283   0.14077   0.00000  Uiso   1.00
O89    O     0.30396   0.88266   0.10579   0.00000  Uiso   1.00
O90    O     0.39157   0.86040   0.12226   0.00000  Uiso   1.00
N4     N     0.71787   0.07909   0.77807   0.00000  Uiso   1.00
O91    O     0.71146   0.04139   0.73791   0.00000  Uiso   1.00
O92    O     0.74475   0.06773   0.82643   0.00000  Uiso   1.00
N5     N     0.86286   0.65869   0.14077   0.00000  Uiso   1.00
O93    O     0.88271   0.69606   0.10580   0.00000  Uiso   1.00
O94    O     0.86045   0.60844   0.12223   0.00000  Uiso   1.00
N6     N     0.08044   0.28299   0.78414   0.00000  Uiso   1.00
O95    O     0.07104   0.25831   0.83435   0.00000  Uiso   1.00
O96    O     0.04143   0.28683   0.74509   0.00000  Uiso   1.00
N7     N     0.66054   0.13542   0.14115   0.00000  Uiso   1.00
O97    O     0.69846   0.11461   0.10758   0.00000  Uiso   1.00
O98    O     0.61075   0.13808   0.12123   0.00000  Uiso   1.00
N8     N     0.28212   0.92091   0.77818   0.00000  Uiso   1.00
O99    O     0.28852   0.95863   0.73803   0.00000  Uiso   1.00
O100   O     0.25526   0.93225   0.82654   0.00000  Uiso   1.00
N9     N     0.86528   0.33843   0.85861   0.00000  Uiso   1.00
O101   O     0.88589   0.30051   0.89231   0.00000  Uiso   1.00
O102   O     0.86234   0.38817   0.87866   0.00000  Uiso   1.00
N10    N     0.08035   0.71705   0.21611   0.00000  Uiso   1.00
O103   O     0.04138   0.71308   0.25520   0.00000  Uiso   1.00
O104   O     0.07087   0.74184   0.16599   0.00000  Uiso   1.00
N11    N     0.66118   0.86492   0.85870   0.00000  Uiso   1.00
O105   O     0.69898   0.88532   0.89273   0.00000  Uiso   1.00
O106   O     0.61134   0.86201   0.87846   0.00000  Uiso   1.00
N12    N     0.28212   0.07910   0.22183   0.00000  Uiso   1.00
O107   O     0.25524   0.06776   0.17348   0.00000  Uiso   1.00
O108   O     0.28852   0.04138   0.26198   0.00000  Uiso   1.00
N13    N     0.13503   0.66125   0.85868   0.00000  Uiso   1.00
O109   O     0.11460   0.69907   0.89267   0.00000  Uiso   1.00
O110   O     0.13795   0.61143   0.87849   0.00000  Uiso   1.00
N14    N     0.92022   0.28250   0.21899   0.00000  Uiso   1.00
O111   O     0.95858   0.28786   0.25860   0.00000  Uiso   1.00
O112   O     0.93059   0.25635   0.16991   0.00000  Uiso   1.00
N15    N     0.34149   0.13730   0.85927   0.00000  Uiso   1.00
O113   O     0.30417   0.11754   0.89435   0.00000  Uiso   1.00
O114   O     0.39178   0.13969   0.87768   0.00000  Uiso   1.00
N16    N     0.71705   0.91963   0.21614   0.00000  Uiso   1.00
O115   O     0.71308   0.95858   0.25525   0.00000  Uiso   1.00
O116   O     0.74186   0.92912   0.16604   0.00000  Uiso   1.00
N17    N     0.63508   0.83883   0.64129   0.00000  Uiso   1.00
O117   O     0.61469   0.80103   0.60726   0.00000  Uiso   1.00
O118   O     0.63799   0.88867   0.62154   0.00000  Uiso   1.00
N18    N     0.42089   0.21788   0.27819   0.00000  Uiso   1.00
O119   O     0.45860   0.21149   0.23804   0.00000  Uiso   1.00
O120   O     0.43222   0.24475   0.32656   0.00000  Uiso   1.00
N19    N     0.83845   0.36526   0.64140   0.00000  Uiso   1.00
O121   O     0.80054   0.38587   0.60766   0.00000  Uiso   1.00
O122   O     0.88818   0.36229   0.62136   0.00000  Uiso   1.00
N20    N     0.21704   0.58042   0.28397   0.00000  Uiso   1.00
O123   O     0.21311   0.54145   0.24487   0.00000  Uiso   1.00
O124   O     0.24181   0.57096   0.33411   0.00000  Uiso   1.00
N21    N     0.36270   0.15852   0.64074   0.00000  Uiso   1.00
O125   O     0.38246   0.19584   0.60565   0.00000  Uiso   1.00
O126   O     0.36031   0.10823   0.62232   0.00000  Uiso   1.00
N22    N     0.58035   0.78294   0.28382   0.00000  Uiso   1.00
O127   O     0.57085   0.75811   0.33392   0.00000  Uiso   1.00
O128   O     0.54140   0.78694   0.24471   0.00000  Uiso   1.00
N23    N     0.16122   0.63503   0.64131   0.00000  Uiso   1.00
O129   O     0.19904   0.61461   0.60733   0.00000  Uiso   1.00
O130   O     0.11140   0.63794   0.62151   0.00000  Uiso   1.00
N24    N     0.78249   0.42049   0.28067   0.00000  Uiso   1.00
O131   O     0.78799   0.45884   0.24109   0.00000  Uiso   1.00
O132   O     0.75626   0.43091   0.32969   0.00000  Uiso   1.00
N25    N     0.36281   0.84138   0.35925   0.00000  Uiso   1.00
O133   O     0.38263   0.80402   0.39425   0.00000  Uiso   1.00
O134   O     0.36042   0.89164   0.37775   0.00000  Uiso   1.00
N26    N     0.57906   0.21788   0.72194   0.00000  Uiso   1.00
O135   O     0.54137   0.21147   0.76212   0.00000  Uiso   1.00
O136   O     0.56768   0.24473   0.67358   0.00000  Uiso   1.00
N27    N     0.16123   0.36497   0.35869   0.00000  Uiso   1.00
O137   O     0.19905   0.38540   0.39267   0.00000  Uiso   1.00
O138   O     0.11141   0.36206   0.37849   0.00000  Uiso   1.00
N28    N     0.78214   0.57914   0.72169   0.00000  Uiso   1.00
O139   O     0.75532   0.56784   0.67328   0.00000  Uiso   1.00
O140   O     0.78847   0.54140   0.76182   0.00000  Uiso   1.00
N29    N     0.63540   0.16080   0.35870   0.00000  Uiso   1.00
O141   O     0.61453   0.19871   0.39224   0.00000  Uiso   1.00
O142   O     0.63819   0.11104   0.37868   0.00000  Uiso   1.00
N30    N     0.42086   0.78213   0.72177   0.00000  Uiso   1.00
O143   O     0.45859   0.78849   0.76191   0.00000  Uiso   1.00
O144   O     0.43218   0.75527   0.67339   0.00000  Uiso   1.00
N31    N     0.84129   0.63714   0.35922   0.00000  Uiso   1.00
O145   O     0.80392   0.61729   0.39418   0.00000  Uiso   1.00
O146   O     0.89154   0.63956   0.37776   0.00000  Uiso   1.00
N32    N     0.21701   0.41957   0.71587   0.00000  Uiso   1.00
O147   O     0.21316   0.45858   0.75492   0.00000  Uiso   1.00
O148   O     0.24169   0.42897   0.66567   0.00000  Uiso   1.00
loop_
_geom_bond_atom_site_label_1
_geom_bond_atom_site_label_2
_geom_bond_distance
_geom_bond_site_symmetry_2
_ccdc_geom_bond_type
Zn1    O16     1.917   .     S
Zn1    O44     1.939   .     S
Zn1    O51     1.939   .     S
Zn1    O1      1.942   .     S
Zn2    O2      1.942   1_655 S
Zn2    O15     1.917   .     S
Zn2    O43     1.939   .     S
Zn2    O52     1.939   .     S
Zn3    O49     1.939   .     S
Zn3    O18     1.917   .     S
Zn3    O38     1.939   .     S
Zn3    O3      1.942   1_565 S
Zn4    O37     1.939   .     S
Zn4    O17     1.917   .     S
Zn4    O50     1.939   .     S
Zn4    O4      1.942   .     S
Zn5    O40     1.939   .     S
Zn5    O1      1.942   1_655 S
Zn5    O47     1.939   .     S
Zn5    O20     1.917   .     S
Zn6    O39     1.939   .     S
Zn6    O48     1.939   .     S
Zn6    O19     1.917   .     S
Zn6    O2      1.942   .     S
Zn7    O45     1.939   .     S
Zn7    O14     1.917   .     S
Zn7    O42     1.939   .     S
Zn7    O3      1.942   .     S
Zn8    O13     1.917   .     S
Zn8    O46     1.939   .     S
Zn8    O41     1.939   .     S
Zn8    O4      1.942   1_565 S
Zn9    O4      1.942   .     S
Zn9    O8      1.917   .     S
Zn9    O28     1.939   1_545 S
Zn9    O35     1.939   .     S
Zn10   O36     1.939   1_545 S
Zn10   O3      1.942   .     S
Zn10   O7      1.917   .     S
Zn10   O27     1.939   .     S
Zn11   O33     1.939   .     S
Zn11   O2      1.942   .     S
Zn11   O10     1.917   .     S
Zn11   O22     1.939   1_455 S
Zn12   O21     1.939   .     S
Zn12   O9      1.917   .     S
Zn12   O1      1.942   .     S
Zn12   O34     1.939   1_455 S
Zn13   O31     1.939   1_545 S
Zn13   O12     1.917   .     S
Zn13   O4      1.942   .     S
Zn13   O24     1.939   .     S
Zn14   O11     1.917   .     S
Zn14   O23     1.939   1_545 S
Zn14   O3      1.942   .     S
Zn14   O32     1.939   .     S
Zn15   O26     1.939   .     S
Zn15   O2      1.942   .     S
Zn15   O6      1.917   .     S
Zn15   O29     1.939   1_455 S
Zn16   O30     1.939   .     S
Zn16   O1      1.942   .     S
Zn16   O5      1.917   .     S
Zn16   O25     1.939   1_455 S
C1     C49     1.407   .     A
C1     C75     1.407   .     A
C1     C12     1.471   .     S
C2     C50     1.408   .     A
C2     C76     1.408   .     A
C2     C11     1.471   .     S
C3     C73     1.404   .     A
C3     C10     1.472   .     S
C3     C51     1.404   .     A
C4     C52     1.408   .     A
C4     C9      1.472   .     S
C4     C74     1.408   .     A
C5     C79     1.404   .     A
C5     C16     1.472   .     S
C5     C53     1.404   .     A
C6     C54     1.407   .     A
C6     C80     1.407   .     A
C6     C15     1.472   .     S
C7     C55     1.404   .     A
C7     C77     1.404   .     A
C7     C14     1.472   .     S
C8     C13     1.471   .     S
C8     C78     1.408   .     A
C8     C56     1.408   .     A
C9     C67     1.407   .     A
C9     C57     1.407   .     A
C10    C68     1.407   .     A
C10    C58     1.407   .     A
C11    C59     1.407   .     A
C11    C65     1.407   .     A
C12    C66     1.408   .     A
C12    C60     1.408   .     A
C13    C61     1.407   .     A
C13    C71     1.407   .     A
C14    C62     1.407   .     A
C14    C72     1.407   .     A
C15    C69     1.404   .     A
C15    C63     1.404   .     A
C16    C70     1.407   .     A
C16    C64     1.407   .     A
O1     Zn5     1.942   1_455 S
O2     Zn2     1.942   1_455 S
O3     Zn3     1.942   1_545 S
O4     Zn8     1.942   1_545 S
O5     C25     1.279   .     A
O6     C26     1.279   .     A
O7     C27     1.279   .     A
O8     C28     1.279   .     S
O9     C25     1.279   .     S
O10    C26     1.279   .     A
O11    C27     1.279   .     A
O12    C28     1.279   .     S
O13    C29     1.279   1_565 A
O14    C30     1.279   .     A
O15    C31     1.279   1_655 A
O16    C32     1.279   .     A
O17    C29     1.279   .     S
O18    C30     1.279   1_565 S
O19    C31     1.279   .     S
O20    C32     1.279   1_655 S
O21    C33     1.280   .     A
O22    C34     1.278   .     A
O22    Zn11    1.939   1_655 S
O23    Zn14    1.939   1_565 S
O23    C35     1.280   .     A
O24    C36     1.278   .     A
O25    C37     1.280   .     A
O25    Zn16    1.939   1_655 S
O26    C38     1.278   .     A
O27    C39     1.279   .     A
O28    C40     1.278   .     A
O28    Zn9     1.939   1_565 S
O29    C41     1.279   .     A
O29    Zn15    1.939   1_655 S
O30    C42     1.278   .     A
O31    Zn13    1.939   1_565 S
O31    C43     1.279   .     A
O32    C44     1.278   .     A
O33    C45     1.280   .     A
O34    C46     1.278   .     A
O34    Zn12    1.939   1_655 S
O35    C47     1.279   .     A
O36    C48     1.278   .     A
O36    Zn10    1.939   1_565 S
O37    C47     1.279   .     A
O38    C48     1.278   .     A
O39    C45     1.280   .     A
O40    C46     1.278   .     A
O41    C43     1.280   .     A
O42    C44     1.278   .     A
O43    C41     1.279   .     A
O44    C42     1.278   .     A
O45    C39     1.279   .     A
O46    C40     1.278   .     A
O47    C37     1.280   .     A
O48    C38     1.278   .     A
O49    C35     1.280   .     A
O50    C36     1.278   .     A
O51    C33     1.280   .     A
O52    C34     1.278   .     A
C17    C32     1.424   .     S
C17    C18     1.199   .     S
C18    C31     1.424   .     S
C19    C30     1.424   .     S
C19    C20     1.199   .     S
C20    C29     1.424   .     S
C21    C28     1.424   .     S
C21    C22     1.199   1_556 S
C22    C21     1.199   1_554 S
C22    C27     1.424   .     S
C23    C26     1.424   .     S
C23    C24     1.199   1_556 S
C24    C25     1.424   .     S
C24    C23     1.199   1_554 S
C29    O13     1.279   1_545 A
C30    O18     1.279   1_545 S
C31    O15     1.279   1_455 A
C32    O20     1.279   1_455 S
C33    C122    1.477   .     S
C34    C121    1.472   .     S
C35    C128    1.477   .     S
C36    C127    1.469   .     S
C37    C126    1.476   .     S
C38    C125    1.471   .     S
C39    C124    1.475   .     S
C40    C123    1.471   .     S
C41    C114    1.475   .     S
C42    C113    1.471   .     S
C43    C120    1.475   .     S
C44    C119    1.471   .     S
C45    C118    1.477   .     S
C46    C117    1.469   .     S
C47    C116    1.475   .     S
C48    C115    1.469   .     S
C49    C81     1.401   .     A
C49    O53     1.385   .     S
C50    C82     1.401   .     A
C50    O54     1.386   .     S
C51    C83     1.403   .     A
C51    O55     1.385   .     S
C52    C84     1.401   .     A
C52    O56     1.386   .     S
C53    O57     1.385   .     S
C53    C85     1.403   .     A
C54    O58     1.385   .     S
C54    C86     1.401   .     A
C55    O59     1.385   .     S
C55    C87     1.403   .     A
C56    O60     1.386   .     S
C56    C88     1.401   .     A
C57    O61     1.385   .     S
C57    C89     1.401   .     A
C58    O62     1.385   .     S
C58    C90     1.401   .     A
C59    O63     1.385   .     S
C59    C91     1.401   .     A
C60    O64     1.386   .     S
C60    C92     1.401   .     A
C61    O65     1.385   .     S
C61    C93     1.401   .     A
C62    O66     1.385   .     S
C62    C94     1.401   .     A
C63    C95     1.403   .     A
C63    O67     1.385   .     S
C64    C96     1.401   .     A
C64    O68     1.385   .     S
C65    C97     1.401   .     A
C65    O69     1.385   .     S
C66    C98     1.401   .     A
C66    O70     1.386   .     S
C67    C99     1.401   .     A
C67    O71     1.385   .     S
C68    O72     1.385   .     S
C68    C100    1.401   .     A
C69    O73     1.385   .     S
C69    C101    1.403   .     A
C70    O74     1.385   .     S
C70    C102    1.401   .     A
C71    C103    1.401   .     A
C71    O75     1.385   .     S
C72    O76     1.385   .     S
C72    C104    1.401   .     A
C73    O77     1.385   .     S
C73    C105    1.403   .     A
C74    O78     1.386   .     S
C74    C106    1.401   .     A
C75    C107    1.401   .     A
C75    O79     1.385   .     S
C76    O80     1.386   .     S
C76    C108    1.401   .     A
C77    O81     1.385   .     S
C77    C109    1.403   .     A
C78    C110    1.401   .     A
C78    O82     1.386   .     S
C79    C111    1.403   .     A
C79    O83     1.385   .     S
C80    O84     1.385   .     S
C80    C112    1.401   .     A
C81    N1      1.437   .     S
C81    C113    1.416   .     A
C82    N2      1.436   .     S
C82    C114    1.417   .     A
C83    N3      1.437   .     S
C83    C115    1.415   .     A
C84    N4      1.436   .     S
C84    C116    1.417   .     A
C85    N5      1.437   .     S
C85    C117    1.415   .     A
C86    C118    1.418   .     A
C86    N6      1.436   .     S
C87    N7      1.436   .     S
C87    C119    1.416   .     A
C88    N8      1.436   .     S
C88    C120    1.417   .     A
C89    N9      1.437   .     S
C89    C121    1.416   .     A
C90    C122    1.418   .     A
C90    N10     1.436   .     S
C91    N11     1.437   .     S
C91    C123    1.416   .     A
C92    C124    1.417   .     A
C92    N12     1.436   .     S
C93    C125    1.416   .     A
C93    N13     1.437   .     S
C94    N14     1.436   .     S
C94    C126    1.417   .     A
C95    N15     1.437   .     S
C95    C127    1.415   .     A
C96    C128    1.418   .     A
C96    N16     1.436   .     S
C97    N17     1.437   .     S
C97    C123    1.416   .     A
C98    N18     1.436   .     S
C98    C124    1.417   .     A
C99    C121    1.416   .     A
C99    N19     1.437   .     S
C100   C122    1.418   .     A
C100   N20     1.436   .     S
C101   C127    1.415   .     A
C101   N21     1.437   .     S
C102   N22     1.436   .     S
C102   C128    1.418   .     A
C103   C125    1.416   .     A
C103   N23     1.437   .     S
C104   C126    1.417   .     A
C104   N24     1.436   .     S
C105   N25     1.437   .     S
C105   C115    1.415   .     A
C106   C116    1.417   .     A
C106   N26     1.436   .     S
C107   N27     1.437   .     S
C107   C113    1.416   .     A
C108   N28     1.436   .     S
C108   C114    1.417   .     A
C109   N29     1.436   .     S
C109   C119    1.416   .     A
C110   C120    1.417   .     A
C110   N30     1.436   .     S
C111   N31     1.437   .     S
C111   C117    1.415   .     A
C112   C118    1.418   .     A
C112   N32     1.436   .     S
O53    C129    1.410   .     S
C129   H2      1.115   .     S
C129   H1      1.110   .     S
C129   C130    1.517   .     S
C130   H5      1.111   .     S
C130   H4      1.110   .     S
C130   H3      1.110   .     S
O54    C131    1.411   .     S
C131   H6      1.111   .     S
C131   C132    1.520   .     S
C131   H7      1.116   .     S
C132   H10     1.111   .     S
C132   H8      1.111   .     S
C132   H9      1.110   .     S
O55    C133    1.415   .     S
C133   H12     1.109   .     S
C133   H11     1.116   .     S
C133   C134    1.523   .     S
C134   H13     1.110   .     S
C134   H15     1.109   .     S
C134   H14     1.110   .     S
O56    C135    1.411   .     S
C135   C136    1.520   .     S
C135   H17     1.116   .     S
C135   H16     1.111   .     S
C136   H20     1.111   .     S
C136   H18     1.111   .     S
C136   H19     1.110   .     S
O57    C137    1.415   .     S
C137   H22     1.109   .     S
C137   H21     1.116   .     S
C137   C138    1.523   .     S
C138   H23     1.110   .     S
C138   H25     1.109   .     S
C138   H24     1.110   .     S
O58    C139    1.410   .     S
C139   H27     1.114   .     S
C139   C140    1.520   .     S
C139   H26     1.109   .     S
C140   H28     1.111   .     S
C140   H30     1.111   .     S
C140   H29     1.110   .     S
O59    C141    1.415   .     S
C141   H31     1.116   .     S
C141   C142    1.523   .     S
C141   H32     1.109   .     S
C142   H34     1.110   .     S
C142   H33     1.110   .     S
C142   H35     1.109   .     S
O60    C143    1.411   .     S
C143   H37     1.116   .     S
C143   C144    1.520   .     S
C143   H36     1.111   .     S
C144   H39     1.110   .     S
C144   H40     1.111   .     S
C144   H38     1.111   .     S
O61    C145    1.410   .     S
C145   C146    1.517   .     S
C145   H41     1.110   .     S
C145   H42     1.115   .     S
C146   H44     1.110   .     S
C146   H43     1.110   .     S
C146   H45     1.111   .     S
O62    C147    1.411   .     S
C147   H47     1.114   .     S
C147   C148    1.520   .     S
C147   H46     1.109   .     S
C148   H50     1.111   .     S
C148   H49     1.110   .     S
C148   H48     1.111   .     S
O63    C149    1.410   .     S
C149   H51     1.110   .     S
C149   C150    1.517   .     S
C149   H52     1.115   .     S
C150   H55     1.111   .     S
C150   H53     1.110   .     S
C150   H54     1.110   .     S
O64    C151    1.411   .     S
C151   C152    1.520   .     S
C151   H57     1.116   .     S
C151   H56     1.111   .     S
C152   H60     1.111   .     S
C152   H59     1.110   .     S
C152   H58     1.111   .     S
O65    C153    1.410   .     S
C153   H61     1.110   .     S
C153   C154    1.517   .     S
C153   H62     1.115   .     S
C154   H64     1.110   .     S
C154   H63     1.110   .     S
C154   H65     1.111   .     S
O66    C155    1.411   .     S
C155   H67     1.114   .     S
C155   C156    1.520   .     S
C155   H66     1.109   .     S
C156   H69     1.111   .     S
C156   H68     1.111   .     S
C156   H70     1.111   .     S
O67    C157    1.415   .     S
C157   H71     1.116   .     S
C157   H72     1.109   .     S
C157   C158    1.523   .     S
C158   H74     1.110   .     S
C158   H73     1.110   .     S
C158   H75     1.109   .     S
O68    C159    1.411   .     S
C159   C160    1.520   .     S
C159   H76     1.109   .     S
C159   H77     1.114   .     S
C160   H78     1.111   .     S
C160   H80     1.111   .     S
C160   H79     1.110   .     S
O69    C161    1.410   .     S
C161   H81     1.110   .     S
C161   C162    1.517   .     S
C161   H82     1.115   .     S
C162   H84     1.110   .     S
C162   H85     1.111   .     S
C162   H83     1.110   .     S
O70    C163    1.411   .     S
C163   C164    1.520   .     S
C163   H86     1.111   .     S
C163   H87     1.116   .     S
C164   H88     1.111   .     S
C164   H90     1.111   .     S
C164   H89     1.110   .     S
O71    C165    1.410   .     S
C165   H91     1.110   .     S
C165   C166    1.517   .     S
C165   H92     1.115   .     S
C166   H95     1.111   .     S
C166   H94     1.110   .     S
C166   H93     1.110   .     S
O72    C167    1.411   .     S
C167   H96     1.109   .     S
C167   C168    1.520   .     S
C167   H97     1.114   .     S
C168   H99     1.110   .     S
C168   H98     1.111   .     S
C168   H100    1.111   .     S
O73    C169    1.415   .     S
C169   C170    1.523   .     S
C169   H101    1.116   .     S
C169   H102    1.109   .     S
C170   H105    1.109   .     S
C170   H104    1.110   .     S
C170   H103    1.110   .     S
O74    C171    1.410   .     S
C171   C172    1.520   .     S
C171   H107    1.114   .     S
C171   H106    1.109   .     S
C172   H110    1.111   .     S
C172   H109    1.110   .     S
C172   H108    1.111   .     S
O75    C173    1.410   .     S
C173   H111    1.110   .     S
C173   C174    1.517   .     S
C173   H112    1.115   .     S
C174   H115    1.111   .     S
C174   H114    1.110   .     S
C174   H113    1.110   .     S
O76    C175    1.411   .     S
C175   H116    1.109   .     S
C175   C176    1.520   .     S
C175   H117    1.115   .     S
C176   H119    1.111   .     S
C176   H118    1.111   .     S
C176   H120    1.111   .     S
O77    C177    1.415   .     S
C177   H122    1.109   .     S
C177   H121    1.116   .     S
C177   C178    1.523   .     S
C178   H123    1.110   .     S
C178   H125    1.109   .     S
C178   H124    1.110   .     S
O78    C179    1.411   .     S
C179   H127    1.116   .     S
C179   C180    1.520   .     S
C179   H126    1.111   .     S
C180   H128    1.111   .     S
C180   H130    1.111   .     S
C180   H129    1.110   .     S
O79    C181    1.410   .     S
C181   H131    1.110   .     S
C181   C182    1.517   .     S
C181   H132    1.115   .     S
C182   H135    1.111   .     S
C182   H133    1.110   .     S
C182   H134    1.110   .     S
O80    C183    1.411   .     S
C183   C184    1.520   .     S
C183   H137    1.116   .     S
C183   H136    1.111   .     S
C184   H138    1.111   .     S
C184   H139    1.111   .     S
C184   H140    1.111   .     S
O81    C185    1.415   .     S
C185   H142    1.109   .     S
C185   H141    1.116   .     S
C185   C186    1.523   .     S
C186   H143    1.110   .     S
C186   H145    1.109   .     S
C186   H144    1.110   .     S
O82    C187    1.411   .     S
C187   H147    1.116   .     S
C187   C188    1.520   .     S
C187   H146    1.111   .     S
C188   H150    1.111   .     S
C188   H149    1.110   .     S
C188   H148    1.111   .     S
O83    C189    1.415   .     S
C189   H151    1.116   .     S
C189   C190    1.523   .     S
C189   H152    1.109   .     S
C190   H155    1.109   .     S
C190   H154    1.110   .     S
C190   H153    1.110   .     S
O84    C191    1.410   .     S
C191   H156    1.109   .     S
C191   H157    1.114   .     S
C191   C192    1.520   .     S
C192   H159    1.110   .     S
C192   H158    1.111   .     S
C192   H160    1.111   .     S
N1     O86     1.301   .     A
N1     O85     1.301   .     A
N2     O87     1.301   .     A
N2     O88     1.301   .     A
N3     O89     1.301   .     A
N3     O90     1.301   .     A
N4     O92     1.301   .     A
N4     O91     1.301   .     A
N5     O94     1.301   .     A
N5     O93     1.301   .     A
N6     O95     1.301   .     A
N6     O96     1.301   .     A
N7     O97     1.301   .     A
N7     O98     1.301   .     A
N8     O99     1.301   .     A
N8     O100    1.301   .     A
N9     O102    1.301   .     A
N9     O101    1.301   .     A
N10    O103    1.301   .     A
N10    O104    1.301   .     A
N11    O105    1.301   .     A
N11    O106    1.301   .     A
N12    O107    1.301   .     A
N12    O108    1.301   .     A
N13    O110    1.301   .     A
N13    O109    1.301   .     A
N14    O111    1.301   .     A
N14    O112    1.301   .     A
N15    O113    1.301   .     A
N15    O114    1.301   .     A
N16    O115    1.301   .     A
N16    O116    1.301   .     A
N17    O117    1.301   .     A
N17    O118    1.301   .     A
N18    O119    1.301   .     A
N18    O120    1.301   .     A
N19    O122    1.301   .     A
N19    O121    1.301   .     A
N20    O124    1.301   .     A
N20    O123    1.301   .     A
N21    O126    1.301   .     A
N21    O125    1.301   .     A
N22    O127    1.301   .     A
N22    O128    1.301   .     A
N23    O130    1.301   .     A
N23    O129    1.301   .     A
N24    O131    1.301   .     A
N24    O132    1.301   .     A
N25    O134    1.301   .     A
N25    O133    1.301   .     A
N26    O135    1.301   .     A
N26    O136    1.301   .     A
N27    O137    1.301   .     A
N27    O138    1.301   .     A
N28    O139    1.301   .     A
N28    O140    1.301   .     A
N29    O142    1.301   .     A
N29    O141    1.301   .     A
N30    O143    1.301   .     A
N30    O144    1.301   .     A
N31    O145    1.301   .     A
N31    O146    1.301   .     A
N32    O147    1.301   .     A
N32    O148    1.301   .     A
