data_str_m1_o10_o16_pcu_sym.123
_audit_creation_date              2020-01-03
_audit_creation_method            'Materials Studio'
_symmetry_space_group_name_H-M    'P1'
_symmetry_Int_Tables_number       1
_symmetry_cell_setting            triclinic
loop_
_symmetry_equiv_pos_as_xyz
  x,y,z
_cell_length_a                    32.5232
_cell_length_b                    32.5223
_cell_length_c                    31.0652
_cell_angle_alpha                 96.6992
_cell_angle_beta                  75.1100
_cell_angle_gamma                 98.6267
loop_
_atom_site_label
_atom_site_type_symbol
_atom_site_fract_x
_atom_site_fract_y
_atom_site_fract_z
_atom_site_U_iso_or_equiv
_atom_site_adp_type
_atom_site_occupancy
C1     C     0.05272   0.15951   0.25999   0.00000  Uiso   1.00
C2     C     0.18116   0.16659   0.05662   0.00000  Uiso   1.00
C3     C     0.19685   0.09778   0.06371   0.00000  Uiso   1.00
C4     C     0.28073   0.17377   0.24006   0.00000  Uiso   1.00
C5     C     0.14416   0.19471   0.41928   0.00000  Uiso   1.00
C6     C     0.32655   0.17651   0.23615   0.00000  Uiso   1.00
C7     C     0.00746   0.15683   0.26373   0.00000  Uiso   1.00
C8     C     0.18042   0.32244   0.23662   0.00000  Uiso   1.00
C9     C     0.15176   0.01168   0.26367   0.00000  Uiso   1.00
C10    C     0.15610   0.05582   0.26013   0.00000  Uiso   1.00
C11    C     0.17655   0.27786   0.24020   0.00000  Uiso   1.00
C12    C     0.14085   0.24918   0.47975   0.00000  Uiso   1.00
C13    C     0.18503   0.14790   0.12943   0.00000  Uiso   1.00
C14    C     0.14830   0.18430   0.37097   0.00000  Uiso   1.00
C15    C     0.19128   0.08396   0.02109   0.00000  Uiso   1.00
C16    C     0.19103   0.13840   0.08155   0.00000  Uiso   1.00
C17    C     0.13689   0.23538   0.43688   0.00000  Uiso   1.00
C18    C     0.19790   0.03911   0.00415   0.00000  Uiso   1.00
C19    C     0.23944   0.03691   0.46778   0.00000  Uiso   1.00
C20    C     0.15326   0.22316   0.00534   0.00000  Uiso   1.00
C21    C     0.16008   0.18146   0.48925   0.00000  Uiso   1.00
C22    C     0.15293   0.16670   0.44657   0.00000  Uiso   1.00
C23    C     0.17345   0.15388   0.01415   0.00000  Uiso   1.00
C24    C     0.17798   0.11166   0.49660   0.00000  Uiso   1.00
C25    C     0.16708   0.09754   0.45616   0.00000  Uiso   1.00
C26    C     0.15402   0.12418   0.43226   0.00000  Uiso   1.00
H27    H     0.20424   0.07634   0.08409   0.00000  Uiso   1.00
H28    H     0.14385   0.11051   0.40269   0.00000  Uiso   1.00
H29    H     0.01550   0.19462   0.21070   0.00000  Uiso   1.00
H30    H     0.24330   0.00375   0.45622   0.00000  Uiso   1.00
H31    H     0.23921   0.05356   0.43866   0.00000  Uiso   1.00
H32    H     0.26731   0.05108   0.48129   0.00000  Uiso   1.00
H33    H     0.19987   0.02109   0.03171   0.00000  Uiso   1.00
H34    H     0.17006   0.02286   0.49191   0.00000  Uiso   1.00
H35    H     0.31923   0.13858   0.28944   0.00000  Uiso   1.00
H36    H     0.20689   0.00371   0.21178   0.00000  Uiso   1.00
H37    H     0.12488   0.33119   0.28857   0.00000  Uiso   1.00
H38    H     0.16776   0.06548   0.44251   0.00000  Uiso   1.00
H39    H     0.17685   0.19729   0.07283   0.00000  Uiso   1.00
H40    H     0.12983   0.25722   0.41677   0.00000  Uiso   1.00
H41    H     0.15682   0.23681   0.03763   0.00000  Uiso   1.00
H42    H     0.13560   0.28081   0.49278   0.00000  Uiso   1.00
O43    O     0.16667   0.16667   0.25000   0.00000  Uiso   1.00
O44    O     0.15451   0.12637   0.15458   0.00000  Uiso   1.00
O45    O     0.12940   0.20391   0.34968   0.00000  Uiso   1.00
O46    O     0.20824   0.17759   0.14606   0.00000  Uiso   1.00
O47    O     0.17451   0.15880   0.34968   0.00000  Uiso   1.00
O48    O     0.17930   0.08019   0.28213   0.00000  Uiso   1.00
O49    O     0.14632   0.26085   0.27013   0.00000  Uiso   1.00
O50    O     0.07412   0.13291   0.23413   0.00000  Uiso   1.00
O51    O     0.26693   0.19272   0.21360   0.00000  Uiso   1.00
O52    O     0.07071   0.18878   0.28213   0.00000  Uiso   1.00
O53    O     0.25491   0.15226   0.27013   0.00000  Uiso   1.00
O54    O     0.13760   0.06944   0.23413   0.00000  Uiso   1.00
O55    O     0.20345   0.25620   0.21360   0.00000  Uiso   1.00
Zn56   Zn    0.19338   0.13994   0.28734   0.00000  Uiso   1.00
Zn57   Zn    0.13379   0.12458   0.21875   0.00000  Uiso   1.00
Zn58   Zn    0.21056   0.19775   0.20657   0.00000  Uiso   1.00
Zn59   Zn    0.12893   0.20439   0.28733   0.00000  Uiso   1.00
C60    C     0.38605   0.15951   0.25999   0.00000  Uiso   1.00
C61    C     0.51450   0.16659   0.05662   0.00000  Uiso   1.00
C62    C     0.53019   0.09778   0.06371   0.00000  Uiso   1.00
C63    C     0.61406   0.17377   0.24006   0.00000  Uiso   1.00
C64    C     0.47750   0.19471   0.41928   0.00000  Uiso   1.00
C65    C     0.65989   0.17651   0.23615   0.00000  Uiso   1.00
C66    C     0.34080   0.15683   0.26373   0.00000  Uiso   1.00
C67    C     0.51376   0.32244   0.23662   0.00000  Uiso   1.00
C68    C     0.48509   0.01168   0.26367   0.00000  Uiso   1.00
C69    C     0.48943   0.05582   0.26013   0.00000  Uiso   1.00
C70    C     0.50988   0.27786   0.24020   0.00000  Uiso   1.00
C71    C     0.47418   0.24918   0.47975   0.00000  Uiso   1.00
C72    C     0.51836   0.14790   0.12943   0.00000  Uiso   1.00
C73    C     0.48163   0.18430   0.37097   0.00000  Uiso   1.00
C74    C     0.52461   0.08396   0.02109   0.00000  Uiso   1.00
C75    C     0.52436   0.13840   0.08155   0.00000  Uiso   1.00
C76    C     0.47022   0.23538   0.43688   0.00000  Uiso   1.00
C77    C     0.53124   0.03911   0.00415   0.00000  Uiso   1.00
C78    C     0.57278   0.03691   0.46778   0.00000  Uiso   1.00
C79    C     0.48659   0.22316   0.00534   0.00000  Uiso   1.00
C80    C     0.49342   0.18146   0.48925   0.00000  Uiso   1.00
C81    C     0.48626   0.16670   0.44657   0.00000  Uiso   1.00
C82    C     0.50679   0.15388   0.01415   0.00000  Uiso   1.00
C83    C     0.51132   0.11166   0.49660   0.00000  Uiso   1.00
C84    C     0.50042   0.09754   0.45616   0.00000  Uiso   1.00
C85    C     0.48735   0.12418   0.43226   0.00000  Uiso   1.00
H86    H     0.53757   0.07634   0.08409   0.00000  Uiso   1.00
H87    H     0.47718   0.11051   0.40269   0.00000  Uiso   1.00
H88    H     0.34883   0.19462   0.21070   0.00000  Uiso   1.00
H89    H     0.57663   0.00375   0.45622   0.00000  Uiso   1.00
H90    H     0.57254   0.05356   0.43866   0.00000  Uiso   1.00
H91    H     0.60064   0.05108   0.48129   0.00000  Uiso   1.00
H92    H     0.53320   0.02109   0.03171   0.00000  Uiso   1.00
H93    H     0.50339   0.02286   0.49191   0.00000  Uiso   1.00
H94    H     0.65256   0.13858   0.28944   0.00000  Uiso   1.00
H95    H     0.54022   0.00371   0.21178   0.00000  Uiso   1.00
H96    H     0.45821   0.33119   0.28857   0.00000  Uiso   1.00
H97    H     0.50110   0.06548   0.44251   0.00000  Uiso   1.00
H98    H     0.51018   0.19729   0.07283   0.00000  Uiso   1.00
H99    H     0.46316   0.25722   0.41677   0.00000  Uiso   1.00
H100   H     0.49015   0.23681   0.03763   0.00000  Uiso   1.00
H101   H     0.46893   0.28081   0.49278   0.00000  Uiso   1.00
O102   O     0.50000   0.16667   0.25000   0.00000  Uiso   1.00
O103   O     0.48784   0.12637   0.15458   0.00000  Uiso   1.00
O104   O     0.46274   0.20391   0.34968   0.00000  Uiso   1.00
O105   O     0.54157   0.17759   0.14606   0.00000  Uiso   1.00
O106   O     0.50785   0.15880   0.34968   0.00000  Uiso   1.00
O107   O     0.51264   0.08019   0.28213   0.00000  Uiso   1.00
O108   O     0.47965   0.26085   0.27013   0.00000  Uiso   1.00
O109   O     0.40745   0.13291   0.23413   0.00000  Uiso   1.00
O110   O     0.60026   0.19272   0.21360   0.00000  Uiso   1.00
O111   O     0.40405   0.18878   0.28213   0.00000  Uiso   1.00
O112   O     0.58824   0.15226   0.27013   0.00000  Uiso   1.00
O113   O     0.47093   0.06944   0.23413   0.00000  Uiso   1.00
O114   O     0.53678   0.25620   0.21360   0.00000  Uiso   1.00
Zn115  Zn    0.52672   0.13994   0.28734   0.00000  Uiso   1.00
Zn116  Zn    0.46713   0.12458   0.21875   0.00000  Uiso   1.00
Zn117  Zn    0.54389   0.19775   0.20657   0.00000  Uiso   1.00
Zn118  Zn    0.46226   0.20439   0.28733   0.00000  Uiso   1.00
C119   C     0.71938   0.15951   0.25999   0.00000  Uiso   1.00
C120   C     0.84783   0.16659   0.05662   0.00000  Uiso   1.00
C121   C     0.86352   0.09778   0.06371   0.00000  Uiso   1.00
C122   C     0.94739   0.17377   0.24006   0.00000  Uiso   1.00
C123   C     0.81083   0.19471   0.41928   0.00000  Uiso   1.00
C124   C     0.99322   0.17651   0.23615   0.00000  Uiso   1.00
C125   C     0.67413   0.15683   0.26373   0.00000  Uiso   1.00
C126   C     0.84709   0.32244   0.23662   0.00000  Uiso   1.00
C127   C     0.81842   0.01168   0.26367   0.00000  Uiso   1.00
C128   C     0.82276   0.05582   0.26013   0.00000  Uiso   1.00
C129   C     0.84322   0.27786   0.24020   0.00000  Uiso   1.00
C130   C     0.80752   0.24918   0.47975   0.00000  Uiso   1.00
C131   C     0.85169   0.14790   0.12943   0.00000  Uiso   1.00
C132   C     0.81497   0.18430   0.37097   0.00000  Uiso   1.00
C133   C     0.85794   0.08396   0.02109   0.00000  Uiso   1.00
C134   C     0.85770   0.13840   0.08155   0.00000  Uiso   1.00
C135   C     0.80356   0.23538   0.43688   0.00000  Uiso   1.00
C136   C     0.86457   0.03911   0.00415   0.00000  Uiso   1.00
C137   C     0.90611   0.03691   0.46778   0.00000  Uiso   1.00
C138   C     0.81993   0.22316   0.00534   0.00000  Uiso   1.00
C139   C     0.82675   0.18146   0.48925   0.00000  Uiso   1.00
C140   C     0.81960   0.16670   0.44657   0.00000  Uiso   1.00
C141   C     0.84012   0.15388   0.01415   0.00000  Uiso   1.00
C142   C     0.84465   0.11166   0.49660   0.00000  Uiso   1.00
C143   C     0.83375   0.09754   0.45616   0.00000  Uiso   1.00
C144   C     0.82069   0.12418   0.43226   0.00000  Uiso   1.00
H145   H     0.87091   0.07634   0.08409   0.00000  Uiso   1.00
H146   H     0.81052   0.11051   0.40269   0.00000  Uiso   1.00
H147   H     0.68216   0.19462   0.21070   0.00000  Uiso   1.00
H148   H     0.90996   0.00375   0.45622   0.00000  Uiso   1.00
H149   H     0.90587   0.05356   0.43866   0.00000  Uiso   1.00
H150   H     0.93398   0.05108   0.48129   0.00000  Uiso   1.00
H151   H     0.86653   0.02109   0.03171   0.00000  Uiso   1.00
H152   H     0.83672   0.02286   0.49191   0.00000  Uiso   1.00
H153   H     0.98590   0.13858   0.28944   0.00000  Uiso   1.00
H154   H     0.87355   0.00371   0.21178   0.00000  Uiso   1.00
H155   H     0.79154   0.33119   0.28857   0.00000  Uiso   1.00
H156   H     0.83443   0.06548   0.44251   0.00000  Uiso   1.00
H157   H     0.84351   0.19729   0.07283   0.00000  Uiso   1.00
H158   H     0.79649   0.25722   0.41677   0.00000  Uiso   1.00
H159   H     0.82349   0.23681   0.03763   0.00000  Uiso   1.00
H160   H     0.80226   0.28081   0.49278   0.00000  Uiso   1.00
O161   O     0.83333   0.16667   0.25000   0.00000  Uiso   1.00
O162   O     0.82118   0.12637   0.15458   0.00000  Uiso   1.00
O163   O     0.79607   0.20391   0.34968   0.00000  Uiso   1.00
O164   O     0.87491   0.17759   0.14606   0.00000  Uiso   1.00
O165   O     0.84118   0.15880   0.34968   0.00000  Uiso   1.00
O166   O     0.84597   0.08019   0.28213   0.00000  Uiso   1.00
O167   O     0.81298   0.26085   0.27013   0.00000  Uiso   1.00
O168   O     0.74078   0.13291   0.23413   0.00000  Uiso   1.00
O169   O     0.93360   0.19272   0.21360   0.00000  Uiso   1.00
O170   O     0.73738   0.18878   0.28213   0.00000  Uiso   1.00
O171   O     0.92158   0.15226   0.27013   0.00000  Uiso   1.00
O172   O     0.80426   0.06944   0.23413   0.00000  Uiso   1.00
O173   O     0.87012   0.25620   0.21360   0.00000  Uiso   1.00
Zn174  Zn    0.86005   0.13994   0.28734   0.00000  Uiso   1.00
Zn175  Zn    0.80046   0.12458   0.21875   0.00000  Uiso   1.00
Zn176  Zn    0.87723   0.19775   0.20657   0.00000  Uiso   1.00
Zn177  Zn    0.79560   0.20439   0.28733   0.00000  Uiso   1.00
C178   C     0.05272   0.49284   0.25999   0.00000  Uiso   1.00
C179   C     0.18116   0.49992   0.05662   0.00000  Uiso   1.00
C180   C     0.19685   0.43112   0.06371   0.00000  Uiso   1.00
C181   C     0.28073   0.50710   0.24006   0.00000  Uiso   1.00
C182   C     0.14416   0.52805   0.41928   0.00000  Uiso   1.00
C183   C     0.32655   0.50984   0.23615   0.00000  Uiso   1.00
C184   C     0.00746   0.49017   0.26373   0.00000  Uiso   1.00
C185   C     0.18042   0.65578   0.23662   0.00000  Uiso   1.00
C186   C     0.15176   0.34501   0.26367   0.00000  Uiso   1.00
C187   C     0.15610   0.38915   0.26013   0.00000  Uiso   1.00
C188   C     0.17655   0.61120   0.24020   0.00000  Uiso   1.00
C189   C     0.14085   0.58251   0.47975   0.00000  Uiso   1.00
C190   C     0.18503   0.48123   0.12943   0.00000  Uiso   1.00
C191   C     0.14830   0.51763   0.37097   0.00000  Uiso   1.00
C192   C     0.19128   0.41729   0.02109   0.00000  Uiso   1.00
C193   C     0.19103   0.47174   0.08155   0.00000  Uiso   1.00
C194   C     0.13689   0.56872   0.43688   0.00000  Uiso   1.00
C195   C     0.19790   0.37244   0.00415   0.00000  Uiso   1.00
C196   C     0.23944   0.37024   0.46778   0.00000  Uiso   1.00
C197   C     0.15326   0.55649   0.00534   0.00000  Uiso   1.00
C198   C     0.16008   0.51479   0.48925   0.00000  Uiso   1.00
C199   C     0.15293   0.50003   0.44657   0.00000  Uiso   1.00
C200   C     0.17345   0.48721   0.01415   0.00000  Uiso   1.00
C201   C     0.17798   0.44499   0.49660   0.00000  Uiso   1.00
C202   C     0.16708   0.43087   0.45616   0.00000  Uiso   1.00
C203   C     0.15402   0.45752   0.43226   0.00000  Uiso   1.00
H204   H     0.20424   0.40967   0.08409   0.00000  Uiso   1.00
H205   H     0.14385   0.44384   0.40269   0.00000  Uiso   1.00
H206   H     0.01550   0.52796   0.21070   0.00000  Uiso   1.00
H207   H     0.24330   0.33709   0.45622   0.00000  Uiso   1.00
H208   H     0.23921   0.38689   0.43866   0.00000  Uiso   1.00
H209   H     0.26731   0.38441   0.48129   0.00000  Uiso   1.00
H210   H     0.19987   0.35442   0.03171   0.00000  Uiso   1.00
H211   H     0.17006   0.35619   0.49191   0.00000  Uiso   1.00
H212   H     0.31923   0.47192   0.28944   0.00000  Uiso   1.00
H213   H     0.20689   0.33704   0.21178   0.00000  Uiso   1.00
H214   H     0.12488   0.66453   0.28857   0.00000  Uiso   1.00
H215   H     0.16776   0.39881   0.44251   0.00000  Uiso   1.00
H216   H     0.17685   0.53062   0.07283   0.00000  Uiso   1.00
H217   H     0.12983   0.59055   0.41677   0.00000  Uiso   1.00
H218   H     0.15682   0.57014   0.03763   0.00000  Uiso   1.00
H219   H     0.13560   0.61414   0.49278   0.00000  Uiso   1.00
O220   O     0.16667   0.50000   0.25000   0.00000  Uiso   1.00
O221   O     0.15451   0.45970   0.15458   0.00000  Uiso   1.00
O222   O     0.12940   0.53724   0.34968   0.00000  Uiso   1.00
O223   O     0.20824   0.51092   0.14606   0.00000  Uiso   1.00
O224   O     0.17451   0.49213   0.34968   0.00000  Uiso   1.00
O225   O     0.17930   0.41352   0.28213   0.00000  Uiso   1.00
O226   O     0.14632   0.59418   0.27013   0.00000  Uiso   1.00
O227   O     0.07412   0.46625   0.23413   0.00000  Uiso   1.00
O228   O     0.26693   0.52605   0.21360   0.00000  Uiso   1.00
O229   O     0.07071   0.52211   0.28213   0.00000  Uiso   1.00
O230   O     0.25491   0.48559   0.27013   0.00000  Uiso   1.00
O231   O     0.13760   0.40277   0.23413   0.00000  Uiso   1.00
O232   O     0.20345   0.58953   0.21360   0.00000  Uiso   1.00
Zn233  Zn    0.19338   0.47327   0.28734   0.00000  Uiso   1.00
Zn234  Zn    0.13379   0.45791   0.21875   0.00000  Uiso   1.00
Zn235  Zn    0.21056   0.53109   0.20657   0.00000  Uiso   1.00
Zn236  Zn    0.12893   0.53773   0.28733   0.00000  Uiso   1.00
C237   C     0.38605   0.49284   0.25999   0.00000  Uiso   1.00
C238   C     0.51450   0.49992   0.05662   0.00000  Uiso   1.00
C239   C     0.53019   0.43112   0.06371   0.00000  Uiso   1.00
C240   C     0.61406   0.50710   0.24006   0.00000  Uiso   1.00
C241   C     0.47750   0.52805   0.41928   0.00000  Uiso   1.00
C242   C     0.65989   0.50984   0.23615   0.00000  Uiso   1.00
C243   C     0.34080   0.49017   0.26373   0.00000  Uiso   1.00
C244   C     0.51376   0.65578   0.23662   0.00000  Uiso   1.00
C245   C     0.48509   0.34501   0.26367   0.00000  Uiso   1.00
C246   C     0.48943   0.38915   0.26013   0.00000  Uiso   1.00
C247   C     0.50988   0.61120   0.24020   0.00000  Uiso   1.00
C248   C     0.47418   0.58251   0.47975   0.00000  Uiso   1.00
C249   C     0.51836   0.48123   0.12943   0.00000  Uiso   1.00
C250   C     0.48163   0.51763   0.37097   0.00000  Uiso   1.00
C251   C     0.52461   0.41729   0.02109   0.00000  Uiso   1.00
C252   C     0.52436   0.47174   0.08155   0.00000  Uiso   1.00
C253   C     0.47022   0.56872   0.43688   0.00000  Uiso   1.00
C254   C     0.53124   0.37244   0.00415   0.00000  Uiso   1.00
C255   C     0.57278   0.37024   0.46778   0.00000  Uiso   1.00
C256   C     0.48659   0.55649   0.00534   0.00000  Uiso   1.00
C257   C     0.49342   0.51479   0.48925   0.00000  Uiso   1.00
C258   C     0.48626   0.50003   0.44657   0.00000  Uiso   1.00
C259   C     0.50679   0.48721   0.01415   0.00000  Uiso   1.00
C260   C     0.51132   0.44499   0.49660   0.00000  Uiso   1.00
C261   C     0.50042   0.43087   0.45616   0.00000  Uiso   1.00
C262   C     0.48735   0.45752   0.43226   0.00000  Uiso   1.00
H263   H     0.53757   0.40967   0.08409   0.00000  Uiso   1.00
H264   H     0.47718   0.44384   0.40269   0.00000  Uiso   1.00
H265   H     0.34883   0.52796   0.21070   0.00000  Uiso   1.00
H266   H     0.57663   0.33709   0.45622   0.00000  Uiso   1.00
H267   H     0.57254   0.38689   0.43866   0.00000  Uiso   1.00
H268   H     0.60064   0.38441   0.48129   0.00000  Uiso   1.00
H269   H     0.53320   0.35442   0.03171   0.00000  Uiso   1.00
H270   H     0.50339   0.35619   0.49191   0.00000  Uiso   1.00
H271   H     0.65256   0.47192   0.28944   0.00000  Uiso   1.00
H272   H     0.54022   0.33704   0.21178   0.00000  Uiso   1.00
H273   H     0.45821   0.66453   0.28857   0.00000  Uiso   1.00
H274   H     0.50110   0.39881   0.44251   0.00000  Uiso   1.00
H275   H     0.51018   0.53062   0.07283   0.00000  Uiso   1.00
H276   H     0.46316   0.59055   0.41677   0.00000  Uiso   1.00
H277   H     0.49015   0.57014   0.03763   0.00000  Uiso   1.00
H278   H     0.46893   0.61414   0.49278   0.00000  Uiso   1.00
O279   O     0.50000   0.50000   0.25000   0.00000  Uiso   1.00
O280   O     0.48784   0.45970   0.15458   0.00000  Uiso   1.00
O281   O     0.46274   0.53724   0.34968   0.00000  Uiso   1.00
O282   O     0.54157   0.51092   0.14606   0.00000  Uiso   1.00
O283   O     0.50785   0.49213   0.34968   0.00000  Uiso   1.00
O284   O     0.51264   0.41352   0.28213   0.00000  Uiso   1.00
O285   O     0.47965   0.59418   0.27013   0.00000  Uiso   1.00
O286   O     0.40745   0.46625   0.23413   0.00000  Uiso   1.00
O287   O     0.60026   0.52605   0.21360   0.00000  Uiso   1.00
O288   O     0.40405   0.52211   0.28213   0.00000  Uiso   1.00
O289   O     0.58824   0.48559   0.27013   0.00000  Uiso   1.00
O290   O     0.47093   0.40277   0.23413   0.00000  Uiso   1.00
O291   O     0.53678   0.58953   0.21360   0.00000  Uiso   1.00
Zn292  Zn    0.52672   0.47327   0.28734   0.00000  Uiso   1.00
Zn293  Zn    0.46713   0.45791   0.21875   0.00000  Uiso   1.00
Zn294  Zn    0.54389   0.53109   0.20657   0.00000  Uiso   1.00
Zn295  Zn    0.46226   0.53773   0.28733   0.00000  Uiso   1.00
C296   C     0.71938   0.49284   0.25999   0.00000  Uiso   1.00
C297   C     0.84783   0.49992   0.05662   0.00000  Uiso   1.00
C298   C     0.86352   0.43112   0.06371   0.00000  Uiso   1.00
C299   C     0.94739   0.50710   0.24006   0.00000  Uiso   1.00
C300   C     0.81083   0.52805   0.41928   0.00000  Uiso   1.00
C301   C     0.99322   0.50984   0.23615   0.00000  Uiso   1.00
C302   C     0.67413   0.49017   0.26373   0.00000  Uiso   1.00
C303   C     0.84709   0.65578   0.23662   0.00000  Uiso   1.00
C304   C     0.81842   0.34501   0.26367   0.00000  Uiso   1.00
C305   C     0.82276   0.38915   0.26013   0.00000  Uiso   1.00
C306   C     0.84322   0.61120   0.24020   0.00000  Uiso   1.00
C307   C     0.80752   0.58251   0.47975   0.00000  Uiso   1.00
C308   C     0.85169   0.48123   0.12943   0.00000  Uiso   1.00
C309   C     0.81497   0.51763   0.37097   0.00000  Uiso   1.00
C310   C     0.85794   0.41729   0.02109   0.00000  Uiso   1.00
C311   C     0.85770   0.47174   0.08155   0.00000  Uiso   1.00
C312   C     0.80356   0.56872   0.43688   0.00000  Uiso   1.00
C313   C     0.86457   0.37244   0.00415   0.00000  Uiso   1.00
C314   C     0.90611   0.37024   0.46778   0.00000  Uiso   1.00
C315   C     0.81993   0.55649   0.00534   0.00000  Uiso   1.00
C316   C     0.82675   0.51479   0.48925   0.00000  Uiso   1.00
C317   C     0.81960   0.50003   0.44657   0.00000  Uiso   1.00
C318   C     0.84012   0.48721   0.01415   0.00000  Uiso   1.00
C319   C     0.84465   0.44499   0.49660   0.00000  Uiso   1.00
C320   C     0.83375   0.43087   0.45616   0.00000  Uiso   1.00
C321   C     0.82069   0.45752   0.43226   0.00000  Uiso   1.00
H322   H     0.87091   0.40967   0.08409   0.00000  Uiso   1.00
H323   H     0.81052   0.44384   0.40269   0.00000  Uiso   1.00
H324   H     0.68216   0.52796   0.21070   0.00000  Uiso   1.00
H325   H     0.90996   0.33709   0.45622   0.00000  Uiso   1.00
H326   H     0.90587   0.38689   0.43866   0.00000  Uiso   1.00
H327   H     0.93398   0.38441   0.48129   0.00000  Uiso   1.00
H328   H     0.86653   0.35442   0.03171   0.00000  Uiso   1.00
H329   H     0.83672   0.35619   0.49191   0.00000  Uiso   1.00
H330   H     0.98590   0.47192   0.28944   0.00000  Uiso   1.00
H331   H     0.87355   0.33704   0.21178   0.00000  Uiso   1.00
H332   H     0.79154   0.66453   0.28857   0.00000  Uiso   1.00
H333   H     0.83443   0.39881   0.44251   0.00000  Uiso   1.00
H334   H     0.84351   0.53062   0.07283   0.00000  Uiso   1.00
H335   H     0.79649   0.59055   0.41677   0.00000  Uiso   1.00
H336   H     0.82349   0.57014   0.03763   0.00000  Uiso   1.00
H337   H     0.80226   0.61414   0.49278   0.00000  Uiso   1.00
O338   O     0.83333   0.50000   0.25000   0.00000  Uiso   1.00
O339   O     0.82118   0.45970   0.15458   0.00000  Uiso   1.00
O340   O     0.79607   0.53724   0.34968   0.00000  Uiso   1.00
O341   O     0.87491   0.51092   0.14606   0.00000  Uiso   1.00
O342   O     0.84118   0.49213   0.34968   0.00000  Uiso   1.00
O343   O     0.84597   0.41352   0.28213   0.00000  Uiso   1.00
O344   O     0.81298   0.59418   0.27013   0.00000  Uiso   1.00
O345   O     0.74078   0.46625   0.23413   0.00000  Uiso   1.00
O346   O     0.93360   0.52605   0.21360   0.00000  Uiso   1.00
O347   O     0.73738   0.52211   0.28213   0.00000  Uiso   1.00
O348   O     0.92158   0.48559   0.27013   0.00000  Uiso   1.00
O349   O     0.80426   0.40277   0.23413   0.00000  Uiso   1.00
O350   O     0.87012   0.58953   0.21360   0.00000  Uiso   1.00
Zn351  Zn    0.86005   0.47327   0.28734   0.00000  Uiso   1.00
Zn352  Zn    0.80046   0.45791   0.21875   0.00000  Uiso   1.00
Zn353  Zn    0.87723   0.53109   0.20657   0.00000  Uiso   1.00
Zn354  Zn    0.79560   0.53773   0.28733   0.00000  Uiso   1.00
C355   C     0.05272   0.82618   0.25999   0.00000  Uiso   1.00
C356   C     0.18116   0.83326   0.05662   0.00000  Uiso   1.00
C357   C     0.19685   0.76445   0.06371   0.00000  Uiso   1.00
C358   C     0.28073   0.84044   0.24006   0.00000  Uiso   1.00
C359   C     0.14416   0.86138   0.41928   0.00000  Uiso   1.00
C360   C     0.32655   0.84318   0.23615   0.00000  Uiso   1.00
C361   C     0.00746   0.82350   0.26373   0.00000  Uiso   1.00
C362   C     0.18042   0.98911   0.23662   0.00000  Uiso   1.00
C363   C     0.15176   0.67834   0.26367   0.00000  Uiso   1.00
C364   C     0.15610   0.72248   0.26013   0.00000  Uiso   1.00
C365   C     0.17655   0.94453   0.24020   0.00000  Uiso   1.00
C366   C     0.14085   0.91584   0.47975   0.00000  Uiso   1.00
C367   C     0.18503   0.81456   0.12943   0.00000  Uiso   1.00
C368   C     0.14830   0.85097   0.37097   0.00000  Uiso   1.00
C369   C     0.19128   0.75062   0.02109   0.00000  Uiso   1.00
C370   C     0.19103   0.80507   0.08155   0.00000  Uiso   1.00
C371   C     0.13689   0.90205   0.43688   0.00000  Uiso   1.00
C372   C     0.19790   0.70577   0.00415   0.00000  Uiso   1.00
C373   C     0.23944   0.70358   0.46778   0.00000  Uiso   1.00
C374   C     0.15326   0.88982   0.00534   0.00000  Uiso   1.00
C375   C     0.16008   0.84812   0.48925   0.00000  Uiso   1.00
C376   C     0.15293   0.83336   0.44657   0.00000  Uiso   1.00
C377   C     0.17345   0.82054   0.01415   0.00000  Uiso   1.00
C378   C     0.17798   0.77833   0.49660   0.00000  Uiso   1.00
C379   C     0.16708   0.76420   0.45616   0.00000  Uiso   1.00
C380   C     0.15402   0.79085   0.43226   0.00000  Uiso   1.00
H381   H     0.20424   0.74300   0.08409   0.00000  Uiso   1.00
H382   H     0.14385   0.77717   0.40269   0.00000  Uiso   1.00
H383   H     0.01550   0.86129   0.21070   0.00000  Uiso   1.00
H384   H     0.24330   0.67042   0.45622   0.00000  Uiso   1.00
H385   H     0.23921   0.72023   0.43866   0.00000  Uiso   1.00
H386   H     0.26731   0.71775   0.48129   0.00000  Uiso   1.00
H387   H     0.19987   0.68776   0.03171   0.00000  Uiso   1.00
H388   H     0.17006   0.68953   0.49191   0.00000  Uiso   1.00
H389   H     0.31923   0.80525   0.28944   0.00000  Uiso   1.00
H390   H     0.20689   0.67037   0.21178   0.00000  Uiso   1.00
H391   H     0.12488   0.99786   0.28857   0.00000  Uiso   1.00
H392   H     0.16776   0.73215   0.44251   0.00000  Uiso   1.00
H393   H     0.17685   0.86395   0.07283   0.00000  Uiso   1.00
H394   H     0.12983   0.92389   0.41677   0.00000  Uiso   1.00
H395   H     0.15682   0.90347   0.03763   0.00000  Uiso   1.00
H396   H     0.13560   0.94748   0.49278   0.00000  Uiso   1.00
O397   O     0.16667   0.83333   0.25000   0.00000  Uiso   1.00
O398   O     0.15451   0.79304   0.15458   0.00000  Uiso   1.00
O399   O     0.12940   0.87058   0.34968   0.00000  Uiso   1.00
O400   O     0.20824   0.84425   0.14606   0.00000  Uiso   1.00
O401   O     0.17451   0.82546   0.34968   0.00000  Uiso   1.00
O402   O     0.17930   0.74686   0.28213   0.00000  Uiso   1.00
O403   O     0.14632   0.92751   0.27013   0.00000  Uiso   1.00
O404   O     0.07412   0.79958   0.23413   0.00000  Uiso   1.00
O405   O     0.26693   0.85939   0.21360   0.00000  Uiso   1.00
O406   O     0.07071   0.85544   0.28213   0.00000  Uiso   1.00
O407   O     0.25491   0.81892   0.27013   0.00000  Uiso   1.00
O408   O     0.13760   0.73610   0.23413   0.00000  Uiso   1.00
O409   O     0.20345   0.92286   0.21360   0.00000  Uiso   1.00
Zn410  Zn    0.19338   0.80661   0.28734   0.00000  Uiso   1.00
Zn411  Zn    0.13379   0.79124   0.21875   0.00000  Uiso   1.00
Zn412  Zn    0.21056   0.86442   0.20657   0.00000  Uiso   1.00
Zn413  Zn    0.12893   0.87106   0.28733   0.00000  Uiso   1.00
C414   C     0.38605   0.82618   0.25999   0.00000  Uiso   1.00
C415   C     0.51450   0.83326   0.05662   0.00000  Uiso   1.00
C416   C     0.53019   0.76445   0.06371   0.00000  Uiso   1.00
C417   C     0.61406   0.84044   0.24006   0.00000  Uiso   1.00
C418   C     0.47750   0.86138   0.41928   0.00000  Uiso   1.00
C419   C     0.65989   0.84318   0.23615   0.00000  Uiso   1.00
C420   C     0.34080   0.82350   0.26373   0.00000  Uiso   1.00
C421   C     0.51376   0.98911   0.23662   0.00000  Uiso   1.00
C422   C     0.48509   0.67834   0.26367   0.00000  Uiso   1.00
C423   C     0.48943   0.72248   0.26013   0.00000  Uiso   1.00
C424   C     0.50988   0.94453   0.24020   0.00000  Uiso   1.00
C425   C     0.47418   0.91584   0.47975   0.00000  Uiso   1.00
C426   C     0.51836   0.81456   0.12943   0.00000  Uiso   1.00
C427   C     0.48163   0.85097   0.37097   0.00000  Uiso   1.00
C428   C     0.52461   0.75062   0.02109   0.00000  Uiso   1.00
C429   C     0.52436   0.80507   0.08155   0.00000  Uiso   1.00
C430   C     0.47022   0.90205   0.43688   0.00000  Uiso   1.00
C431   C     0.53124   0.70577   0.00415   0.00000  Uiso   1.00
C432   C     0.57278   0.70358   0.46778   0.00000  Uiso   1.00
C433   C     0.48659   0.88982   0.00534   0.00000  Uiso   1.00
C434   C     0.49342   0.84812   0.48925   0.00000  Uiso   1.00
C435   C     0.48626   0.83336   0.44657   0.00000  Uiso   1.00
C436   C     0.50679   0.82054   0.01415   0.00000  Uiso   1.00
C437   C     0.51132   0.77833   0.49660   0.00000  Uiso   1.00
C438   C     0.50042   0.76420   0.45616   0.00000  Uiso   1.00
C439   C     0.48735   0.79085   0.43226   0.00000  Uiso   1.00
H440   H     0.53757   0.74300   0.08409   0.00000  Uiso   1.00
H441   H     0.47718   0.77717   0.40269   0.00000  Uiso   1.00
H442   H     0.34883   0.86129   0.21070   0.00000  Uiso   1.00
H443   H     0.57663   0.67042   0.45622   0.00000  Uiso   1.00
H444   H     0.57254   0.72023   0.43866   0.00000  Uiso   1.00
H445   H     0.60064   0.71775   0.48129   0.00000  Uiso   1.00
H446   H     0.53320   0.68776   0.03171   0.00000  Uiso   1.00
H447   H     0.50339   0.68953   0.49191   0.00000  Uiso   1.00
H448   H     0.65256   0.80525   0.28944   0.00000  Uiso   1.00
H449   H     0.54022   0.67037   0.21178   0.00000  Uiso   1.00
H450   H     0.45821   0.99786   0.28857   0.00000  Uiso   1.00
H451   H     0.50110   0.73215   0.44251   0.00000  Uiso   1.00
H452   H     0.51018   0.86395   0.07283   0.00000  Uiso   1.00
H453   H     0.46316   0.92389   0.41677   0.00000  Uiso   1.00
H454   H     0.49015   0.90347   0.03763   0.00000  Uiso   1.00
H455   H     0.46893   0.94748   0.49278   0.00000  Uiso   1.00
O456   O     0.50000   0.83333   0.25000   0.00000  Uiso   1.00
O457   O     0.48784   0.79304   0.15458   0.00000  Uiso   1.00
O458   O     0.46274   0.87058   0.34968   0.00000  Uiso   1.00
O459   O     0.54157   0.84425   0.14606   0.00000  Uiso   1.00
O460   O     0.50785   0.82546   0.34968   0.00000  Uiso   1.00
O461   O     0.51264   0.74686   0.28213   0.00000  Uiso   1.00
O462   O     0.47965   0.92751   0.27013   0.00000  Uiso   1.00
O463   O     0.40745   0.79958   0.23413   0.00000  Uiso   1.00
O464   O     0.60026   0.85939   0.21360   0.00000  Uiso   1.00
O465   O     0.40405   0.85544   0.28213   0.00000  Uiso   1.00
O466   O     0.58824   0.81892   0.27013   0.00000  Uiso   1.00
O467   O     0.47093   0.73610   0.23413   0.00000  Uiso   1.00
O468   O     0.53678   0.92286   0.21360   0.00000  Uiso   1.00
Zn469  Zn    0.52672   0.80661   0.28734   0.00000  Uiso   1.00
Zn470  Zn    0.46713   0.79124   0.21875   0.00000  Uiso   1.00
Zn471  Zn    0.54389   0.86442   0.20657   0.00000  Uiso   1.00
Zn472  Zn    0.46226   0.87106   0.28733   0.00000  Uiso   1.00
C473   C     0.71938   0.82618   0.25999   0.00000  Uiso   1.00
C474   C     0.84783   0.83326   0.05662   0.00000  Uiso   1.00
C475   C     0.86352   0.76445   0.06371   0.00000  Uiso   1.00
C476   C     0.94739   0.84044   0.24006   0.00000  Uiso   1.00
C477   C     0.81083   0.86138   0.41928   0.00000  Uiso   1.00
C478   C     0.99322   0.84318   0.23615   0.00000  Uiso   1.00
C479   C     0.67413   0.82350   0.26373   0.00000  Uiso   1.00
C480   C     0.84709   0.98911   0.23662   0.00000  Uiso   1.00
C481   C     0.81842   0.67834   0.26367   0.00000  Uiso   1.00
C482   C     0.82276   0.72248   0.26013   0.00000  Uiso   1.00
C483   C     0.84322   0.94453   0.24020   0.00000  Uiso   1.00
C484   C     0.80752   0.91584   0.47975   0.00000  Uiso   1.00
C485   C     0.85169   0.81456   0.12943   0.00000  Uiso   1.00
C486   C     0.81497   0.85097   0.37097   0.00000  Uiso   1.00
C487   C     0.85794   0.75062   0.02109   0.00000  Uiso   1.00
C488   C     0.85770   0.80507   0.08155   0.00000  Uiso   1.00
C489   C     0.80356   0.90205   0.43688   0.00000  Uiso   1.00
C490   C     0.86457   0.70577   0.00415   0.00000  Uiso   1.00
C491   C     0.90611   0.70358   0.46778   0.00000  Uiso   1.00
C492   C     0.81993   0.88982   0.00534   0.00000  Uiso   1.00
C493   C     0.82675   0.84812   0.48925   0.00000  Uiso   1.00
C494   C     0.81960   0.83336   0.44657   0.00000  Uiso   1.00
C495   C     0.84012   0.82054   0.01415   0.00000  Uiso   1.00
C496   C     0.84465   0.77833   0.49660   0.00000  Uiso   1.00
C497   C     0.83375   0.76420   0.45616   0.00000  Uiso   1.00
C498   C     0.82069   0.79085   0.43226   0.00000  Uiso   1.00
H499   H     0.87091   0.74300   0.08409   0.00000  Uiso   1.00
H500   H     0.81052   0.77717   0.40269   0.00000  Uiso   1.00
H501   H     0.68216   0.86129   0.21070   0.00000  Uiso   1.00
H502   H     0.90996   0.67042   0.45622   0.00000  Uiso   1.00
H503   H     0.90587   0.72023   0.43866   0.00000  Uiso   1.00
H504   H     0.93398   0.71775   0.48129   0.00000  Uiso   1.00
H505   H     0.86653   0.68776   0.03171   0.00000  Uiso   1.00
H506   H     0.83672   0.68953   0.49191   0.00000  Uiso   1.00
H507   H     0.98590   0.80525   0.28944   0.00000  Uiso   1.00
H508   H     0.87355   0.67037   0.21178   0.00000  Uiso   1.00
H509   H     0.79154   0.99786   0.28857   0.00000  Uiso   1.00
H510   H     0.83443   0.73215   0.44251   0.00000  Uiso   1.00
H511   H     0.84351   0.86395   0.07283   0.00000  Uiso   1.00
H512   H     0.79649   0.92389   0.41677   0.00000  Uiso   1.00
H513   H     0.82349   0.90347   0.03763   0.00000  Uiso   1.00
H514   H     0.80226   0.94748   0.49278   0.00000  Uiso   1.00
O515   O     0.83333   0.83333   0.25000   0.00000  Uiso   1.00
O516   O     0.82118   0.79304   0.15458   0.00000  Uiso   1.00
O517   O     0.79607   0.87058   0.34968   0.00000  Uiso   1.00
O518   O     0.87491   0.84425   0.14606   0.00000  Uiso   1.00
O519   O     0.84118   0.82546   0.34968   0.00000  Uiso   1.00
O520   O     0.84597   0.74686   0.28213   0.00000  Uiso   1.00
O521   O     0.81298   0.92751   0.27013   0.00000  Uiso   1.00
O522   O     0.74078   0.79958   0.23413   0.00000  Uiso   1.00
O523   O     0.93360   0.85939   0.21360   0.00000  Uiso   1.00
O524   O     0.73738   0.85544   0.28213   0.00000  Uiso   1.00
O525   O     0.92158   0.81892   0.27013   0.00000  Uiso   1.00
O526   O     0.80426   0.73610   0.23413   0.00000  Uiso   1.00
O527   O     0.87012   0.92286   0.21360   0.00000  Uiso   1.00
Zn528  Zn    0.86005   0.80661   0.28734   0.00000  Uiso   1.00
Zn529  Zn    0.80046   0.79124   0.21875   0.00000  Uiso   1.00
Zn530  Zn    0.87723   0.86442   0.20657   0.00000  Uiso   1.00
Zn531  Zn    0.79560   0.87106   0.28733   0.00000  Uiso   1.00
C532   C     0.05272   0.15951   0.75999   0.00000  Uiso   1.00
C533   C     0.18116   0.16659   0.55662   0.00000  Uiso   1.00
C534   C     0.19685   0.09778   0.56371   0.00000  Uiso   1.00
C535   C     0.28073   0.17377   0.74006   0.00000  Uiso   1.00
C536   C     0.14416   0.19471   0.91928   0.00000  Uiso   1.00
C537   C     0.32655   0.17651   0.73615   0.00000  Uiso   1.00
C538   C     0.00746   0.15683   0.76373   0.00000  Uiso   1.00
C539   C     0.18042   0.32244   0.73662   0.00000  Uiso   1.00
C540   C     0.15176   0.01168   0.76367   0.00000  Uiso   1.00
C541   C     0.15610   0.05582   0.76013   0.00000  Uiso   1.00
C542   C     0.17655   0.27786   0.74020   0.00000  Uiso   1.00
C543   C     0.14085   0.24918   0.97975   0.00000  Uiso   1.00
C544   C     0.18503   0.14790   0.62943   0.00000  Uiso   1.00
C545   C     0.14830   0.18430   0.87097   0.00000  Uiso   1.00
C546   C     0.19128   0.08396   0.52109   0.00000  Uiso   1.00
C547   C     0.19103   0.13840   0.58155   0.00000  Uiso   1.00
C548   C     0.13689   0.23538   0.93688   0.00000  Uiso   1.00
C549   C     0.19790   0.03911   0.50415   0.00000  Uiso   1.00
C550   C     0.23944   0.03691   0.96778   0.00000  Uiso   1.00
C551   C     0.15326   0.22316   0.50534   0.00000  Uiso   1.00
C552   C     0.16008   0.18146   0.98925   0.00000  Uiso   1.00
C553   C     0.15293   0.16670   0.94657   0.00000  Uiso   1.00
C554   C     0.17345   0.15388   0.51415   0.00000  Uiso   1.00
C555   C     0.17798   0.11166   0.99660   0.00000  Uiso   1.00
C556   C     0.16708   0.09754   0.95616   0.00000  Uiso   1.00
C557   C     0.15402   0.12418   0.93226   0.00000  Uiso   1.00
H558   H     0.20424   0.07634   0.58409   0.00000  Uiso   1.00
H559   H     0.14385   0.11051   0.90269   0.00000  Uiso   1.00
H560   H     0.01550   0.19462   0.71070   0.00000  Uiso   1.00
H561   H     0.24330   0.00375   0.95622   0.00000  Uiso   1.00
H562   H     0.23921   0.05356   0.93866   0.00000  Uiso   1.00
H563   H     0.26731   0.05108   0.98129   0.00000  Uiso   1.00
H564   H     0.19987   0.02109   0.53171   0.00000  Uiso   1.00
H565   H     0.17006   0.02286   0.99191   0.00000  Uiso   1.00
H566   H     0.31923   0.13858   0.78944   0.00000  Uiso   1.00
H567   H     0.20689   0.00371   0.71178   0.00000  Uiso   1.00
H568   H     0.12488   0.33119   0.78857   0.00000  Uiso   1.00
H569   H     0.16776   0.06548   0.94251   0.00000  Uiso   1.00
H570   H     0.17685   0.19729   0.57283   0.00000  Uiso   1.00
H571   H     0.12983   0.25722   0.91677   0.00000  Uiso   1.00
H572   H     0.15682   0.23681   0.53763   0.00000  Uiso   1.00
H573   H     0.13560   0.28081   0.99278   0.00000  Uiso   1.00
O574   O     0.16667   0.16667   0.75000   0.00000  Uiso   1.00
O575   O     0.15451   0.12637   0.65458   0.00000  Uiso   1.00
O576   O     0.12940   0.20391   0.84968   0.00000  Uiso   1.00
O577   O     0.20824   0.17759   0.64606   0.00000  Uiso   1.00
O578   O     0.17451   0.15880   0.84968   0.00000  Uiso   1.00
O579   O     0.17930   0.08019   0.78213   0.00000  Uiso   1.00
O580   O     0.14632   0.26085   0.77013   0.00000  Uiso   1.00
O581   O     0.07412   0.13291   0.73413   0.00000  Uiso   1.00
O582   O     0.26693   0.19272   0.71360   0.00000  Uiso   1.00
O583   O     0.07071   0.18878   0.78213   0.00000  Uiso   1.00
O584   O     0.25491   0.15226   0.77013   0.00000  Uiso   1.00
O585   O     0.13760   0.06944   0.73413   0.00000  Uiso   1.00
O586   O     0.20345   0.25620   0.71360   0.00000  Uiso   1.00
Zn587  Zn    0.19338   0.13994   0.78734   0.00000  Uiso   1.00
Zn588  Zn    0.13379   0.12458   0.71875   0.00000  Uiso   1.00
Zn589  Zn    0.21056   0.19775   0.70657   0.00000  Uiso   1.00
Zn590  Zn    0.12893   0.20439   0.78733   0.00000  Uiso   1.00
C591   C     0.38605   0.15951   0.75999   0.00000  Uiso   1.00
C592   C     0.51450   0.16659   0.55662   0.00000  Uiso   1.00
C593   C     0.53019   0.09778   0.56371   0.00000  Uiso   1.00
C594   C     0.61406   0.17377   0.74006   0.00000  Uiso   1.00
C595   C     0.47750   0.19471   0.91928   0.00000  Uiso   1.00
C596   C     0.65989   0.17651   0.73615   0.00000  Uiso   1.00
C597   C     0.34080   0.15683   0.76373   0.00000  Uiso   1.00
C598   C     0.51376   0.32244   0.73662   0.00000  Uiso   1.00
C599   C     0.48509   0.01168   0.76367   0.00000  Uiso   1.00
C600   C     0.48943   0.05582   0.76013   0.00000  Uiso   1.00
C601   C     0.50988   0.27786   0.74020   0.00000  Uiso   1.00
C602   C     0.47418   0.24918   0.97975   0.00000  Uiso   1.00
C603   C     0.51836   0.14790   0.62943   0.00000  Uiso   1.00
C604   C     0.48163   0.18430   0.87097   0.00000  Uiso   1.00
C605   C     0.52461   0.08396   0.52109   0.00000  Uiso   1.00
C606   C     0.52436   0.13840   0.58155   0.00000  Uiso   1.00
C607   C     0.47022   0.23538   0.93688   0.00000  Uiso   1.00
C608   C     0.53124   0.03911   0.50415   0.00000  Uiso   1.00
C609   C     0.57278   0.03691   0.96778   0.00000  Uiso   1.00
C610   C     0.48659   0.22316   0.50534   0.00000  Uiso   1.00
C611   C     0.49342   0.18146   0.98925   0.00000  Uiso   1.00
C612   C     0.48626   0.16670   0.94657   0.00000  Uiso   1.00
C613   C     0.50679   0.15388   0.51415   0.00000  Uiso   1.00
C614   C     0.51132   0.11166   0.99660   0.00000  Uiso   1.00
C615   C     0.50042   0.09754   0.95616   0.00000  Uiso   1.00
C616   C     0.48735   0.12418   0.93226   0.00000  Uiso   1.00
H617   H     0.53757   0.07634   0.58409   0.00000  Uiso   1.00
H618   H     0.47718   0.11051   0.90269   0.00000  Uiso   1.00
H619   H     0.34883   0.19462   0.71070   0.00000  Uiso   1.00
H620   H     0.57663   0.00375   0.95622   0.00000  Uiso   1.00
H621   H     0.57254   0.05356   0.93866   0.00000  Uiso   1.00
H622   H     0.60064   0.05108   0.98129   0.00000  Uiso   1.00
H623   H     0.53320   0.02109   0.53171   0.00000  Uiso   1.00
H624   H     0.50339   0.02286   0.99191   0.00000  Uiso   1.00
H625   H     0.65256   0.13858   0.78944   0.00000  Uiso   1.00
H626   H     0.54022   0.00371   0.71178   0.00000  Uiso   1.00
H627   H     0.45821   0.33119   0.78857   0.00000  Uiso   1.00
H628   H     0.50110   0.06548   0.94251   0.00000  Uiso   1.00
H629   H     0.51018   0.19729   0.57283   0.00000  Uiso   1.00
H630   H     0.46316   0.25722   0.91677   0.00000  Uiso   1.00
H631   H     0.49015   0.23681   0.53763   0.00000  Uiso   1.00
H632   H     0.46893   0.28081   0.99278   0.00000  Uiso   1.00
O633   O     0.50000   0.16667   0.75000   0.00000  Uiso   1.00
O634   O     0.48784   0.12637   0.65458   0.00000  Uiso   1.00
O635   O     0.46274   0.20391   0.84968   0.00000  Uiso   1.00
O636   O     0.54157   0.17759   0.64606   0.00000  Uiso   1.00
O637   O     0.50785   0.15880   0.84968   0.00000  Uiso   1.00
O638   O     0.51264   0.08019   0.78213   0.00000  Uiso   1.00
O639   O     0.47965   0.26085   0.77013   0.00000  Uiso   1.00
O640   O     0.40745   0.13291   0.73413   0.00000  Uiso   1.00
O641   O     0.60026   0.19272   0.71360   0.00000  Uiso   1.00
O642   O     0.40405   0.18878   0.78213   0.00000  Uiso   1.00
O643   O     0.58824   0.15226   0.77013   0.00000  Uiso   1.00
O644   O     0.47093   0.06944   0.73413   0.00000  Uiso   1.00
O645   O     0.53678   0.25620   0.71360   0.00000  Uiso   1.00
Zn646  Zn    0.52672   0.13994   0.78734   0.00000  Uiso   1.00
Zn647  Zn    0.46713   0.12458   0.71875   0.00000  Uiso   1.00
Zn648  Zn    0.54389   0.19775   0.70657   0.00000  Uiso   1.00
Zn649  Zn    0.46226   0.20439   0.78733   0.00000  Uiso   1.00
C650   C     0.71938   0.15951   0.75999   0.00000  Uiso   1.00
C651   C     0.84783   0.16659   0.55662   0.00000  Uiso   1.00
C652   C     0.86352   0.09778   0.56371   0.00000  Uiso   1.00
C653   C     0.94739   0.17377   0.74006   0.00000  Uiso   1.00
C654   C     0.81083   0.19471   0.91928   0.00000  Uiso   1.00
C655   C     0.99322   0.17651   0.73615   0.00000  Uiso   1.00
C656   C     0.67413   0.15683   0.76373   0.00000  Uiso   1.00
C657   C     0.84709   0.32244   0.73662   0.00000  Uiso   1.00
C658   C     0.81842   0.01168   0.76367   0.00000  Uiso   1.00
C659   C     0.82276   0.05582   0.76013   0.00000  Uiso   1.00
C660   C     0.84322   0.27786   0.74020   0.00000  Uiso   1.00
C661   C     0.80752   0.24918   0.97975   0.00000  Uiso   1.00
C662   C     0.85169   0.14790   0.62943   0.00000  Uiso   1.00
C663   C     0.81497   0.18430   0.87097   0.00000  Uiso   1.00
C664   C     0.85794   0.08396   0.52109   0.00000  Uiso   1.00
C665   C     0.85770   0.13840   0.58155   0.00000  Uiso   1.00
C666   C     0.80356   0.23538   0.93688   0.00000  Uiso   1.00
C667   C     0.86457   0.03911   0.50415   0.00000  Uiso   1.00
C668   C     0.90611   0.03691   0.96778   0.00000  Uiso   1.00
C669   C     0.81993   0.22316   0.50534   0.00000  Uiso   1.00
C670   C     0.82675   0.18146   0.98925   0.00000  Uiso   1.00
C671   C     0.81960   0.16670   0.94657   0.00000  Uiso   1.00
C672   C     0.84012   0.15388   0.51415   0.00000  Uiso   1.00
C673   C     0.84465   0.11166   0.99660   0.00000  Uiso   1.00
C674   C     0.83375   0.09754   0.95616   0.00000  Uiso   1.00
C675   C     0.82069   0.12418   0.93226   0.00000  Uiso   1.00
H676   H     0.87091   0.07634   0.58409   0.00000  Uiso   1.00
H677   H     0.81052   0.11051   0.90269   0.00000  Uiso   1.00
H678   H     0.68216   0.19462   0.71070   0.00000  Uiso   1.00
H679   H     0.90996   0.00375   0.95622   0.00000  Uiso   1.00
H680   H     0.90587   0.05356   0.93866   0.00000  Uiso   1.00
H681   H     0.93398   0.05108   0.98129   0.00000  Uiso   1.00
H682   H     0.86653   0.02109   0.53171   0.00000  Uiso   1.00
H683   H     0.83672   0.02286   0.99191   0.00000  Uiso   1.00
H684   H     0.98590   0.13858   0.78944   0.00000  Uiso   1.00
H685   H     0.87355   0.00371   0.71178   0.00000  Uiso   1.00
H686   H     0.79154   0.33119   0.78857   0.00000  Uiso   1.00
H687   H     0.83443   0.06548   0.94251   0.00000  Uiso   1.00
H688   H     0.84351   0.19729   0.57283   0.00000  Uiso   1.00
H689   H     0.79649   0.25722   0.91677   0.00000  Uiso   1.00
H690   H     0.82349   0.23681   0.53763   0.00000  Uiso   1.00
H691   H     0.80226   0.28081   0.99278   0.00000  Uiso   1.00
O692   O     0.83333   0.16667   0.75000   0.00000  Uiso   1.00
O693   O     0.82118   0.12637   0.65458   0.00000  Uiso   1.00
O694   O     0.79607   0.20391   0.84968   0.00000  Uiso   1.00
O695   O     0.87491   0.17759   0.64606   0.00000  Uiso   1.00
O696   O     0.84118   0.15880   0.84968   0.00000  Uiso   1.00
O697   O     0.84597   0.08019   0.78213   0.00000  Uiso   1.00
O698   O     0.81298   0.26085   0.77013   0.00000  Uiso   1.00
O699   O     0.74078   0.13291   0.73413   0.00000  Uiso   1.00
O700   O     0.93360   0.19272   0.71360   0.00000  Uiso   1.00
O701   O     0.73738   0.18878   0.78213   0.00000  Uiso   1.00
O702   O     0.92158   0.15226   0.77013   0.00000  Uiso   1.00
O703   O     0.80426   0.06944   0.73413   0.00000  Uiso   1.00
O704   O     0.87012   0.25620   0.71360   0.00000  Uiso   1.00
Zn705  Zn    0.86005   0.13994   0.78734   0.00000  Uiso   1.00
Zn706  Zn    0.80046   0.12458   0.71875   0.00000  Uiso   1.00
Zn707  Zn    0.87723   0.19775   0.70657   0.00000  Uiso   1.00
Zn708  Zn    0.79560   0.20439   0.78733   0.00000  Uiso   1.00
C709   C     0.05272   0.49284   0.75999   0.00000  Uiso   1.00
C710   C     0.18116   0.49992   0.55662   0.00000  Uiso   1.00
C711   C     0.19685   0.43112   0.56371   0.00000  Uiso   1.00
C712   C     0.28073   0.50710   0.74006   0.00000  Uiso   1.00
C713   C     0.14416   0.52805   0.91928   0.00000  Uiso   1.00
C714   C     0.32655   0.50984   0.73615   0.00000  Uiso   1.00
C715   C     0.00746   0.49017   0.76373   0.00000  Uiso   1.00
C716   C     0.18042   0.65578   0.73662   0.00000  Uiso   1.00
C717   C     0.15176   0.34501   0.76367   0.00000  Uiso   1.00
C718   C     0.15610   0.38915   0.76013   0.00000  Uiso   1.00
C719   C     0.17655   0.61120   0.74020   0.00000  Uiso   1.00
C720   C     0.14085   0.58251   0.97975   0.00000  Uiso   1.00
C721   C     0.18503   0.48123   0.62943   0.00000  Uiso   1.00
C722   C     0.14830   0.51763   0.87097   0.00000  Uiso   1.00
C723   C     0.19128   0.41729   0.52109   0.00000  Uiso   1.00
C724   C     0.19103   0.47174   0.58155   0.00000  Uiso   1.00
C725   C     0.13689   0.56872   0.93688   0.00000  Uiso   1.00
C726   C     0.19790   0.37244   0.50415   0.00000  Uiso   1.00
C727   C     0.23944   0.37024   0.96778   0.00000  Uiso   1.00
C728   C     0.15326   0.55649   0.50534   0.00000  Uiso   1.00
C729   C     0.16008   0.51479   0.98925   0.00000  Uiso   1.00
C730   C     0.15293   0.50003   0.94657   0.00000  Uiso   1.00
C731   C     0.17345   0.48721   0.51415   0.00000  Uiso   1.00
C732   C     0.17798   0.44499   0.99660   0.00000  Uiso   1.00
C733   C     0.16708   0.43087   0.95616   0.00000  Uiso   1.00
C734   C     0.15402   0.45752   0.93226   0.00000  Uiso   1.00
H735   H     0.20424   0.40967   0.58409   0.00000  Uiso   1.00
H736   H     0.14385   0.44384   0.90269   0.00000  Uiso   1.00
H737   H     0.01550   0.52796   0.71070   0.00000  Uiso   1.00
H738   H     0.24330   0.33709   0.95622   0.00000  Uiso   1.00
H739   H     0.23921   0.38689   0.93866   0.00000  Uiso   1.00
H740   H     0.26731   0.38441   0.98129   0.00000  Uiso   1.00
H741   H     0.19987   0.35442   0.53171   0.00000  Uiso   1.00
H742   H     0.17006   0.35619   0.99191   0.00000  Uiso   1.00
H743   H     0.31923   0.47192   0.78944   0.00000  Uiso   1.00
H744   H     0.20689   0.33704   0.71178   0.00000  Uiso   1.00
H745   H     0.12488   0.66453   0.78857   0.00000  Uiso   1.00
H746   H     0.16776   0.39881   0.94251   0.00000  Uiso   1.00
H747   H     0.17685   0.53062   0.57283   0.00000  Uiso   1.00
H748   H     0.12983   0.59055   0.91677   0.00000  Uiso   1.00
H749   H     0.15682   0.57014   0.53763   0.00000  Uiso   1.00
H750   H     0.13560   0.61414   0.99278   0.00000  Uiso   1.00
O751   O     0.16667   0.50000   0.75000   0.00000  Uiso   1.00
O752   O     0.15451   0.45970   0.65458   0.00000  Uiso   1.00
O753   O     0.12940   0.53724   0.84968   0.00000  Uiso   1.00
O754   O     0.20824   0.51092   0.64606   0.00000  Uiso   1.00
O755   O     0.17451   0.49213   0.84968   0.00000  Uiso   1.00
O756   O     0.17930   0.41352   0.78213   0.00000  Uiso   1.00
O757   O     0.14632   0.59418   0.77013   0.00000  Uiso   1.00
O758   O     0.07412   0.46625   0.73413   0.00000  Uiso   1.00
O759   O     0.26693   0.52605   0.71360   0.00000  Uiso   1.00
O760   O     0.07071   0.52211   0.78213   0.00000  Uiso   1.00
O761   O     0.25491   0.48559   0.77013   0.00000  Uiso   1.00
O762   O     0.13760   0.40277   0.73413   0.00000  Uiso   1.00
O763   O     0.20345   0.58953   0.71360   0.00000  Uiso   1.00
Zn764  Zn    0.19338   0.47327   0.78734   0.00000  Uiso   1.00
Zn765  Zn    0.13379   0.45791   0.71875   0.00000  Uiso   1.00
Zn766  Zn    0.21056   0.53109   0.70657   0.00000  Uiso   1.00
Zn767  Zn    0.12893   0.53773   0.78733   0.00000  Uiso   1.00
C768   C     0.38605   0.49284   0.75999   0.00000  Uiso   1.00
C769   C     0.51450   0.49992   0.55662   0.00000  Uiso   1.00
C770   C     0.53019   0.43112   0.56371   0.00000  Uiso   1.00
C771   C     0.61406   0.50710   0.74006   0.00000  Uiso   1.00
C772   C     0.47750   0.52805   0.91928   0.00000  Uiso   1.00
C773   C     0.65989   0.50984   0.73615   0.00000  Uiso   1.00
C774   C     0.34080   0.49017   0.76373   0.00000  Uiso   1.00
C775   C     0.51376   0.65578   0.73662   0.00000  Uiso   1.00
C776   C     0.48509   0.34501   0.76367   0.00000  Uiso   1.00
C777   C     0.48943   0.38915   0.76013   0.00000  Uiso   1.00
C778   C     0.50988   0.61120   0.74020   0.00000  Uiso   1.00
C779   C     0.47418   0.58251   0.97975   0.00000  Uiso   1.00
C780   C     0.51836   0.48123   0.62943   0.00000  Uiso   1.00
C781   C     0.48163   0.51763   0.87097   0.00000  Uiso   1.00
C782   C     0.52461   0.41729   0.52109   0.00000  Uiso   1.00
C783   C     0.52436   0.47174   0.58155   0.00000  Uiso   1.00
C784   C     0.47022   0.56872   0.93688   0.00000  Uiso   1.00
C785   C     0.53124   0.37244   0.50415   0.00000  Uiso   1.00
C786   C     0.57278   0.37024   0.96778   0.00000  Uiso   1.00
C787   C     0.48659   0.55649   0.50534   0.00000  Uiso   1.00
C788   C     0.49342   0.51479   0.98925   0.00000  Uiso   1.00
C789   C     0.48626   0.50003   0.94657   0.00000  Uiso   1.00
C790   C     0.50679   0.48721   0.51415   0.00000  Uiso   1.00
C791   C     0.51132   0.44499   0.99660   0.00000  Uiso   1.00
C792   C     0.50042   0.43087   0.95616   0.00000  Uiso   1.00
C793   C     0.48735   0.45752   0.93226   0.00000  Uiso   1.00
H794   H     0.53757   0.40967   0.58409   0.00000  Uiso   1.00
H795   H     0.47718   0.44384   0.90269   0.00000  Uiso   1.00
H796   H     0.34883   0.52796   0.71070   0.00000  Uiso   1.00
H797   H     0.57663   0.33709   0.95622   0.00000  Uiso   1.00
H798   H     0.57254   0.38689   0.93866   0.00000  Uiso   1.00
H799   H     0.60064   0.38441   0.98129   0.00000  Uiso   1.00
H800   H     0.53320   0.35442   0.53171   0.00000  Uiso   1.00
H801   H     0.50339   0.35619   0.99191   0.00000  Uiso   1.00
H802   H     0.65256   0.47192   0.78944   0.00000  Uiso   1.00
H803   H     0.54022   0.33704   0.71178   0.00000  Uiso   1.00
H804   H     0.45821   0.66453   0.78857   0.00000  Uiso   1.00
H805   H     0.50110   0.39881   0.94251   0.00000  Uiso   1.00
H806   H     0.51018   0.53062   0.57283   0.00000  Uiso   1.00
H807   H     0.46316   0.59055   0.91677   0.00000  Uiso   1.00
H808   H     0.49015   0.57014   0.53763   0.00000  Uiso   1.00
H809   H     0.46893   0.61414   0.99278   0.00000  Uiso   1.00
O810   O     0.50000   0.50000   0.75000   0.00000  Uiso   1.00
O811   O     0.48784   0.45970   0.65458   0.00000  Uiso   1.00
O812   O     0.46274   0.53724   0.84968   0.00000  Uiso   1.00
O813   O     0.54157   0.51092   0.64606   0.00000  Uiso   1.00
O814   O     0.50785   0.49213   0.84968   0.00000  Uiso   1.00
O815   O     0.51264   0.41352   0.78213   0.00000  Uiso   1.00
O816   O     0.47965   0.59418   0.77013   0.00000  Uiso   1.00
O817   O     0.40745   0.46625   0.73413   0.00000  Uiso   1.00
O818   O     0.60026   0.52605   0.71360   0.00000  Uiso   1.00
O819   O     0.40405   0.52211   0.78213   0.00000  Uiso   1.00
O820   O     0.58824   0.48559   0.77013   0.00000  Uiso   1.00
O821   O     0.47093   0.40277   0.73413   0.00000  Uiso   1.00
O822   O     0.53678   0.58953   0.71360   0.00000  Uiso   1.00
Zn823  Zn    0.52672   0.47327   0.78734   0.00000  Uiso   1.00
Zn824  Zn    0.46713   0.45791   0.71875   0.00000  Uiso   1.00
Zn825  Zn    0.54389   0.53109   0.70657   0.00000  Uiso   1.00
Zn826  Zn    0.46226   0.53773   0.78733   0.00000  Uiso   1.00
C827   C     0.71938   0.49284   0.75999   0.00000  Uiso   1.00
C828   C     0.84783   0.49992   0.55662   0.00000  Uiso   1.00
C829   C     0.86352   0.43112   0.56371   0.00000  Uiso   1.00
C830   C     0.94739   0.50710   0.74006   0.00000  Uiso   1.00
C831   C     0.81083   0.52805   0.91928   0.00000  Uiso   1.00
C832   C     0.99322   0.50984   0.73615   0.00000  Uiso   1.00
C833   C     0.67413   0.49017   0.76373   0.00000  Uiso   1.00
C834   C     0.84709   0.65578   0.73662   0.00000  Uiso   1.00
C835   C     0.81842   0.34501   0.76367   0.00000  Uiso   1.00
C836   C     0.82276   0.38915   0.76013   0.00000  Uiso   1.00
C837   C     0.84322   0.61120   0.74020   0.00000  Uiso   1.00
C838   C     0.80752   0.58251   0.97975   0.00000  Uiso   1.00
C839   C     0.85169   0.48123   0.62943   0.00000  Uiso   1.00
C840   C     0.81497   0.51763   0.87097   0.00000  Uiso   1.00
C841   C     0.85794   0.41729   0.52109   0.00000  Uiso   1.00
C842   C     0.85770   0.47174   0.58155   0.00000  Uiso   1.00
C843   C     0.80356   0.56872   0.93688   0.00000  Uiso   1.00
C844   C     0.86457   0.37244   0.50415   0.00000  Uiso   1.00
C845   C     0.90611   0.37024   0.96778   0.00000  Uiso   1.00
C846   C     0.81993   0.55649   0.50534   0.00000  Uiso   1.00
C847   C     0.82675   0.51479   0.98925   0.00000  Uiso   1.00
C848   C     0.81960   0.50003   0.94657   0.00000  Uiso   1.00
C849   C     0.84012   0.48721   0.51415   0.00000  Uiso   1.00
C850   C     0.84465   0.44499   0.99660   0.00000  Uiso   1.00
C851   C     0.83375   0.43087   0.95616   0.00000  Uiso   1.00
C852   C     0.82069   0.45752   0.93226   0.00000  Uiso   1.00
H853   H     0.87091   0.40967   0.58409   0.00000  Uiso   1.00
H854   H     0.81052   0.44384   0.90269   0.00000  Uiso   1.00
H855   H     0.68216   0.52796   0.71070   0.00000  Uiso   1.00
H856   H     0.90996   0.33709   0.95622   0.00000  Uiso   1.00
H857   H     0.90587   0.38689   0.93866   0.00000  Uiso   1.00
H858   H     0.93398   0.38441   0.98129   0.00000  Uiso   1.00
H859   H     0.86653   0.35442   0.53171   0.00000  Uiso   1.00
H860   H     0.83672   0.35619   0.99191   0.00000  Uiso   1.00
H861   H     0.98590   0.47192   0.78944   0.00000  Uiso   1.00
H862   H     0.87355   0.33704   0.71178   0.00000  Uiso   1.00
H863   H     0.79154   0.66453   0.78857   0.00000  Uiso   1.00
H864   H     0.83443   0.39881   0.94251   0.00000  Uiso   1.00
H865   H     0.84351   0.53062   0.57283   0.00000  Uiso   1.00
H866   H     0.79649   0.59055   0.91677   0.00000  Uiso   1.00
H867   H     0.82349   0.57014   0.53763   0.00000  Uiso   1.00
H868   H     0.80226   0.61414   0.99278   0.00000  Uiso   1.00
O869   O     0.83333   0.50000   0.75000   0.00000  Uiso   1.00
O870   O     0.82118   0.45970   0.65458   0.00000  Uiso   1.00
O871   O     0.79607   0.53724   0.84968   0.00000  Uiso   1.00
O872   O     0.87491   0.51092   0.64606   0.00000  Uiso   1.00
O873   O     0.84118   0.49213   0.84968   0.00000  Uiso   1.00
O874   O     0.84597   0.41352   0.78213   0.00000  Uiso   1.00
O875   O     0.81298   0.59418   0.77013   0.00000  Uiso   1.00
O876   O     0.74078   0.46625   0.73413   0.00000  Uiso   1.00
O877   O     0.93360   0.52605   0.71360   0.00000  Uiso   1.00
O878   O     0.73738   0.52211   0.78213   0.00000  Uiso   1.00
O879   O     0.92158   0.48559   0.77013   0.00000  Uiso   1.00
O880   O     0.80426   0.40277   0.73413   0.00000  Uiso   1.00
O881   O     0.87012   0.58953   0.71360   0.00000  Uiso   1.00
Zn882  Zn    0.86005   0.47327   0.78734   0.00000  Uiso   1.00
Zn883  Zn    0.80046   0.45791   0.71875   0.00000  Uiso   1.00
Zn884  Zn    0.87723   0.53109   0.70657   0.00000  Uiso   1.00
Zn885  Zn    0.79560   0.53773   0.78733   0.00000  Uiso   1.00
C886   C     0.05272   0.82618   0.75999   0.00000  Uiso   1.00
C887   C     0.18116   0.83326   0.55662   0.00000  Uiso   1.00
C888   C     0.19685   0.76445   0.56371   0.00000  Uiso   1.00
C889   C     0.28073   0.84044   0.74006   0.00000  Uiso   1.00
C890   C     0.14416   0.86138   0.91928   0.00000  Uiso   1.00
C891   C     0.32655   0.84318   0.73615   0.00000  Uiso   1.00
C892   C     0.00746   0.82350   0.76373   0.00000  Uiso   1.00
C893   C     0.18042   0.98911   0.73662   0.00000  Uiso   1.00
C894   C     0.15176   0.67834   0.76367   0.00000  Uiso   1.00
C895   C     0.15610   0.72248   0.76013   0.00000  Uiso   1.00
C896   C     0.17655   0.94453   0.74020   0.00000  Uiso   1.00
C897   C     0.14085   0.91584   0.97975   0.00000  Uiso   1.00
C898   C     0.18503   0.81456   0.62943   0.00000  Uiso   1.00
C899   C     0.14830   0.85097   0.87097   0.00000  Uiso   1.00
C900   C     0.19128   0.75062   0.52109   0.00000  Uiso   1.00
C901   C     0.19103   0.80507   0.58155   0.00000  Uiso   1.00
C902   C     0.13689   0.90205   0.93688   0.00000  Uiso   1.00
C903   C     0.19790   0.70577   0.50415   0.00000  Uiso   1.00
C904   C     0.23944   0.70358   0.96778   0.00000  Uiso   1.00
C905   C     0.15326   0.88982   0.50534   0.00000  Uiso   1.00
C906   C     0.16008   0.84812   0.98925   0.00000  Uiso   1.00
C907   C     0.15293   0.83336   0.94657   0.00000  Uiso   1.00
C908   C     0.17345   0.82054   0.51415   0.00000  Uiso   1.00
C909   C     0.17798   0.77833   0.99660   0.00000  Uiso   1.00
C910   C     0.16708   0.76420   0.95616   0.00000  Uiso   1.00
C911   C     0.15402   0.79085   0.93226   0.00000  Uiso   1.00
H912   H     0.20424   0.74300   0.58409   0.00000  Uiso   1.00
H913   H     0.14385   0.77717   0.90269   0.00000  Uiso   1.00
H914   H     0.01550   0.86129   0.71070   0.00000  Uiso   1.00
H915   H     0.24330   0.67042   0.95622   0.00000  Uiso   1.00
H916   H     0.23921   0.72023   0.93866   0.00000  Uiso   1.00
H917   H     0.26731   0.71775   0.98129   0.00000  Uiso   1.00
H918   H     0.19987   0.68776   0.53171   0.00000  Uiso   1.00
H919   H     0.17006   0.68953   0.99191   0.00000  Uiso   1.00
H920   H     0.31923   0.80525   0.78944   0.00000  Uiso   1.00
H921   H     0.20689   0.67037   0.71178   0.00000  Uiso   1.00
H922   H     0.12488   0.99786   0.78857   0.00000  Uiso   1.00
H923   H     0.16776   0.73215   0.94251   0.00000  Uiso   1.00
H924   H     0.17685   0.86395   0.57283   0.00000  Uiso   1.00
H925   H     0.12983   0.92389   0.91677   0.00000  Uiso   1.00
H926   H     0.15682   0.90347   0.53763   0.00000  Uiso   1.00
H927   H     0.13560   0.94748   0.99278   0.00000  Uiso   1.00
O928   O     0.16667   0.83333   0.75000   0.00000  Uiso   1.00
O929   O     0.15451   0.79304   0.65458   0.00000  Uiso   1.00
O930   O     0.12940   0.87058   0.84968   0.00000  Uiso   1.00
O931   O     0.20824   0.84425   0.64606   0.00000  Uiso   1.00
O932   O     0.17451   0.82546   0.84968   0.00000  Uiso   1.00
O933   O     0.17930   0.74686   0.78213   0.00000  Uiso   1.00
O934   O     0.14632   0.92751   0.77013   0.00000  Uiso   1.00
O935   O     0.07412   0.79958   0.73413   0.00000  Uiso   1.00
O936   O     0.26693   0.85939   0.71360   0.00000  Uiso   1.00
O937   O     0.07071   0.85544   0.78213   0.00000  Uiso   1.00
O938   O     0.25491   0.81892   0.77013   0.00000  Uiso   1.00
O939   O     0.13760   0.73610   0.73413   0.00000  Uiso   1.00
O940   O     0.20345   0.92286   0.71360   0.00000  Uiso   1.00
Zn941  Zn    0.19338   0.80661   0.78734   0.00000  Uiso   1.00
Zn942  Zn    0.13379   0.79124   0.71875   0.00000  Uiso   1.00
Zn943  Zn    0.21056   0.86442   0.70657   0.00000  Uiso   1.00
Zn944  Zn    0.12893   0.87106   0.78733   0.00000  Uiso   1.00
C945   C     0.38605   0.82618   0.75999   0.00000  Uiso   1.00
C946   C     0.51450   0.83326   0.55662   0.00000  Uiso   1.00
C947   C     0.53019   0.76445   0.56371   0.00000  Uiso   1.00
C948   C     0.61406   0.84044   0.74006   0.00000  Uiso   1.00
C949   C     0.47750   0.86138   0.91928   0.00000  Uiso   1.00
C950   C     0.65989   0.84318   0.73615   0.00000  Uiso   1.00
C951   C     0.34080   0.82350   0.76373   0.00000  Uiso   1.00
C952   C     0.51376   0.98911   0.73662   0.00000  Uiso   1.00
C953   C     0.48509   0.67834   0.76367   0.00000  Uiso   1.00
C954   C     0.48943   0.72248   0.76013   0.00000  Uiso   1.00
C955   C     0.50988   0.94453   0.74020   0.00000  Uiso   1.00
C956   C     0.47418   0.91584   0.97975   0.00000  Uiso   1.00
C957   C     0.51836   0.81456   0.62943   0.00000  Uiso   1.00
C958   C     0.48163   0.85097   0.87097   0.00000  Uiso   1.00
C959   C     0.52461   0.75062   0.52109   0.00000  Uiso   1.00
C960   C     0.52436   0.80507   0.58155   0.00000  Uiso   1.00
C961   C     0.47022   0.90205   0.93688   0.00000  Uiso   1.00
C962   C     0.53124   0.70577   0.50415   0.00000  Uiso   1.00
C963   C     0.57278   0.70358   0.96778   0.00000  Uiso   1.00
C964   C     0.48659   0.88982   0.50534   0.00000  Uiso   1.00
C965   C     0.49342   0.84812   0.98925   0.00000  Uiso   1.00
C966   C     0.48626   0.83336   0.94657   0.00000  Uiso   1.00
C967   C     0.50679   0.82054   0.51415   0.00000  Uiso   1.00
C968   C     0.51132   0.77833   0.99660   0.00000  Uiso   1.00
C969   C     0.50042   0.76420   0.95616   0.00000  Uiso   1.00
C970   C     0.48735   0.79085   0.93226   0.00000  Uiso   1.00
H971   H     0.53757   0.74300   0.58409   0.00000  Uiso   1.00
H972   H     0.47718   0.77717   0.90269   0.00000  Uiso   1.00
H973   H     0.34883   0.86129   0.71070   0.00000  Uiso   1.00
H974   H     0.57663   0.67042   0.95622   0.00000  Uiso   1.00
H975   H     0.57254   0.72023   0.93866   0.00000  Uiso   1.00
H976   H     0.60064   0.71775   0.98129   0.00000  Uiso   1.00
H977   H     0.53320   0.68776   0.53171   0.00000  Uiso   1.00
H978   H     0.50339   0.68953   0.99191   0.00000  Uiso   1.00
H979   H     0.65256   0.80525   0.78944   0.00000  Uiso   1.00
H980   H     0.54022   0.67037   0.71178   0.00000  Uiso   1.00
H981   H     0.45821   0.99786   0.78857   0.00000  Uiso   1.00
H982   H     0.50110   0.73215   0.94251   0.00000  Uiso   1.00
H983   H     0.51018   0.86395   0.57283   0.00000  Uiso   1.00
H984   H     0.46316   0.92389   0.91677   0.00000  Uiso   1.00
H985   H     0.49015   0.90347   0.53763   0.00000  Uiso   1.00
H986   H     0.46893   0.94748   0.99278   0.00000  Uiso   1.00
O987   O     0.50000   0.83333   0.75000   0.00000  Uiso   1.00
O988   O     0.48784   0.79304   0.65458   0.00000  Uiso   1.00
O989   O     0.46274   0.87058   0.84968   0.00000  Uiso   1.00
O990   O     0.54157   0.84425   0.64606   0.00000  Uiso   1.00
O991   O     0.50785   0.82546   0.84968   0.00000  Uiso   1.00
O992   O     0.51264   0.74686   0.78213   0.00000  Uiso   1.00
O993   O     0.47965   0.92751   0.77013   0.00000  Uiso   1.00
O994   O     0.40745   0.79958   0.73413   0.00000  Uiso   1.00
O995   O     0.60026   0.85939   0.71360   0.00000  Uiso   1.00
O996   O     0.40405   0.85544   0.78213   0.00000  Uiso   1.00
O997   O     0.58824   0.81892   0.77013   0.00000  Uiso   1.00
O998   O     0.47093   0.73610   0.73413   0.00000  Uiso   1.00
O999   O     0.53678   0.92286   0.71360   0.00000  Uiso   1.00
Zn1000 Zn    0.52672   0.80661   0.78734   0.00000  Uiso   1.00
Zn1001 Zn    0.46713   0.79124   0.71875   0.00000  Uiso   1.00
Zn1002 Zn    0.54389   0.86442   0.70657   0.00000  Uiso   1.00
Zn1003 Zn    0.46226   0.87106   0.78733   0.00000  Uiso   1.00
C1004  C     0.71938   0.82618   0.75999   0.00000  Uiso   1.00
C1005  C     0.84783   0.83326   0.55662   0.00000  Uiso   1.00
C1006  C     0.86352   0.76445   0.56371   0.00000  Uiso   1.00
C1007  C     0.94739   0.84044   0.74006   0.00000  Uiso   1.00
C1008  C     0.81083   0.86138   0.91928   0.00000  Uiso   1.00
C1009  C     0.99322   0.84318   0.73615   0.00000  Uiso   1.00
C1010  C     0.67413   0.82350   0.76373   0.00000  Uiso   1.00
C1011  C     0.84709   0.98911   0.73662   0.00000  Uiso   1.00
C1012  C     0.81842   0.67834   0.76367   0.00000  Uiso   1.00
C1013  C     0.82276   0.72248   0.76013   0.00000  Uiso   1.00
C1014  C     0.84322   0.94453   0.74020   0.00000  Uiso   1.00
C1015  C     0.80752   0.91584   0.97975   0.00000  Uiso   1.00
C1016  C     0.85169   0.81456   0.62943   0.00000  Uiso   1.00
C1017  C     0.81497   0.85097   0.87097   0.00000  Uiso   1.00
C1018  C     0.85794   0.75062   0.52109   0.00000  Uiso   1.00
C1019  C     0.85770   0.80507   0.58155   0.00000  Uiso   1.00
C1020  C     0.80356   0.90205   0.93688   0.00000  Uiso   1.00
C1021  C     0.86457   0.70577   0.50415   0.00000  Uiso   1.00
C1022  C     0.90611   0.70358   0.96778   0.00000  Uiso   1.00
C1023  C     0.81993   0.88982   0.50534   0.00000  Uiso   1.00
C1024  C     0.82675   0.84812   0.98925   0.00000  Uiso   1.00
C1025  C     0.81960   0.83336   0.94657   0.00000  Uiso   1.00
C1026  C     0.84012   0.82054   0.51415   0.00000  Uiso   1.00
C1027  C     0.84465   0.77833   0.99660   0.00000  Uiso   1.00
C1028  C     0.83375   0.76420   0.95616   0.00000  Uiso   1.00
C1029  C     0.82069   0.79085   0.93226   0.00000  Uiso   1.00
H1030  H     0.87091   0.74300   0.58409   0.00000  Uiso   1.00
H1031  H     0.81052   0.77717   0.90269   0.00000  Uiso   1.00
H1032  H     0.68216   0.86129   0.71070   0.00000  Uiso   1.00
H1033  H     0.90996   0.67042   0.95622   0.00000  Uiso   1.00
H1034  H     0.90587   0.72023   0.93866   0.00000  Uiso   1.00
H1035  H     0.93398   0.71775   0.98129   0.00000  Uiso   1.00
H1036  H     0.86653   0.68776   0.53171   0.00000  Uiso   1.00
H1037  H     0.83672   0.68953   0.99191   0.00000  Uiso   1.00
H1038  H     0.98590   0.80525   0.78944   0.00000  Uiso   1.00
H1039  H     0.87355   0.67037   0.71178   0.00000  Uiso   1.00
H1040  H     0.79154   0.99786   0.78857   0.00000  Uiso   1.00
H1041  H     0.83443   0.73215   0.94251   0.00000  Uiso   1.00
H1042  H     0.84351   0.86395   0.57283   0.00000  Uiso   1.00
H1043  H     0.79649   0.92389   0.91677   0.00000  Uiso   1.00
H1044  H     0.82349   0.90347   0.53763   0.00000  Uiso   1.00
H1045  H     0.80226   0.94748   0.99278   0.00000  Uiso   1.00
O1046  O     0.83333   0.83333   0.75000   0.00000  Uiso   1.00
O1047  O     0.82118   0.79304   0.65458   0.00000  Uiso   1.00
O1048  O     0.79607   0.87058   0.84968   0.00000  Uiso   1.00
O1049  O     0.87491   0.84425   0.64606   0.00000  Uiso   1.00
O1050  O     0.84118   0.82546   0.84968   0.00000  Uiso   1.00
O1051  O     0.84597   0.74686   0.78213   0.00000  Uiso   1.00
O1052  O     0.81298   0.92751   0.77013   0.00000  Uiso   1.00
O1053  O     0.74078   0.79958   0.73413   0.00000  Uiso   1.00
O1054  O     0.93360   0.85939   0.71360   0.00000  Uiso   1.00
O1055  O     0.73738   0.85544   0.78213   0.00000  Uiso   1.00
O1056  O     0.92158   0.81892   0.77013   0.00000  Uiso   1.00
O1057  O     0.80426   0.73610   0.73413   0.00000  Uiso   1.00
O1058  O     0.87012   0.92286   0.71360   0.00000  Uiso   1.00
Zn1059 Zn    0.86005   0.80661   0.78734   0.00000  Uiso   1.00
Zn1060 Zn    0.80046   0.79124   0.71875   0.00000  Uiso   1.00
Zn1061 Zn    0.87723   0.86442   0.70657   0.00000  Uiso   1.00
Zn1062 Zn    0.79560   0.87106   0.78733   0.00000  Uiso   1.00
loop_
_geom_bond_atom_site_label_1
_geom_bond_atom_site_label_2
_geom_bond_distance
_geom_bond_site_symmetry_2
_ccdc_geom_bond_type
C1     O50     1.268   .     A
C1     O52     1.268   .     A
C1     C7      1.436   .     S
C2     C16     1.387   .     A
C2     C23     1.409   .     A
C2     H39     1.076   .     S
C3     H27     1.085   .     S
C3     C15     1.396   .     A
C3     C16     1.392   .     A
C4     O53     1.281   .     A
C4     O51     1.283   .     A
C4     C6      1.454   .     S
C5     C14     1.475   .     S
C5     C17     1.401   .     A
C5     C22     1.418   .     A
C6     C66     1.334   .     S
C6     H88     1.088   .     S
C7     C124    1.334   1_455 S
C7     H153    1.086   1_455 S
C8     C11     1.451   .     S
C8     C186    1.331   .     S
C8     H213    1.088   .     S
C9     C10     1.435   .     S
C9     C362    1.331   1_545 S
C9     H391    1.086   1_545 S
C10    O48     1.274   .     A
C10    O54     1.274   .     A
C11    O49     1.275   .     A
C11    O55     1.274   .     A
C12    C17     1.387   .     A
C12    H42     1.082   .     S
C12    C551    1.391   .     S
C13    O46     1.279   .     A
C13    C16     1.452   .     S
C13    O44     1.268   .     A
C14    O47     1.283   .     A
C14    O45     1.283   .     A
C15    C18     1.519   .     S
C15    C555    1.422   1_554 S
C17    H40     1.083   .     S
C18    H33     1.112   .     S
C18    C550    1.527   1_554 S
C18    H565    1.109   1_554 S
C19    H31     1.109   .     S
C19    H32     1.111   .     S
C19    H30     1.111   .     S
C19    C549    1.527   .     S
C20    H41     1.076   .     S
C20    C543    1.391   1_554 S
C20    C552    1.419   1_554 S
C21    C22     1.421   .     A
C21    C551    1.419   .     S
C21    C554    1.429   .     S
C22    C26     1.405   .     A
C23    C552    1.429   1_554 S
C23    C555    1.431   1_554 S
C24    C25     1.400   .     A
C24    C554    1.431   .     S
C24    C546    1.422   .     S
C25    H38     1.080   .     S
C25    C26     1.380   .     A
C26    H28     1.081   .     S
H29    C124    1.088   1_455 S
H34    C549    1.109   .     S
H35    C66     1.086   .     S
H36    C362    1.088   1_545 S
H37    C186    1.086   .     S
O43    Zn59    1.935   .     S
O43    Zn57    1.935   .     S
O43    Zn56    1.959   .     S
O43    Zn58    1.943   .     S
O44    Zn57    1.938   .     S
O45    Zn59    1.943   .     S
O46    Zn58    1.934   .     S
O47    Zn56    1.931   .     S
O48    Zn56    1.926   .     S
O49    Zn59    1.933   .     S
O50    Zn57    1.929   .     S
O51    Zn58    1.934   .     S
O52    Zn59    1.928   .     S
O53    Zn56    1.926   .     S
O54    Zn57    1.938   .     S
O55    Zn58    1.929   .     S
C60    O109    1.268   .     A
C60    O111    1.268   .     A
C60    C66     1.436   .     S
C61    C75     1.387   .     A
C61    C82     1.409   .     A
C61    H98     1.076   .     S
C62    H86     1.085   .     S
C62    C74     1.396   .     A
C62    C75     1.392   .     A
C63    O112    1.281   .     A
C63    O110    1.283   .     A
C63    C65     1.454   .     S
C64    C73     1.475   .     S
C64    C76     1.401   .     A
C64    C81     1.418   .     A
C65    C125    1.334   .     S
C65    H147    1.088   .     S
C67    C70     1.451   .     S
C67    C245    1.331   .     S
C67    H272    1.088   .     S
C68    C69     1.435   .     S
C68    C421    1.331   1_545 S
C68    H450    1.086   1_545 S
C69    O107    1.274   .     A
C69    O113    1.274   .     A
C70    O108    1.275   .     A
C70    O114    1.274   .     A
C71    C76     1.387   .     A
C71    H101    1.082   .     S
C71    C610    1.391   .     S
C72    O105    1.279   .     A
C72    C75     1.452   .     S
C72    O103    1.268   .     A
C73    O106    1.283   .     A
C73    O104    1.283   .     A
C74    C77     1.519   .     S
C74    C614    1.422   1_554 S
C76    H99     1.083   .     S
C77    H92     1.112   .     S
C77    C609    1.527   1_554 S
C77    H624    1.109   1_554 S
C78    H90     1.109   .     S
C78    H91     1.111   .     S
C78    H89     1.111   .     S
C78    C608    1.527   .     S
C79    H100    1.076   .     S
C79    C602    1.391   1_554 S
C79    C611    1.419   1_554 S
C80    C81     1.421   .     A
C80    C610    1.419   .     S
C80    C613    1.429   .     S
C81    C85     1.405   .     A
C82    C611    1.429   1_554 S
C82    C614    1.431   1_554 S
C83    C84     1.400   .     A
C83    C613    1.431   .     S
C83    C605    1.422   .     S
C84    H97     1.080   .     S
C84    C85     1.380   .     A
C85    H87     1.081   .     S
H93    C608    1.109   .     S
H94    C125    1.086   .     S
H95    C421    1.088   1_545 S
H96    C245    1.086   .     S
O102   Zn118   1.935   .     S
O102   Zn116   1.935   .     S
O102   Zn115   1.959   .     S
O102   Zn117   1.943   .     S
O103   Zn116   1.938   .     S
O104   Zn118   1.943   .     S
O105   Zn117   1.934   .     S
O106   Zn115   1.931   .     S
O107   Zn115   1.926   .     S
O108   Zn118   1.933   .     S
O109   Zn116   1.929   .     S
O110   Zn117   1.934   .     S
O111   Zn118   1.928   .     S
O112   Zn115   1.926   .     S
O113   Zn116   1.938   .     S
O114   Zn117   1.929   .     S
C119   O168    1.268   .     A
C119   O170    1.268   .     A
C119   C125    1.436   .     S
C120   C134    1.387   .     A
C120   C141    1.409   .     A
C120   H157    1.076   .     S
C121   H145    1.085   .     S
C121   C133    1.396   .     A
C121   C134    1.392   .     A
C122   O171    1.281   .     A
C122   O169    1.283   .     A
C122   C124    1.454   .     S
C123   C132    1.475   .     S
C123   C135    1.401   .     A
C123   C140    1.418   .     A
C124   C7      1.334   1_655 S
C124   H29     1.088   1_655 S
C126   C129    1.451   .     S
C126   C304    1.331   .     S
C126   H331    1.088   .     S
C127   C128    1.435   .     S
C127   C480    1.331   1_545 S
C127   H509    1.086   1_545 S
C128   O166    1.274   .     A
C128   O172    1.274   .     A
C129   O167    1.275   .     A
C129   O173    1.274   .     A
C130   C135    1.387   .     A
C130   H160    1.082   .     S
C130   C669    1.391   .     S
C131   O164    1.279   .     A
C131   C134    1.452   .     S
C131   O162    1.268   .     A
C132   O165    1.283   .     A
C132   O163    1.283   .     A
C133   C136    1.519   .     S
C133   C673    1.422   1_554 S
C135   H158    1.083   .     S
C136   H151    1.112   .     S
C136   C668    1.527   1_554 S
C136   H683    1.109   1_554 S
C137   H149    1.109   .     S
C137   H150    1.111   .     S
C137   H148    1.111   .     S
C137   C667    1.527   .     S
C138   H159    1.076   .     S
C138   C661    1.391   1_554 S
C138   C670    1.419   1_554 S
C139   C140    1.421   .     A
C139   C669    1.419   .     S
C139   C672    1.429   .     S
C140   C144    1.405   .     A
C141   C670    1.429   1_554 S
C141   C673    1.431   1_554 S
C142   C143    1.400   .     A
C142   C672    1.431   .     S
C142   C664    1.422   .     S
C143   H156    1.080   .     S
C143   C144    1.380   .     A
C144   H146    1.081   .     S
H152   C667    1.109   .     S
H153   C7      1.086   1_655 S
H154   C480    1.088   1_545 S
H155   C304    1.086   .     S
O161   Zn177   1.935   .     S
O161   Zn175   1.935   .     S
O161   Zn174   1.959   .     S
O161   Zn176   1.943   .     S
O162   Zn175   1.938   .     S
O163   Zn177   1.943   .     S
O164   Zn176   1.934   .     S
O165   Zn174   1.931   .     S
O166   Zn174   1.926   .     S
O167   Zn177   1.933   .     S
O168   Zn175   1.929   .     S
O169   Zn176   1.934   .     S
O170   Zn177   1.928   .     S
O171   Zn174   1.926   .     S
O172   Zn175   1.938   .     S
O173   Zn176   1.929   .     S
C178   O227    1.268   .     A
C178   O229    1.268   .     A
C178   C184    1.436   .     S
C179   C193    1.387   .     A
C179   C200    1.409   .     A
C179   H216    1.076   .     S
C180   H204    1.085   .     S
C180   C192    1.396   .     A
C180   C193    1.392   .     A
C181   O230    1.281   .     A
C181   O228    1.283   .     A
C181   C183    1.454   .     S
C182   C191    1.475   .     S
C182   C194    1.401   .     A
C182   C199    1.418   .     A
C183   C243    1.334   .     S
C183   H265    1.088   .     S
C184   C301    1.334   1_455 S
C184   H330    1.086   1_455 S
C185   C188    1.451   .     S
C185   C363    1.331   .     S
C185   H390    1.088   .     S
C186   C187    1.435   .     S
C187   O225    1.274   .     A
C187   O231    1.274   .     A
C188   O226    1.275   .     A
C188   O232    1.274   .     A
C189   C194    1.387   .     A
C189   H219    1.082   .     S
C189   C728    1.391   .     S
C190   O223    1.279   .     A
C190   C193    1.452   .     S
C190   O221    1.268   .     A
C191   O224    1.283   .     A
C191   O222    1.283   .     A
C192   C195    1.519   .     S
C192   C732    1.422   1_554 S
C194   H217    1.083   .     S
C195   H210    1.112   .     S
C195   C727    1.527   1_554 S
C195   H742    1.109   1_554 S
C196   H208    1.109   .     S
C196   H209    1.111   .     S
C196   H207    1.111   .     S
C196   C726    1.527   .     S
C197   H218    1.076   .     S
C197   C720    1.391   1_554 S
C197   C729    1.419   1_554 S
C198   C199    1.421   .     A
C198   C728    1.419   .     S
C198   C731    1.429   .     S
C199   C203    1.405   .     A
C200   C729    1.429   1_554 S
C200   C732    1.431   1_554 S
C201   C202    1.400   .     A
C201   C731    1.431   .     S
C201   C723    1.422   .     S
C202   H215    1.080   .     S
C202   C203    1.380   .     A
C203   H205    1.081   .     S
H206   C301    1.088   1_455 S
H211   C726    1.109   .     S
H212   C243    1.086   .     S
H214   C363    1.086   .     S
O220   Zn236   1.935   .     S
O220   Zn234   1.935   .     S
O220   Zn233   1.959   .     S
O220   Zn235   1.943   .     S
O221   Zn234   1.938   .     S
O222   Zn236   1.943   .     S
O223   Zn235   1.934   .     S
O224   Zn233   1.931   .     S
O225   Zn233   1.926   .     S
O226   Zn236   1.933   .     S
O227   Zn234   1.929   .     S
O228   Zn235   1.934   .     S
O229   Zn236   1.928   .     S
O230   Zn233   1.926   .     S
O231   Zn234   1.938   .     S
O232   Zn235   1.929   .     S
C237   O286    1.268   .     A
C237   O288    1.268   .     A
C237   C243    1.436   .     S
C238   C252    1.387   .     A
C238   C259    1.409   .     A
C238   H275    1.076   .     S
C239   H263    1.085   .     S
C239   C251    1.396   .     A
C239   C252    1.392   .     A
C240   O289    1.281   .     A
C240   O287    1.283   .     A
C240   C242    1.454   .     S
C241   C250    1.475   .     S
C241   C253    1.401   .     A
C241   C258    1.418   .     A
C242   C302    1.334   .     S
C242   H324    1.088   .     S
C244   C247    1.451   .     S
C244   C422    1.331   .     S
C244   H449    1.088   .     S
C245   C246    1.435   .     S
C246   O284    1.274   .     A
C246   O290    1.274   .     A
C247   O285    1.275   .     A
C247   O291    1.274   .     A
C248   C253    1.387   .     A
C248   H278    1.082   .     S
C248   C787    1.391   .     S
C249   O282    1.279   .     A
C249   C252    1.452   .     S
C249   O280    1.268   .     A
C250   O283    1.283   .     A
C250   O281    1.283   .     A
C251   C254    1.519   .     S
C251   C791    1.422   1_554 S
C253   H276    1.083   .     S
C254   H269    1.112   .     S
C254   C786    1.527   1_554 S
C254   H801    1.109   1_554 S
C255   H267    1.109   .     S
C255   H268    1.111   .     S
C255   H266    1.111   .     S
C255   C785    1.527   .     S
C256   H277    1.076   .     S
C256   C779    1.391   1_554 S
C256   C788    1.419   1_554 S
C257   C258    1.421   .     A
C257   C787    1.419   .     S
C257   C790    1.429   .     S
C258   C262    1.405   .     A
C259   C788    1.429   1_554 S
C259   C791    1.431   1_554 S
C260   C261    1.400   .     A
C260   C790    1.431   .     S
C260   C782    1.422   .     S
C261   H274    1.080   .     S
C261   C262    1.380   .     A
C262   H264    1.081   .     S
H270   C785    1.109   .     S
H271   C302    1.086   .     S
H273   C422    1.086   .     S
O279   Zn295   1.935   .     S
O279   Zn293   1.935   .     S
O279   Zn292   1.959   .     S
O279   Zn294   1.943   .     S
O280   Zn293   1.938   .     S
O281   Zn295   1.943   .     S
O282   Zn294   1.934   .     S
O283   Zn292   1.931   .     S
O284   Zn292   1.926   .     S
O285   Zn295   1.933   .     S
O286   Zn293   1.929   .     S
O287   Zn294   1.934   .     S
O288   Zn295   1.928   .     S
O289   Zn292   1.926   .     S
O290   Zn293   1.938   .     S
O291   Zn294   1.929   .     S
C296   O345    1.268   .     A
C296   O347    1.268   .     A
C296   C302    1.436   .     S
C297   C311    1.387   .     A
C297   C318    1.409   .     A
C297   H334    1.076   .     S
C298   H322    1.085   .     S
C298   C310    1.396   .     A
C298   C311    1.392   .     A
C299   O348    1.281   .     A
C299   O346    1.283   .     A
C299   C301    1.454   .     S
C300   C309    1.475   .     S
C300   C312    1.401   .     A
C300   C317    1.418   .     A
C301   C184    1.334   1_655 S
C301   H206    1.088   1_655 S
C303   C306    1.451   .     S
C303   C481    1.331   .     S
C303   H508    1.088   .     S
C304   C305    1.435   .     S
C305   O343    1.274   .     A
C305   O349    1.274   .     A
C306   O344    1.275   .     A
C306   O350    1.274   .     A
C307   C312    1.387   .     A
C307   H337    1.082   .     S
C307   C846    1.391   .     S
C308   O341    1.279   .     A
C308   C311    1.452   .     S
C308   O339    1.268   .     A
C309   O342    1.283   .     A
C309   O340    1.283   .     A
C310   C313    1.519   .     S
C310   C850    1.422   1_554 S
C312   H335    1.083   .     S
C313   H328    1.112   .     S
C313   C845    1.527   1_554 S
C313   H860    1.109   1_554 S
C314   H326    1.109   .     S
C314   H327    1.111   .     S
C314   H325    1.111   .     S
C314   C844    1.527   .     S
C315   H336    1.076   .     S
C315   C838    1.391   1_554 S
C315   C847    1.419   1_554 S
C316   C317    1.421   .     A
C316   C846    1.419   .     S
C316   C849    1.429   .     S
C317   C321    1.405   .     A
C318   C847    1.429   1_554 S
C318   C850    1.431   1_554 S
C319   C320    1.400   .     A
C319   C849    1.431   .     S
C319   C841    1.422   .     S
C320   H333    1.080   .     S
C320   C321    1.380   .     A
C321   H323    1.081   .     S
H329   C844    1.109   .     S
H330   C184    1.086   1_655 S
H332   C481    1.086   .     S
O338   Zn354   1.935   .     S
O338   Zn352   1.935   .     S
O338   Zn351   1.959   .     S
O338   Zn353   1.943   .     S
O339   Zn352   1.938   .     S
O340   Zn354   1.943   .     S
O341   Zn353   1.934   .     S
O342   Zn351   1.931   .     S
O343   Zn351   1.926   .     S
O344   Zn354   1.933   .     S
O345   Zn352   1.929   .     S
O346   Zn353   1.934   .     S
O347   Zn354   1.928   .     S
O348   Zn351   1.926   .     S
O349   Zn352   1.938   .     S
O350   Zn353   1.929   .     S
C355   O404    1.268   .     A
C355   O406    1.268   .     A
C355   C361    1.436   .     S
C356   C370    1.387   .     A
C356   C377    1.409   .     A
C356   H393    1.076   .     S
C357   H381    1.085   .     S
C357   C369    1.396   .     A
C357   C370    1.392   .     A
C358   O407    1.281   .     A
C358   O405    1.283   .     A
C358   C360    1.454   .     S
C359   C368    1.475   .     S
C359   C371    1.401   .     A
C359   C376    1.418   .     A
C360   C420    1.334   .     S
C360   H442    1.088   .     S
C361   C478    1.334   1_455 S
C361   H507    1.086   1_455 S
C362   C365    1.451   .     S
C362   C9      1.331   1_565 S
C362   H36     1.088   1_565 S
C363   C364    1.435   .     S
C364   O402    1.274   .     A
C364   O408    1.274   .     A
C365   O403    1.275   .     A
C365   O409    1.274   .     A
C366   C371    1.387   .     A
C366   H396    1.082   .     S
C366   C905    1.391   .     S
C367   O400    1.279   .     A
C367   C370    1.452   .     S
C367   O398    1.268   .     A
C368   O401    1.283   .     A
C368   O399    1.283   .     A
C369   C372    1.519   .     S
C369   C909    1.422   1_554 S
C371   H394    1.083   .     S
C372   H387    1.112   .     S
C372   C904    1.527   1_554 S
C372   H919    1.109   1_554 S
C373   H385    1.109   .     S
C373   H386    1.111   .     S
C373   H384    1.111   .     S
C373   C903    1.527   .     S
C374   H395    1.076   .     S
C374   C897    1.391   1_554 S
C374   C906    1.419   1_554 S
C375   C376    1.421   .     A
C375   C905    1.419   .     S
C375   C908    1.429   .     S
C376   C380    1.405   .     A
C377   C906    1.429   1_554 S
C377   C909    1.431   1_554 S
C378   C379    1.400   .     A
C378   C908    1.431   .     S
C378   C900    1.422   .     S
C379   H392    1.080   .     S
C379   C380    1.380   .     A
C380   H382    1.081   .     S
H383   C478    1.088   1_455 S
H388   C903    1.109   .     S
H389   C420    1.086   .     S
H391   C9      1.086   1_565 S
O397   Zn413   1.935   .     S
O397   Zn411   1.935   .     S
O397   Zn410   1.959   .     S
O397   Zn412   1.943   .     S
O398   Zn411   1.938   .     S
O399   Zn413   1.943   .     S
O400   Zn412   1.934   .     S
O401   Zn410   1.931   .     S
O402   Zn410   1.926   .     S
O403   Zn413   1.933   .     S
O404   Zn411   1.929   .     S
O405   Zn412   1.934   .     S
O406   Zn413   1.928   .     S
O407   Zn410   1.926   .     S
O408   Zn411   1.938   .     S
O409   Zn412   1.929   .     S
C414   O463    1.268   .     A
C414   O465    1.268   .     A
C414   C420    1.436   .     S
C415   C429    1.387   .     A
C415   C436    1.409   .     A
C415   H452    1.076   .     S
C416   H440    1.085   .     S
C416   C428    1.396   .     A
C416   C429    1.392   .     A
C417   O466    1.281   .     A
C417   O464    1.283   .     A
C417   C419    1.454   .     S
C418   C427    1.475   .     S
C418   C430    1.401   .     A
C418   C435    1.418   .     A
C419   C479    1.334   .     S
C419   H501    1.088   .     S
C421   C424    1.451   .     S
C421   C68     1.331   1_565 S
C421   H95     1.088   1_565 S
C422   C423    1.435   .     S
C423   O461    1.274   .     A
C423   O467    1.274   .     A
C424   O462    1.275   .     A
C424   O468    1.274   .     A
C425   C430    1.387   .     A
C425   H455    1.082   .     S
C425   C964    1.391   .     S
C426   O459    1.279   .     A
C426   C429    1.452   .     S
C426   O457    1.268   .     A
C427   O460    1.283   .     A
C427   O458    1.283   .     A
C428   C431    1.519   .     S
C428   C968    1.422   1_554 S
C430   H453    1.083   .     S
C431   H446    1.112   .     S
C431   C963    1.527   1_554 S
C431   H978    1.109   1_554 S
C432   H444    1.109   .     S
C432   H445    1.111   .     S
C432   H443    1.111   .     S
C432   C962    1.527   .     S
C433   H454    1.076   .     S
C433   C956    1.391   1_554 S
C433   C965    1.419   1_554 S
C434   C435    1.421   .     A
C434   C964    1.419   .     S
C434   C967    1.429   .     S
C435   C439    1.405   .     A
C436   C965    1.429   1_554 S
C436   C968    1.431   1_554 S
C437   C438    1.400   .     A
C437   C967    1.431   .     S
C437   C959    1.422   .     S
C438   H451    1.080   .     S
C438   C439    1.380   .     A
C439   H441    1.081   .     S
H447   C962    1.109   .     S
H448   C479    1.086   .     S
H450   C68     1.086   1_565 S
O456   Zn472   1.935   .     S
O456   Zn470   1.935   .     S
O456   Zn469   1.959   .     S
O456   Zn471   1.943   .     S
O457   Zn470   1.938   .     S
O458   Zn472   1.943   .     S
O459   Zn471   1.934   .     S
O460   Zn469   1.931   .     S
O461   Zn469   1.926   .     S
O462   Zn472   1.933   .     S
O463   Zn470   1.929   .     S
O464   Zn471   1.934   .     S
O465   Zn472   1.928   .     S
O466   Zn469   1.926   .     S
O467   Zn470   1.938   .     S
O468   Zn471   1.929   .     S
C473   O522    1.268   .     A
C473   O524    1.268   .     A
C473   C479    1.436   .     S
C474   C488    1.387   .     A
C474   C495    1.409   .     A
C474   H511    1.076   .     S
C475   H499    1.085   .     S
C475   C487    1.396   .     A
C475   C488    1.392   .     A
C476   O525    1.281   .     A
C476   O523    1.283   .     A
C476   C478    1.454   .     S
C477   C486    1.475   .     S
C477   C489    1.401   .     A
C477   C494    1.418   .     A
C478   C361    1.334   1_655 S
C478   H383    1.088   1_655 S
C480   C483    1.451   .     S
C480   C127    1.331   1_565 S
C480   H154    1.088   1_565 S
C481   C482    1.435   .     S
C482   O520    1.274   .     A
C482   O526    1.274   .     A
C483   O521    1.275   .     A
C483   O527    1.274   .     A
C484   C489    1.387   .     A
C484   H514    1.082   .     S
C484   C1023   1.391   .     S
C485   O518    1.279   .     A
C485   C488    1.452   .     S
C485   O516    1.268   .     A
C486   O519    1.283   .     A
C486   O517    1.283   .     A
C487   C490    1.519   .     S
C487   C1027   1.422   1_554 S
C489   H512    1.083   .     S
C490   H505    1.112   .     S
C490   C1022   1.527   1_554 S
C490   H1037   1.109   1_554 S
C491   H503    1.109   .     S
C491   H504    1.111   .     S
C491   H502    1.111   .     S
C491   C1021   1.527   .     S
C492   H513    1.076   .     S
C492   C1015   1.391   1_554 S
C492   C1024   1.419   1_554 S
C493   C494    1.421   .     A
C493   C1023   1.419   .     S
C493   C1026   1.429   .     S
C494   C498    1.405   .     A
C495   C1024   1.429   1_554 S
C495   C1027   1.431   1_554 S
C496   C497    1.400   .     A
C496   C1026   1.431   .     S
C496   C1018   1.422   .     S
C497   H510    1.080   .     S
C497   C498    1.380   .     A
C498   H500    1.081   .     S
H506   C1021   1.109   .     S
H507   C361    1.086   1_655 S
H509   C127    1.086   1_565 S
O515   Zn531   1.935   .     S
O515   Zn529   1.935   .     S
O515   Zn528   1.959   .     S
O515   Zn530   1.943   .     S
O516   Zn529   1.938   .     S
O517   Zn531   1.943   .     S
O518   Zn530   1.934   .     S
O519   Zn528   1.931   .     S
O520   Zn528   1.926   .     S
O521   Zn531   1.933   .     S
O522   Zn529   1.929   .     S
O523   Zn530   1.934   .     S
O524   Zn531   1.928   .     S
O525   Zn528   1.926   .     S
O526   Zn529   1.938   .     S
O527   Zn530   1.929   .     S
C532   O581    1.268   .     A
C532   O583    1.268   .     A
C532   C538    1.436   .     S
C533   C547    1.387   .     A
C533   C554    1.409   .     A
C533   H570    1.076   .     S
C534   H558    1.085   .     S
C534   C546    1.396   .     A
C534   C547    1.392   .     A
C535   O584    1.281   .     A
C535   O582    1.283   .     A
C535   C537    1.454   .     S
C536   C545    1.475   .     S
C536   C548    1.401   .     A
C536   C553    1.418   .     A
C537   C597    1.334   .     S
C537   H619    1.088   .     S
C538   C655    1.334   1_455 S
C538   H684    1.086   1_455 S
C539   C542    1.451   .     S
C539   C717    1.331   .     S
C539   H744    1.088   .     S
C540   C541    1.435   .     S
C540   C893    1.331   1_545 S
C540   H922    1.086   1_545 S
C541   O579    1.274   .     A
C541   O585    1.274   .     A
C542   O580    1.275   .     A
C542   O586    1.274   .     A
C543   C548    1.387   .     A
C543   H573    1.082   .     S
C543   C20     1.391   1_556 S
C544   O577    1.279   .     A
C544   C547    1.452   .     S
C544   O575    1.268   .     A
C545   O578    1.283   .     A
C545   O576    1.283   .     A
C546   C549    1.519   .     S
C548   H571    1.083   .     S
C549   H564    1.112   .     S
C550   H562    1.109   .     S
C550   H563    1.111   .     S
C550   H561    1.111   .     S
C550   C18     1.527   1_556 S
C551   H572    1.076   .     S
C552   C553    1.421   .     A
C552   C20     1.419   1_556 S
C552   C23     1.429   1_556 S
C553   C557    1.405   .     A
C555   C556    1.400   .     A
C555   C23     1.431   1_556 S
C555   C15     1.422   1_556 S
C556   H569    1.080   .     S
C556   C557    1.380   .     A
C557   H559    1.081   .     S
H560   C655    1.088   1_455 S
H565   C18     1.109   1_556 S
H566   C597    1.086   .     S
H567   C893    1.088   1_545 S
H568   C717    1.086   .     S
O574   Zn590   1.935   .     S
O574   Zn588   1.935   .     S
O574   Zn587   1.959   .     S
O574   Zn589   1.943   .     S
O575   Zn588   1.938   .     S
O576   Zn590   1.943   .     S
O577   Zn589   1.934   .     S
O578   Zn587   1.931   .     S
O579   Zn587   1.926   .     S
O580   Zn590   1.933   .     S
O581   Zn588   1.929   .     S
O582   Zn589   1.934   .     S
O583   Zn590   1.928   .     S
O584   Zn587   1.926   .     S
O585   Zn588   1.938   .     S
O586   Zn589   1.929   .     S
C591   O640    1.268   .     A
C591   O642    1.268   .     A
C591   C597    1.436   .     S
C592   C606    1.387   .     A
C592   C613    1.409   .     A
C592   H629    1.076   .     S
C593   H617    1.085   .     S
C593   C605    1.396   .     A
C593   C606    1.392   .     A
C594   O643    1.281   .     A
C594   O641    1.283   .     A
C594   C596    1.454   .     S
C595   C604    1.475   .     S
C595   C607    1.401   .     A
C595   C612    1.418   .     A
C596   C656    1.334   .     S
C596   H678    1.088   .     S
C598   C601    1.451   .     S
C598   C776    1.331   .     S
C598   H803    1.088   .     S
C599   C600    1.435   .     S
C599   C952    1.331   1_545 S
C599   H981    1.086   1_545 S
C600   O638    1.274   .     A
C600   O644    1.274   .     A
C601   O639    1.275   .     A
C601   O645    1.274   .     A
C602   C607    1.387   .     A
C602   H632    1.082   .     S
C602   C79     1.391   1_556 S
C603   O636    1.279   .     A
C603   C606    1.452   .     S
C603   O634    1.268   .     A
C604   O637    1.283   .     A
C604   O635    1.283   .     A
C605   C608    1.519   .     S
C607   H630    1.083   .     S
C608   H623    1.112   .     S
C609   H621    1.109   .     S
C609   H622    1.111   .     S
C609   H620    1.111   .     S
C609   C77     1.527   1_556 S
C610   H631    1.076   .     S
C611   C612    1.421   .     A
C611   C79     1.419   1_556 S
C611   C82     1.429   1_556 S
C612   C616    1.405   .     A
C614   C615    1.400   .     A
C614   C82     1.431   1_556 S
C614   C74     1.422   1_556 S
C615   H628    1.080   .     S
C615   C616    1.380   .     A
C616   H618    1.081   .     S
H624   C77     1.109   1_556 S
H625   C656    1.086   .     S
H626   C952    1.088   1_545 S
H627   C776    1.086   .     S
O633   Zn649   1.935   .     S
O633   Zn647   1.935   .     S
O633   Zn646   1.959   .     S
O633   Zn648   1.943   .     S
O634   Zn647   1.938   .     S
O635   Zn649   1.943   .     S
O636   Zn648   1.934   .     S
O637   Zn646   1.931   .     S
O638   Zn646   1.926   .     S
O639   Zn649   1.933   .     S
O640   Zn647   1.929   .     S
O641   Zn648   1.934   .     S
O642   Zn649   1.928   .     S
O643   Zn646   1.926   .     S
O644   Zn647   1.938   .     S
O645   Zn648   1.929   .     S
C650   O699    1.268   .     A
C650   O701    1.268   .     A
C650   C656    1.436   .     S
C651   C665    1.387   .     A
C651   C672    1.409   .     A
C651   H688    1.076   .     S
C652   H676    1.085   .     S
C652   C664    1.396   .     A
C652   C665    1.392   .     A
C653   O702    1.281   .     A
C653   O700    1.283   .     A
C653   C655    1.454   .     S
C654   C663    1.475   .     S
C654   C666    1.401   .     A
C654   C671    1.418   .     A
C655   C538    1.334   1_655 S
C655   H560    1.088   1_655 S
C657   C660    1.451   .     S
C657   C835    1.331   .     S
C657   H862    1.088   .     S
C658   C659    1.435   .     S
C658   C1011   1.331   1_545 S
C658   H1040   1.086   1_545 S
C659   O697    1.274   .     A
C659   O703    1.274   .     A
C660   O698    1.275   .     A
C660   O704    1.274   .     A
C661   C666    1.387   .     A
C661   H691    1.082   .     S
C661   C138    1.391   1_556 S
C662   O695    1.279   .     A
C662   C665    1.452   .     S
C662   O693    1.268   .     A
C663   O696    1.283   .     A
C663   O694    1.283   .     A
C664   C667    1.519   .     S
C666   H689    1.083   .     S
C667   H682    1.112   .     S
C668   H680    1.109   .     S
C668   H681    1.111   .     S
C668   H679    1.111   .     S
C668   C136    1.527   1_556 S
C669   H690    1.076   .     S
C670   C671    1.421   .     A
C670   C138    1.419   1_556 S
C670   C141    1.429   1_556 S
C671   C675    1.405   .     A
C673   C674    1.400   .     A
C673   C141    1.431   1_556 S
C673   C133    1.422   1_556 S
C674   H687    1.080   .     S
C674   C675    1.380   .     A
C675   H677    1.081   .     S
H683   C136    1.109   1_556 S
H684   C538    1.086   1_655 S
H685   C1011   1.088   1_545 S
H686   C835    1.086   .     S
O692   Zn708   1.935   .     S
O692   Zn706   1.935   .     S
O692   Zn705   1.959   .     S
O692   Zn707   1.943   .     S
O693   Zn706   1.938   .     S
O694   Zn708   1.943   .     S
O695   Zn707   1.934   .     S
O696   Zn705   1.931   .     S
O697   Zn705   1.926   .     S
O698   Zn708   1.933   .     S
O699   Zn706   1.929   .     S
O700   Zn707   1.934   .     S
O701   Zn708   1.928   .     S
O702   Zn705   1.926   .     S
O703   Zn706   1.938   .     S
O704   Zn707   1.929   .     S
C709   O758    1.268   .     A
C709   O760    1.268   .     A
C709   C715    1.436   .     S
C710   C724    1.387   .     A
C710   C731    1.409   .     A
C710   H747    1.076   .     S
C711   H735    1.085   .     S
C711   C723    1.396   .     A
C711   C724    1.392   .     A
C712   O761    1.281   .     A
C712   O759    1.283   .     A
C712   C714    1.454   .     S
C713   C722    1.475   .     S
C713   C725    1.401   .     A
C713   C730    1.418   .     A
C714   C774    1.334   .     S
C714   H796    1.088   .     S
C715   C832    1.334   1_455 S
C715   H861    1.086   1_455 S
C716   C719    1.451   .     S
C716   C894    1.331   .     S
C716   H921    1.088   .     S
C717   C718    1.435   .     S
C718   O756    1.274   .     A
C718   O762    1.274   .     A
C719   O757    1.275   .     A
C719   O763    1.274   .     A
C720   C725    1.387   .     A
C720   H750    1.082   .     S
C720   C197    1.391   1_556 S
C721   O754    1.279   .     A
C721   C724    1.452   .     S
C721   O752    1.268   .     A
C722   O755    1.283   .     A
C722   O753    1.283   .     A
C723   C726    1.519   .     S
C725   H748    1.083   .     S
C726   H741    1.112   .     S
C727   H739    1.109   .     S
C727   H740    1.111   .     S
C727   H738    1.111   .     S
C727   C195    1.527   1_556 S
C728   H749    1.076   .     S
C729   C730    1.421   .     A
C729   C197    1.419   1_556 S
C729   C200    1.429   1_556 S
C730   C734    1.405   .     A
C732   C733    1.400   .     A
C732   C200    1.431   1_556 S
C732   C192    1.422   1_556 S
C733   H746    1.080   .     S
C733   C734    1.380   .     A
C734   H736    1.081   .     S
H737   C832    1.088   1_455 S
H742   C195    1.109   1_556 S
H743   C774    1.086   .     S
H745   C894    1.086   .     S
O751   Zn767   1.935   .     S
O751   Zn765   1.935   .     S
O751   Zn764   1.959   .     S
O751   Zn766   1.943   .     S
O752   Zn765   1.938   .     S
O753   Zn767   1.943   .     S
O754   Zn766   1.934   .     S
O755   Zn764   1.931   .     S
O756   Zn764   1.926   .     S
O757   Zn767   1.933   .     S
O758   Zn765   1.929   .     S
O759   Zn766   1.934   .     S
O760   Zn767   1.928   .     S
O761   Zn764   1.926   .     S
O762   Zn765   1.938   .     S
O763   Zn766   1.929   .     S
C768   O817    1.268   .     A
C768   O819    1.268   .     A
C768   C774    1.436   .     S
C769   C783    1.387   .     A
C769   C790    1.409   .     A
C769   H806    1.076   .     S
C770   H794    1.085   .     S
C770   C782    1.396   .     A
C770   C783    1.392   .     A
C771   O820    1.281   .     A
C771   O818    1.283   .     A
C771   C773    1.454   .     S
C772   C781    1.475   .     S
C772   C784    1.401   .     A
C772   C789    1.418   .     A
C773   C833    1.334   .     S
C773   H855    1.088   .     S
C775   C778    1.451   .     S
C775   C953    1.331   .     S
C775   H980    1.088   .     S
C776   C777    1.435   .     S
C777   O815    1.274   .     A
C777   O821    1.274   .     A
C778   O816    1.275   .     A
C778   O822    1.274   .     A
C779   C784    1.387   .     A
C779   H809    1.082   .     S
C779   C256    1.391   1_556 S
C780   O813    1.279   .     A
C780   C783    1.452   .     S
C780   O811    1.268   .     A
C781   O814    1.283   .     A
C781   O812    1.283   .     A
C782   C785    1.519   .     S
C784   H807    1.083   .     S
C785   H800    1.112   .     S
C786   H798    1.109   .     S
C786   H799    1.111   .     S
C786   H797    1.111   .     S
C786   C254    1.527   1_556 S
C787   H808    1.076   .     S
C788   C789    1.421   .     A
C788   C256    1.419   1_556 S
C788   C259    1.429   1_556 S
C789   C793    1.405   .     A
C791   C792    1.400   .     A
C791   C259    1.431   1_556 S
C791   C251    1.422   1_556 S
C792   H805    1.080   .     S
C792   C793    1.380   .     A
C793   H795    1.081   .     S
H801   C254    1.109   1_556 S
H802   C833    1.086   .     S
H804   C953    1.086   .     S
O810   Zn826   1.935   .     S
O810   Zn824   1.935   .     S
O810   Zn823   1.959   .     S
O810   Zn825   1.943   .     S
O811   Zn824   1.938   .     S
O812   Zn826   1.943   .     S
O813   Zn825   1.934   .     S
O814   Zn823   1.931   .     S
O815   Zn823   1.926   .     S
O816   Zn826   1.933   .     S
O817   Zn824   1.929   .     S
O818   Zn825   1.934   .     S
O819   Zn826   1.928   .     S
O820   Zn823   1.926   .     S
O821   Zn824   1.938   .     S
O822   Zn825   1.929   .     S
C827   O876    1.268   .     A
C827   O878    1.268   .     A
C827   C833    1.436   .     S
C828   C842    1.387   .     A
C828   C849    1.409   .     A
C828   H865    1.076   .     S
C829   H853    1.085   .     S
C829   C841    1.396   .     A
C829   C842    1.392   .     A
C830   O879    1.281   .     A
C830   O877    1.283   .     A
C830   C832    1.454   .     S
C831   C840    1.475   .     S
C831   C843    1.401   .     A
C831   C848    1.418   .     A
C832   C715    1.334   1_655 S
C832   H737    1.088   1_655 S
C834   C837    1.451   .     S
C834   C1012   1.331   .     S
C834   H1039   1.088   .     S
C835   C836    1.435   .     S
C836   O874    1.274   .     A
C836   O880    1.274   .     A
C837   O875    1.275   .     A
C837   O881    1.274   .     A
C838   C843    1.387   .     A
C838   H868    1.082   .     S
C838   C315    1.391   1_556 S
C839   O872    1.279   .     A
C839   C842    1.452   .     S
C839   O870    1.268   .     A
C840   O873    1.283   .     A
C840   O871    1.283   .     A
C841   C844    1.519   .     S
C843   H866    1.083   .     S
C844   H859    1.112   .     S
C845   H857    1.109   .     S
C845   H858    1.111   .     S
C845   H856    1.111   .     S
C845   C313    1.527   1_556 S
C846   H867    1.076   .     S
C847   C848    1.421   .     A
C847   C315    1.419   1_556 S
C847   C318    1.429   1_556 S
C848   C852    1.405   .     A
C850   C851    1.400   .     A
C850   C318    1.431   1_556 S
C850   C310    1.422   1_556 S
C851   H864    1.080   .     S
C851   C852    1.380   .     A
C852   H854    1.081   .     S
H860   C313    1.109   1_556 S
H861   C715    1.086   1_655 S
H863   C1012   1.086   .     S
O869   Zn885   1.935   .     S
O869   Zn883   1.935   .     S
O869   Zn882   1.959   .     S
O869   Zn884   1.943   .     S
O870   Zn883   1.938   .     S
O871   Zn885   1.943   .     S
O872   Zn884   1.934   .     S
O873   Zn882   1.931   .     S
O874   Zn882   1.926   .     S
O875   Zn885   1.933   .     S
O876   Zn883   1.929   .     S
O877   Zn884   1.934   .     S
O878   Zn885   1.928   .     S
O879   Zn882   1.926   .     S
O880   Zn883   1.938   .     S
O881   Zn884   1.929   .     S
C886   O935    1.268   .     A
C886   O937    1.268   .     A
C886   C892    1.436   .     S
C887   C901    1.387   .     A
C887   C908    1.409   .     A
C887   H924    1.076   .     S
C888   H912    1.085   .     S
C888   C900    1.396   .     A
C888   C901    1.392   .     A
C889   O938    1.281   .     A
C889   O936    1.283   .     A
C889   C891    1.454   .     S
C890   C899    1.475   .     S
C890   C902    1.401   .     A
C890   C907    1.418   .     A
C891   C951    1.334   .     S
C891   H973    1.088   .     S
C892   C1009   1.334   1_455 S
C892   H1038   1.086   1_455 S
C893   C896    1.451   .     S
C893   C540    1.331   1_565 S
C893   H567    1.088   1_565 S
C894   C895    1.435   .     S
C895   O933    1.274   .     A
C895   O939    1.274   .     A
C896   O934    1.275   .     A
C896   O940    1.274   .     A
C897   C902    1.387   .     A
C897   H927    1.082   .     S
C897   C374    1.391   1_556 S
C898   O931    1.279   .     A
C898   C901    1.452   .     S
C898   O929    1.268   .     A
C899   O932    1.283   .     A
C899   O930    1.283   .     A
C900   C903    1.519   .     S
C902   H925    1.083   .     S
C903   H918    1.112   .     S
C904   H916    1.109   .     S
C904   H917    1.111   .     S
C904   H915    1.111   .     S
C904   C372    1.527   1_556 S
C905   H926    1.076   .     S
C906   C907    1.421   .     A
C906   C374    1.419   1_556 S
C906   C377    1.429   1_556 S
C907   C911    1.405   .     A
C909   C910    1.400   .     A
C909   C377    1.431   1_556 S
C909   C369    1.422   1_556 S
C910   H923    1.080   .     S
C910   C911    1.380   .     A
C911   H913    1.081   .     S
H914   C1009   1.088   1_455 S
H919   C372    1.109   1_556 S
H920   C951    1.086   .     S
H922   C540    1.086   1_565 S
O928   Zn944   1.935   .     S
O928   Zn942   1.935   .     S
O928   Zn941   1.959   .     S
O928   Zn943   1.943   .     S
O929   Zn942   1.938   .     S
O930   Zn944   1.943   .     S
O931   Zn943   1.934   .     S
O932   Zn941   1.931   .     S
O933   Zn941   1.926   .     S
O934   Zn944   1.933   .     S
O935   Zn942   1.929   .     S
O936   Zn943   1.934   .     S
O937   Zn944   1.928   .     S
O938   Zn941   1.926   .     S
O939   Zn942   1.938   .     S
O940   Zn943   1.929   .     S
C945   O994    1.268   .     A
C945   O996    1.268   .     A
C945   C951    1.436   .     S
C946   C960    1.387   .     A
C946   C967    1.409   .     A
C946   H983    1.076   .     S
C947   H971    1.085   .     S
C947   C959    1.396   .     A
C947   C960    1.392   .     A
C948   O997    1.281   .     A
C948   O995    1.283   .     A
C948   C950    1.454   .     S
C949   C958    1.475   .     S
C949   C961    1.401   .     A
C949   C966    1.418   .     A
C950   C1010   1.334   .     S
C950   H1032   1.088   .     S
C952   C955    1.451   .     S
C952   C599    1.331   1_565 S
C952   H626    1.088   1_565 S
C953   C954    1.435   .     S
C954   O992    1.274   .     A
C954   O998    1.274   .     A
C955   O993    1.275   .     A
C955   O999    1.274   .     A
C956   C961    1.387   .     A
C956   H986    1.082   .     S
C956   C433    1.391   1_556 S
C957   O990    1.279   .     A
C957   C960    1.452   .     S
C957   O988    1.268   .     A
C958   O991    1.283   .     A
C958   O989    1.283   .     A
C959   C962    1.519   .     S
C961   H984    1.083   .     S
C962   H977    1.112   .     S
C963   H975    1.109   .     S
C963   H976    1.111   .     S
C963   H974    1.111   .     S
C963   C431    1.527   1_556 S
C964   H985    1.076   .     S
C965   C966    1.421   .     A
C965   C433    1.419   1_556 S
C965   C436    1.429   1_556 S
C966   C970    1.405   .     A
C968   C969    1.400   .     A
C968   C436    1.431   1_556 S
C968   C428    1.422   1_556 S
C969   H982    1.080   .     S
C969   C970    1.380   .     A
C970   H972    1.081   .     S
H978   C431    1.109   1_556 S
H979   C1010   1.086   .     S
H981   C599    1.086   1_565 S
O987   Zn1003  1.935   .     S
O987   Zn1001  1.935   .     S
O987   Zn1000  1.959   .     S
O987   Zn1002  1.943   .     S
O988   Zn1001  1.938   .     S
O989   Zn1003  1.943   .     S
O990   Zn1002  1.934   .     S
O991   Zn1000  1.931   .     S
O992   Zn1000  1.926   .     S
O993   Zn1003  1.933   .     S
O994   Zn1001  1.929   .     S
O995   Zn1002  1.934   .     S
O996   Zn1003  1.928   .     S
O997   Zn1000  1.926   .     S
O998   Zn1001  1.938   .     S
O999   Zn1002  1.929   .     S
C1004  O1053   1.268   .     A
C1004  O1055   1.268   .     A
C1004  C1010   1.436   .     S
C1005  C1019   1.387   .     A
C1005  C1026   1.409   .     A
C1005  H1042   1.076   .     S
C1006  H1030   1.085   .     S
C1006  C1018   1.396   .     A
C1006  C1019   1.392   .     A
C1007  O1056   1.281   .     A
C1007  O1054   1.283   .     A
C1007  C1009   1.454   .     S
C1008  C1017   1.475   .     S
C1008  C1020   1.401   .     A
C1008  C1025   1.418   .     A
C1009  C892    1.334   1_655 S
C1009  H914    1.088   1_655 S
C1011  C1014   1.451   .     S
C1011  C658    1.331   1_565 S
C1011  H685    1.088   1_565 S
C1012  C1013   1.435   .     S
C1013  O1051   1.274   .     A
C1013  O1057   1.274   .     A
C1014  O1052   1.275   .     A
C1014  O1058   1.274   .     A
C1015  C1020   1.387   .     A
C1015  H1045   1.082   .     S
C1015  C492    1.391   1_556 S
C1016  O1049   1.279   .     A
C1016  C1019   1.452   .     S
C1016  O1047   1.268   .     A
C1017  O1050   1.283   .     A
C1017  O1048   1.283   .     A
C1018  C1021   1.519   .     S
C1020  H1043   1.083   .     S
C1021  H1036   1.112   .     S
C1022  H1034   1.109   .     S
C1022  H1035   1.111   .     S
C1022  H1033   1.111   .     S
C1022  C490    1.527   1_556 S
C1023  H1044   1.076   .     S
C1024  C1025   1.421   .     A
C1024  C492    1.419   1_556 S
C1024  C495    1.429   1_556 S
C1025  C1029   1.405   .     A
C1027  C1028   1.400   .     A
C1027  C495    1.431   1_556 S
C1027  C487    1.422   1_556 S
C1028  H1041   1.080   .     S
C1028  C1029   1.380   .     A
C1029  H1031   1.081   .     S
H1037  C490    1.109   1_556 S
H1038  C892    1.086   1_655 S
H1040  C658    1.086   1_565 S
O1046  Zn1062  1.935   .     S
O1046  Zn1060  1.935   .     S
O1046  Zn1059  1.959   .     S
O1046  Zn1061  1.943   .     S
O1047  Zn1060  1.938   .     S
O1048  Zn1062  1.943   .     S
O1049  Zn1061  1.934   .     S
O1050  Zn1059  1.931   .     S
O1051  Zn1059  1.926   .     S
O1052  Zn1062  1.933   .     S
O1053  Zn1060  1.929   .     S
O1054  Zn1061  1.934   .     S
O1055  Zn1062  1.928   .     S
O1056  Zn1059  1.926   .     S
O1057  Zn1060  1.938   .     S
O1058  Zn1061  1.929   .     S
