data_str_m1_o1_o17_pcu_sym.164
_audit_creation_date              2020-01-03
_audit_creation_method            'Materials Studio'
_symmetry_space_group_name_H-M    'P1'
_symmetry_Int_Tables_number       1
_symmetry_cell_setting            triclinic
loop_
_symmetry_equiv_pos_as_xyz
  x,y,z
_cell_length_a                    36.5873
_cell_length_b                    36.5873
_cell_length_c                    34.4640
_cell_angle_alpha                 90.0000
_cell_angle_beta                  90.0000
_cell_angle_gamma                 90.0006
loop_
_atom_site_label
_atom_site_type_symbol
_atom_site_fract_x
_atom_site_fract_y
_atom_site_fract_z
_atom_site_U_iso_or_equiv
_atom_site_adp_type
_atom_site_occupancy
C1     C     0.49030   0.28192   0.41838   0.00000  Uiso   1.00
C2     C     0.49302   0.21737   0.58185   0.00000  Uiso   1.00
C3     C     0.21737   0.49302   0.41815   0.00000  Uiso   1.00
C4     C     0.28192   0.49030   0.58163   0.00000  Uiso   1.00
C5     C     0.00970   0.21808   0.41838   0.00000  Uiso   1.00
C6     C     0.00698   0.28263   0.58185   0.00000  Uiso   1.00
C7     C     0.28263   0.00698   0.41815   0.00000  Uiso   1.00
C8     C     0.21808   0.00970   0.58163   0.00000  Uiso   1.00
C9     C     0.24030   0.03192   0.91838   0.00000  Uiso   1.00
C10    C     0.24302   0.46737   0.08185   0.00000  Uiso   1.00
C11    C     0.46737   0.24302   0.91815   0.00000  Uiso   1.00
C12    C     0.03192   0.24030   0.08163   0.00000  Uiso   1.00
C13    C     0.25970   0.46808   0.91838   0.00000  Uiso   1.00
C14    C     0.25698   0.03263   0.08185   0.00000  Uiso   1.00
C15    C     0.03263   0.25698   0.91815   0.00000  Uiso   1.00
C16    C     0.46808   0.25970   0.08163   0.00000  Uiso   1.00
C17    C    -0.00000   0.25000   0.39815   0.00000  Uiso   1.00
C18    C    -0.00000   0.25000   0.60201   0.00000  Uiso   1.00
C19    C     0.25000   0.00000   0.39799   0.00000  Uiso   1.00
C20    C     0.25000   0.00000   0.60185   0.00000  Uiso   1.00
C21    C     0.25000   0.00000   0.89815   0.00000  Uiso   1.00
C22    C     0.25000   0.00000   0.10201   0.00000  Uiso   1.00
C23    C     0.00000   0.25000   0.89799   0.00000  Uiso   1.00
C24    C     0.00000   0.25000   0.10185   0.00000  Uiso   1.00
C25    C     0.00304   0.18288   0.47973   0.00000  Uiso   1.00
C26    C     0.49716   0.31712   0.52061   0.00000  Uiso   1.00
C27    C     0.31712   0.49716   0.47939   0.00000  Uiso   1.00
C28    C     0.18288   0.00304   0.52027   0.00000  Uiso   1.00
C29    C     0.49696   0.31712   0.47973   0.00000  Uiso   1.00
C30    C     0.00284   0.18288   0.52061   0.00000  Uiso   1.00
C31    C     0.18288   0.00284   0.47939   0.00000  Uiso   1.00
C32    C     0.31712   0.49696   0.52027   0.00000  Uiso   1.00
C33    C     0.25304   0.43288   0.97973   0.00000  Uiso   1.00
C34    C     0.24716   0.06712   0.02061   0.00000  Uiso   1.00
C35    C     0.06712   0.24716   0.97939   0.00000  Uiso   1.00
C36    C     0.43288   0.25304   0.02027   0.00000  Uiso   1.00
C37    C     0.24696   0.06712   0.97973   0.00000  Uiso   1.00
C38    C     0.25284   0.43288   0.02061   0.00000  Uiso   1.00
C39    C     0.43288   0.25284   0.97939   0.00000  Uiso   1.00
C40    C     0.06712   0.24696   0.02027   0.00000  Uiso   1.00
C41    C     0.25000   0.00000   0.35572   0.00000  Uiso   1.00
C42    C     0.25000   0.00000   0.64423   0.00000  Uiso   1.00
C43    C     0.00000   0.25000   0.35577   0.00000  Uiso   1.00
C44    C     0.00000   0.25000   0.64428   0.00000  Uiso   1.00
C45    C     0.00000   0.25000   0.85572   0.00000  Uiso   1.00
C46    C     0.00000   0.25000   0.14423   0.00000  Uiso   1.00
C47    C     0.25000   0.00000   0.85577   0.00000  Uiso   1.00
C48    C     0.25000   0.00000   0.14428   0.00000  Uiso   1.00
C49    C     0.18002   0.06998   0.25000   0.00000  Uiso   1.00
C50    C     0.32000   0.43000   0.75000   0.00000  Uiso   1.00
C51    C     0.43002   0.18002   0.25000   0.00000  Uiso   1.00
C52    C     0.06999   0.31999   0.75000   0.00000  Uiso   1.00
C53    C     0.31998   0.43002   0.25000   0.00000  Uiso   1.00
C54    C     0.18000   0.07000   0.75000   0.00000  Uiso   1.00
C55    C     0.06998   0.31998   0.25000   0.00000  Uiso   1.00
C56    C     0.43001   0.18001   0.75000   0.00000  Uiso   1.00
C57    C     0.18002   0.43002   0.75000   0.00000  Uiso   1.00
C58    C     0.31999   0.06999   0.25000   0.00000  Uiso   1.00
C59    C     0.43002   0.31998   0.75000   0.00000  Uiso   1.00
C60    C     0.07000   0.18000   0.25000   0.00000  Uiso   1.00
C61    C     0.31998   0.06998   0.75000   0.00000  Uiso   1.00
C62    C     0.18001   0.43001   0.25000   0.00000  Uiso   1.00
C63    C     0.06998   0.18002   0.75000   0.00000  Uiso   1.00
C64    C     0.43000   0.32000   0.25000   0.00000  Uiso   1.00
C65    C     0.14448   0.38241   0.21563   0.00000  Uiso   1.00
C66    C     0.35548   0.11755   0.78439   0.00000  Uiso   1.00
C67    C     0.11777   0.14461   0.21571   0.00000  Uiso   1.00
C68    C     0.38233   0.35531   0.78432   0.00000  Uiso   1.00
C69    C     0.35552   0.11759   0.21563   0.00000  Uiso   1.00
C70    C     0.14452   0.38245   0.78439   0.00000  Uiso   1.00
C71    C     0.38223   0.35539   0.21571   0.00000  Uiso   1.00
C72    C     0.11768   0.14469   0.78432   0.00000  Uiso   1.00
C73    C     0.14461   0.11777   0.78429   0.00000  Uiso   1.00
C74    C     0.35531   0.38233   0.21568   0.00000  Uiso   1.00
C75    C     0.11759   0.35552   0.78437   0.00000  Uiso   1.00
C76    C     0.38245   0.14452   0.21562   0.00000  Uiso   1.00
C77    C     0.35539   0.38223   0.78429   0.00000  Uiso   1.00
C78    C     0.14469   0.11767   0.21568   0.00000  Uiso   1.00
C79    C     0.38241   0.14448   0.78437   0.00000  Uiso   1.00
C80    C     0.11755   0.35548   0.21561   0.00000  Uiso   1.00
C81    C     0.39448   0.13241   0.71563   0.00000  Uiso   1.00
C82    C     0.10548   0.36755   0.28439   0.00000  Uiso   1.00
C83    C     0.36777   0.39461   0.71571   0.00000  Uiso   1.00
C84    C     0.13233   0.10531   0.28432   0.00000  Uiso   1.00
C85    C     0.10552   0.36759   0.71563   0.00000  Uiso   1.00
C86    C     0.39452   0.13245   0.28439   0.00000  Uiso   1.00
C87    C     0.13223   0.10539   0.71571   0.00000  Uiso   1.00
C88    C     0.36767   0.39469   0.28432   0.00000  Uiso   1.00
C89    C     0.39461   0.36777   0.28429   0.00000  Uiso   1.00
C90    C     0.10531   0.13232   0.71568   0.00000  Uiso   1.00
C91    C     0.36759   0.10552   0.28437   0.00000  Uiso   1.00
C92    C     0.13245   0.39452   0.71562   0.00000  Uiso   1.00
C93    C     0.10539   0.13223   0.28429   0.00000  Uiso   1.00
C94    C     0.39469   0.36767   0.71568   0.00000  Uiso   1.00
C95    C     0.13241   0.39448   0.28437   0.00000  Uiso   1.00
C96    C     0.36755   0.10548   0.71562   0.00000  Uiso   1.00
C97    C     0.00395   0.21655   0.45907   0.00000  Uiso   1.00
C98    C     0.00106   0.28366   0.54118   0.00000  Uiso   1.00
C99    C     0.28366   0.00106   0.45882   0.00000  Uiso   1.00
C100   C     0.21655   0.00395   0.54093   0.00000  Uiso   1.00
C101   C     0.49605   0.28345   0.45907   0.00000  Uiso   1.00
C102   C     0.49894   0.21634   0.54118   0.00000  Uiso   1.00
C103   C     0.21634   0.49894   0.45882   0.00000  Uiso   1.00
C104   C     0.28345   0.49605   0.54093   0.00000  Uiso   1.00
C105   C     0.25395   0.46655   0.95907   0.00000  Uiso   1.00
C106   C     0.25106   0.03366   0.04118   0.00000  Uiso   1.00
C107   C     0.03366   0.25106   0.95882   0.00000  Uiso   1.00
C108   C     0.46655   0.25395   0.04093   0.00000  Uiso   1.00
C109   C     0.24605   0.03345   0.95907   0.00000  Uiso   1.00
C110   C     0.24894   0.46634   0.04118   0.00000  Uiso   1.00
C111   C     0.46634   0.24894   0.95882   0.00000  Uiso   1.00
C112   C     0.03345   0.24605   0.04093   0.00000  Uiso   1.00
C113   C     0.09803   0.34803   0.25000   0.00000  Uiso   1.00
C114   C     0.40193   0.15194   0.75000   0.00000  Uiso   1.00
C115   C     0.15199   0.09801   0.25000   0.00000  Uiso   1.00
C116   C     0.34808   0.40192   0.75000   0.00000  Uiso   1.00
C117   C     0.40197   0.15197   0.25000   0.00000  Uiso   1.00
C118   C     0.09806   0.34807   0.75000   0.00000  Uiso   1.00
C119   C     0.34801   0.40199   0.25000   0.00000  Uiso   1.00
C120   C     0.15192   0.09808   0.75000   0.00000  Uiso   1.00
C121   C     0.09801   0.15199   0.75000   0.00000  Uiso   1.00
C122   C     0.40192   0.34808   0.25000   0.00000  Uiso   1.00
C123   C     0.15197   0.40197   0.75000   0.00000  Uiso   1.00
C124   C     0.34806   0.09807   0.25000   0.00000  Uiso   1.00
C125   C     0.40199   0.34801   0.75000   0.00000  Uiso   1.00
C126   C     0.09808   0.15192   0.25000   0.00000  Uiso   1.00
C127   C     0.34803   0.09803   0.75000   0.00000  Uiso   1.00
C128   C     0.15193   0.40194   0.25000   0.00000  Uiso   1.00
C129   C    -0.00000   0.25000   0.47963   0.00000  Uiso   1.00
C130   C    -0.00000   0.25000   0.52061   0.00000  Uiso   1.00
C131   C     0.25000   0.00000   0.47939   0.00000  Uiso   1.00
C132   C     0.25000   0.00000   0.52037   0.00000  Uiso   1.00
C133   C     0.25000   0.00000   0.97963   0.00000  Uiso   1.00
C134   C     0.25000   0.00000   0.02061   0.00000  Uiso   1.00
C135   C    -0.00000   0.25000   0.97939   0.00000  Uiso   1.00
C136   C    -0.00000   0.25000   0.02037   0.00000  Uiso   1.00
O137   O     0.25000   0.00000   0.25000   0.00000  Uiso   1.00
O138   O     0.25000   0.00000   0.75000   0.00000  Uiso   1.00
O139   O    -0.00000   0.25000   0.25000   0.00000  Uiso   1.00
O140   O    -0.00000   0.25000   0.75000   0.00000  Uiso   1.00
O141   O     0.25000   0.46964   0.33755   0.00000  Uiso   1.00
O142   O     0.25000   0.03037   0.66245   0.00000  Uiso   1.00
O143   O     0.03036   0.25000   0.33755   0.00000  Uiso   1.00
O144   O     0.46963   0.25000   0.66245   0.00000  Uiso   1.00
O145   O     0.25000   0.03037   0.33755   0.00000  Uiso   1.00
O146   O     0.25000   0.46964   0.66245   0.00000  Uiso   1.00
O147   O     0.46963   0.25000   0.33755   0.00000  Uiso   1.00
O148   O     0.03036   0.25000   0.66245   0.00000  Uiso   1.00
O149   O    -0.00000   0.21964   0.83755   0.00000  Uiso   1.00
O150   O     0.00000   0.28037   0.16245   0.00000  Uiso   1.00
O151   O     0.28036   0.00000   0.83755   0.00000  Uiso   1.00
O152   O     0.21963   0.00000   0.16245   0.00000  Uiso   1.00
O153   O     0.00000   0.28037   0.83755   0.00000  Uiso   1.00
O154   O    -0.00000   0.21964   0.16245   0.00000  Uiso   1.00
O155   O     0.21963   0.00000   0.83755   0.00000  Uiso   1.00
O156   O     0.28036   0.00000   0.16245   0.00000  Uiso   1.00
O157   O     0.20724   0.07308   0.27302   0.00000  Uiso   1.00
O158   O     0.29275   0.42693   0.72698   0.00000  Uiso   1.00
O159   O     0.42692   0.20725   0.27302   0.00000  Uiso   1.00
O160   O     0.07307   0.29276   0.72698   0.00000  Uiso   1.00
O161   O     0.29275   0.42693   0.27302   0.00000  Uiso   1.00
O162   O     0.20724   0.07308   0.72698   0.00000  Uiso   1.00
O163   O     0.07307   0.29276   0.27302   0.00000  Uiso   1.00
O164   O     0.42692   0.20725   0.72698   0.00000  Uiso   1.00
O165   O     0.20724   0.42693   0.72698   0.00000  Uiso   1.00
O166   O     0.29275   0.07308   0.27302   0.00000  Uiso   1.00
O167   O     0.42692   0.29276   0.72698   0.00000  Uiso   1.00
O168   O     0.07307   0.20725   0.27302   0.00000  Uiso   1.00
O169   O     0.29275   0.07308   0.72698   0.00000  Uiso   1.00
O170   O     0.20724   0.42693   0.27302   0.00000  Uiso   1.00
O171   O     0.07307   0.20725   0.72698   0.00000  Uiso   1.00
O172   O     0.42692   0.29276   0.27302   0.00000  Uiso   1.00
O173   O     0.45724   0.32308   0.77302   0.00000  Uiso   1.00
O174   O     0.04275   0.17693   0.22698   0.00000  Uiso   1.00
O175   O     0.17692   0.45725   0.77302   0.00000  Uiso   1.00
O176   O     0.32307   0.04276   0.22698   0.00000  Uiso   1.00
O177   O     0.04275   0.17693   0.77302   0.00000  Uiso   1.00
O178   O     0.45724   0.32308   0.22698   0.00000  Uiso   1.00
O179   O     0.32307   0.04276   0.77302   0.00000  Uiso   1.00
O180   O     0.17692   0.45725   0.22698   0.00000  Uiso   1.00
O181   O     0.45724   0.17693   0.22698   0.00000  Uiso   1.00
O182   O     0.04275   0.32308   0.77302   0.00000  Uiso   1.00
O183   O     0.17692   0.04276   0.22698   0.00000  Uiso   1.00
O184   O     0.32307   0.45725   0.77302   0.00000  Uiso   1.00
O185   O     0.04275   0.32308   0.22698   0.00000  Uiso   1.00
O186   O     0.45724   0.17693   0.77302   0.00000  Uiso   1.00
O187   O     0.32307   0.45725   0.22698   0.00000  Uiso   1.00
O188   O     0.17692   0.04276   0.77302   0.00000  Uiso   1.00
Zn189  Zn    0.20659   0.00000   0.21735   0.00000  Uiso   1.00
Zn190  Zn    0.29340   0.00000   0.78265   0.00000  Uiso   1.00
Zn191  Zn    0.00000   0.20660   0.21735   0.00000  Uiso   1.00
Zn192  Zn    0.00000   0.29341   0.78265   0.00000  Uiso   1.00
Zn193  Zn    0.29340   0.00000   0.21735   0.00000  Uiso   1.00
Zn194  Zn    0.20659   0.00000   0.78265   0.00000  Uiso   1.00
Zn195  Zn    0.00000   0.29341   0.21735   0.00000  Uiso   1.00
Zn196  Zn   -0.00000   0.20660   0.78265   0.00000  Uiso   1.00
Zn197  Zn    0.45659   0.25000   0.71735   0.00000  Uiso   1.00
Zn198  Zn    0.04340   0.25000   0.28265   0.00000  Uiso   1.00
Zn199  Zn    0.25000   0.45660   0.71735   0.00000  Uiso   1.00
Zn200  Zn    0.25000   0.04341   0.28265   0.00000  Uiso   1.00
Zn201  Zn    0.04340   0.25000   0.71735   0.00000  Uiso   1.00
Zn202  Zn    0.45659   0.25000   0.28265   0.00000  Uiso   1.00
Zn203  Zn    0.25000   0.04341   0.71735   0.00000  Uiso   1.00
Zn204  Zn    0.25000   0.45660   0.28265   0.00000  Uiso   1.00
C205   C     0.49827   0.14746   0.45911   0.00000  Uiso   1.00
O206   O     0.47149   0.14273   0.43848   0.00000  Uiso   1.00
O207   O     0.02442   0.11983   0.46309   0.00000  Uiso   1.00
H208   H     0.01814   0.09722   0.44744   0.00000  Uiso   1.00
C209   C     0.48887   0.35178   0.54149   0.00000  Uiso   1.00
O210   O     0.00852   0.37856   0.53741   0.00000  Uiso   1.00
O211   O     0.45868   0.35332   0.56631   0.00000  Uiso   1.00
H212   H     0.45593   0.37807   0.57922   0.00000  Uiso   1.00
C213   C     0.35178   0.48887   0.45851   0.00000  Uiso   1.00
O214   O     0.37856   0.00853   0.46259   0.00000  Uiso   1.00
O215   O     0.35332   0.45869   0.43369   0.00000  Uiso   1.00
H216   H     0.37807   0.45593   0.42078   0.00000  Uiso   1.00
C217   C     0.14746   0.49827   0.54089   0.00000  Uiso   1.00
O218   O     0.14273   0.47149   0.56153   0.00000  Uiso   1.00
O219   O     0.11983   0.02442   0.53691   0.00000  Uiso   1.00
H220   H     0.09722   0.01814   0.55256   0.00000  Uiso   1.00
C221   C     0.00173   0.35254   0.45911   0.00000  Uiso   1.00
O222   O     0.02850   0.35727   0.43848   0.00000  Uiso   1.00
O223   O     0.47558   0.38017   0.46309   0.00000  Uiso   1.00
H224   H     0.48186   0.40278   0.44744   0.00000  Uiso   1.00
C225   C     0.01113   0.14822   0.54149   0.00000  Uiso   1.00
O226   O     0.49148   0.12144   0.53741   0.00000  Uiso   1.00
O227   O     0.04132   0.14668   0.56631   0.00000  Uiso   1.00
H228   H     0.04407   0.12193   0.57922   0.00000  Uiso   1.00
C229   C     0.14822   0.01113   0.45851   0.00000  Uiso   1.00
O230   O     0.12144   0.49147   0.46259   0.00000  Uiso   1.00
O231   O     0.14668   0.04131   0.43369   0.00000  Uiso   1.00
H232   H     0.12193   0.04407   0.42078   0.00000  Uiso   1.00
C233   C     0.35254   0.00173   0.54089   0.00000  Uiso   1.00
O234   O     0.35727   0.02851   0.56153   0.00000  Uiso   1.00
O235   O     0.38017   0.47558   0.53691   0.00000  Uiso   1.00
H236   H     0.40278   0.48186   0.55256   0.00000  Uiso   1.00
C237   C     0.24827   0.39746   0.95911   0.00000  Uiso   1.00
O238   O     0.22149   0.39273   0.93847   0.00000  Uiso   1.00
O239   O     0.27442   0.36983   0.96309   0.00000  Uiso   1.00
H240   H     0.26814   0.34722   0.94744   0.00000  Uiso   1.00
C241   C     0.23887   0.10178   0.04149   0.00000  Uiso   1.00
O242   O     0.25853   0.12856   0.03741   0.00000  Uiso   1.00
O243   O     0.20869   0.10332   0.06631   0.00000  Uiso   1.00
H244   H     0.20593   0.12807   0.07922   0.00000  Uiso   1.00
C245   C     0.10178   0.23887   0.95851   0.00000  Uiso   1.00
O246   O     0.12856   0.25852   0.96259   0.00000  Uiso   1.00
O247   O     0.10332   0.20868   0.93369   0.00000  Uiso   1.00
H248   H     0.12807   0.20593   0.92078   0.00000  Uiso   1.00
C249   C     0.39746   0.24827   0.04089   0.00000  Uiso   1.00
O250   O     0.39273   0.22149   0.06153   0.00000  Uiso   1.00
O251   O     0.36983   0.27442   0.03691   0.00000  Uiso   1.00
H252   H     0.34722   0.26814   0.05256   0.00000  Uiso   1.00
C253   C     0.25173   0.10254   0.95911   0.00000  Uiso   1.00
O254   O     0.27851   0.10727   0.93847   0.00000  Uiso   1.00
O255   O     0.22558   0.13017   0.96309   0.00000  Uiso   1.00
H256   H     0.23186   0.15278   0.94744   0.00000  Uiso   1.00
C257   C     0.26113   0.39822   0.04149   0.00000  Uiso   1.00
O258   O     0.24147   0.37144   0.03741   0.00000  Uiso   1.00
O259   O     0.29131   0.39668   0.06631   0.00000  Uiso   1.00
H260   H     0.29407   0.37193   0.07922   0.00000  Uiso   1.00
C261   C     0.39822   0.26113   0.95851   0.00000  Uiso   1.00
O262   O     0.37144   0.24148   0.96259   0.00000  Uiso   1.00
O263   O     0.39668   0.29132   0.93369   0.00000  Uiso   1.00
H264   H     0.37193   0.29407   0.92078   0.00000  Uiso   1.00
C265   C     0.10254   0.25173   0.04089   0.00000  Uiso   1.00
O266   O     0.10727   0.27851   0.06153   0.00000  Uiso   1.00
O267   O     0.13017   0.22558   0.03691   0.00000  Uiso   1.00
H268   H     0.15278   0.23186   0.05256   0.00000  Uiso   1.00
N269   N     0.16467   0.38884   0.18060   0.00000  Uiso   1.00
H270   H     0.19254   0.38582   0.18650   0.00000  Uiso   1.00
H271   H     0.15983   0.41561   0.17138   0.00000  Uiso   1.00
N272   N     0.33529   0.11112   0.81946   0.00000  Uiso   1.00
H273   H     0.30740   0.11402   0.81358   0.00000  Uiso   1.00
H274   H     0.34022   0.08440   0.82877   0.00000  Uiso   1.00
N275   N     0.11147   0.16494   0.18077   0.00000  Uiso   1.00
H276   H     0.11461   0.19277   0.18681   0.00000  Uiso   1.00
H277   H     0.08467   0.16023   0.17158   0.00000  Uiso   1.00
N278   N     0.38862   0.33498   0.81934   0.00000  Uiso   1.00
H279   H     0.38571   0.30711   0.81333   0.00000  Uiso   1.00
H280   H     0.41531   0.33984   0.82878   0.00000  Uiso   1.00
N281   N     0.33532   0.11116   0.18060   0.00000  Uiso   1.00
H282   H     0.30745   0.11419   0.18650   0.00000  Uiso   1.00
H283   H     0.34017   0.08440   0.17138   0.00000  Uiso   1.00
N284   N     0.16471   0.38888   0.81946   0.00000  Uiso   1.00
H285   H     0.19260   0.38598   0.81358   0.00000  Uiso   1.00
H286   H     0.15978   0.41560   0.82877   0.00000  Uiso   1.00
N287   N     0.38853   0.33506   0.18077   0.00000  Uiso   1.00
H288   H     0.38539   0.30723   0.18681   0.00000  Uiso   1.00
H289   H     0.41533   0.33977   0.17158   0.00000  Uiso   1.00
N290   N     0.11138   0.16503   0.81934   0.00000  Uiso   1.00
H291   H     0.11430   0.19289   0.81333   0.00000  Uiso   1.00
H292   H     0.08469   0.16016   0.82878   0.00000  Uiso   1.00
N293   N     0.16495   0.11148   0.81923   0.00000  Uiso   1.00
H294   H     0.19277   0.11461   0.81318   0.00000  Uiso   1.00
H295   H     0.16024   0.08468   0.82842   0.00000  Uiso   1.00
N296   N     0.33498   0.38862   0.18066   0.00000  Uiso   1.00
H297   H     0.30711   0.38571   0.18667   0.00000  Uiso   1.00
H298   H     0.33984   0.41531   0.17122   0.00000  Uiso   1.00
N299   N     0.11116   0.33532   0.81940   0.00000  Uiso   1.00
H300   H     0.11419   0.30745   0.81350   0.00000  Uiso   1.00
H301   H     0.08440   0.34017   0.82862   0.00000  Uiso   1.00
N302   N     0.38888   0.16471   0.18054   0.00000  Uiso   1.00
H303   H     0.38598   0.19260   0.18642   0.00000  Uiso   1.00
H304   H     0.41560   0.15978   0.17123   0.00000  Uiso   1.00
N305   N     0.33506   0.38853   0.81923   0.00000  Uiso   1.00
H306   H     0.30723   0.38539   0.81319   0.00000  Uiso   1.00
H307   H     0.33977   0.41533   0.82842   0.00000  Uiso   1.00
N308   N     0.16502   0.11138   0.18066   0.00000  Uiso   1.00
H309   H     0.19289   0.11429   0.18667   0.00000  Uiso   1.00
H310   H     0.16016   0.08469   0.17122   0.00000  Uiso   1.00
N311   N     0.38884   0.16468   0.81940   0.00000  Uiso   1.00
H312   H     0.38581   0.19255   0.81350   0.00000  Uiso   1.00
H313   H     0.41560   0.15983   0.82862   0.00000  Uiso   1.00
N314   N     0.11111   0.33529   0.18054   0.00000  Uiso   1.00
H315   H     0.11402   0.30740   0.18641   0.00000  Uiso   1.00
H316   H     0.08439   0.34023   0.17123   0.00000  Uiso   1.00
N317   N     0.41468   0.13884   0.68060   0.00000  Uiso   1.00
H318   H     0.44255   0.13581   0.68650   0.00000  Uiso   1.00
H319   H     0.40983   0.16560   0.67138   0.00000  Uiso   1.00
N320   N     0.08529   0.36111   0.31946   0.00000  Uiso   1.00
H321   H     0.05740   0.36402   0.31359   0.00000  Uiso   1.00
H322   H     0.09023   0.33439   0.32877   0.00000  Uiso   1.00
N323   N     0.36147   0.41494   0.68077   0.00000  Uiso   1.00
H324   H     0.36461   0.44277   0.68681   0.00000  Uiso   1.00
H325   H     0.33467   0.41023   0.67158   0.00000  Uiso   1.00
N326   N     0.13862   0.08498   0.31934   0.00000  Uiso   1.00
H327   H     0.13571   0.05711   0.31333   0.00000  Uiso   1.00
H328   H     0.16531   0.08984   0.32878   0.00000  Uiso   1.00
N329   N     0.08532   0.36116   0.68060   0.00000  Uiso   1.00
H330   H     0.05745   0.36419   0.68650   0.00000  Uiso   1.00
H331   H     0.09017   0.33440   0.67138   0.00000  Uiso   1.00
N332   N     0.41471   0.13888   0.31946   0.00000  Uiso   1.00
H333   H     0.44260   0.13598   0.31358   0.00000  Uiso   1.00
H334   H     0.40978   0.16560   0.32877   0.00000  Uiso   1.00
N335   N     0.13852   0.08505   0.68077   0.00000  Uiso   1.00
H336   H     0.13539   0.05723   0.68682   0.00000  Uiso   1.00
H337   H     0.16532   0.08976   0.67158   0.00000  Uiso   1.00
N338   N     0.36138   0.41502   0.31934   0.00000  Uiso   1.00
H339   H     0.36429   0.44289   0.31333   0.00000  Uiso   1.00
H340   H     0.33469   0.41016   0.32878   0.00000  Uiso   1.00
N341   N     0.41494   0.36147   0.31923   0.00000  Uiso   1.00
H342   H     0.44277   0.36461   0.31319   0.00000  Uiso   1.00
H343   H     0.41023   0.33467   0.32842   0.00000  Uiso   1.00
N344   N     0.08497   0.13862   0.68067   0.00000  Uiso   1.00
H345   H     0.05711   0.13570   0.68667   0.00000  Uiso   1.00
H346   H     0.08984   0.16531   0.67122   0.00000  Uiso   1.00
N347   N     0.36116   0.08532   0.31940   0.00000  Uiso   1.00
H348   H     0.36419   0.05745   0.31350   0.00000  Uiso   1.00
H349   H     0.33440   0.09017   0.32862   0.00000  Uiso   1.00
N350   N     0.13888   0.41472   0.68054   0.00000  Uiso   1.00
H351   H     0.13598   0.44260   0.68642   0.00000  Uiso   1.00
H352   H     0.16560   0.40978   0.67123   0.00000  Uiso   1.00
N353   N     0.08506   0.13853   0.31923   0.00000  Uiso   1.00
H354   H     0.05723   0.13539   0.31319   0.00000  Uiso   1.00
H355   H     0.08977   0.16533   0.32842   0.00000  Uiso   1.00
N356   N     0.41502   0.36138   0.68066   0.00000  Uiso   1.00
H357   H     0.44289   0.36429   0.68667   0.00000  Uiso   1.00
H358   H     0.41016   0.33469   0.67122   0.00000  Uiso   1.00
N359   N     0.13884   0.41468   0.31940   0.00000  Uiso   1.00
H360   H     0.13582   0.44254   0.31350   0.00000  Uiso   1.00
H361   H     0.16561   0.40983   0.32862   0.00000  Uiso   1.00
N362   N     0.36111   0.08529   0.68054   0.00000  Uiso   1.00
H363   H     0.36402   0.05740   0.68642   0.00000  Uiso   1.00
H364   H     0.33439   0.09022   0.67123   0.00000  Uiso   1.00
C365   C     0.47131   0.31204   0.39746   0.00000  Uiso   1.00
O366   O     0.48444   0.32511   0.36792   0.00000  Uiso   1.00
O367   O     0.43847   0.32568   0.41233   0.00000  Uiso   1.00
H368   H     0.42876   0.34716   0.39690   0.00000  Uiso   1.00
C369   C     0.47642   0.18583   0.60280   0.00000  Uiso   1.00
O370   O     0.49012   0.17427   0.63277   0.00000  Uiso   1.00
O371   O     0.44511   0.16924   0.58762   0.00000  Uiso   1.00
H372   H     0.43686   0.14741   0.60346   0.00000  Uiso   1.00
C373   C     0.18583   0.47642   0.39720   0.00000  Uiso   1.00
O374   O     0.17427   0.49012   0.36723   0.00000  Uiso   1.00
O375   O     0.16924   0.44510   0.41238   0.00000  Uiso   1.00
H376   H     0.14741   0.43686   0.39654   0.00000  Uiso   1.00
C377   C     0.31204   0.47131   0.60254   0.00000  Uiso   1.00
O378   O     0.32511   0.48444   0.63209   0.00000  Uiso   1.00
O379   O     0.32569   0.43847   0.58767   0.00000  Uiso   1.00
H380   H     0.34716   0.42876   0.60310   0.00000  Uiso   1.00
C381   C     0.02869   0.18796   0.39746   0.00000  Uiso   1.00
O382   O     0.01556   0.17489   0.36792   0.00000  Uiso   1.00
O383   O     0.06153   0.17432   0.41233   0.00000  Uiso   1.00
H384   H     0.07124   0.15284   0.39690   0.00000  Uiso   1.00
C385   C     0.02357   0.31417   0.60280   0.00000  Uiso   1.00
O386   O     0.00988   0.32573   0.63277   0.00000  Uiso   1.00
O387   O     0.05489   0.33076   0.58762   0.00000  Uiso   1.00
H388   H     0.06314   0.35259   0.60346   0.00000  Uiso   1.00
C389   C     0.31417   0.02358   0.39720   0.00000  Uiso   1.00
O390   O     0.32573   0.00988   0.36723   0.00000  Uiso   1.00
O391   O     0.33076   0.05490   0.41238   0.00000  Uiso   1.00
H392   H     0.35259   0.06314   0.39654   0.00000  Uiso   1.00
C393   C     0.18796   0.02869   0.60254   0.00000  Uiso   1.00
O394   O     0.17489   0.01556   0.63209   0.00000  Uiso   1.00
O395   O     0.17431   0.06153   0.58767   0.00000  Uiso   1.00
H396   H     0.15284   0.07124   0.60310   0.00000  Uiso   1.00
C397   C     0.22131   0.06204   0.89746   0.00000  Uiso   1.00
O398   O     0.23444   0.07511   0.86792   0.00000  Uiso   1.00
O399   O     0.18847   0.07569   0.91233   0.00000  Uiso   1.00
H400   H     0.17876   0.09716   0.89690   0.00000  Uiso   1.00
C401   C     0.22642   0.43583   0.10280   0.00000  Uiso   1.00
O402   O     0.24012   0.42427   0.13277   0.00000  Uiso   1.00
O403   O     0.19510   0.41924   0.08762   0.00000  Uiso   1.00
H404   H     0.18686   0.39741   0.10346   0.00000  Uiso   1.00
C405   C     0.43583   0.22642   0.89720   0.00000  Uiso   1.00
O406   O     0.42427   0.24012   0.86723   0.00000  Uiso   1.00
O407   O     0.41924   0.19511   0.91238   0.00000  Uiso   1.00
H408   H     0.39741   0.18686   0.89654   0.00000  Uiso   1.00
C409   C     0.06204   0.22131   0.10254   0.00000  Uiso   1.00
O410   O     0.07511   0.23444   0.13209   0.00000  Uiso   1.00
O411   O     0.07568   0.18847   0.08768   0.00000  Uiso   1.00
H412   H     0.09716   0.17876   0.10310   0.00000  Uiso   1.00
C413   C     0.27869   0.43796   0.89746   0.00000  Uiso   1.00
O414   O     0.26556   0.42489   0.86792   0.00000  Uiso   1.00
O415   O     0.31153   0.42431   0.91233   0.00000  Uiso   1.00
H416   H     0.32124   0.40284   0.89690   0.00000  Uiso   1.00
C417   C     0.27358   0.06417   0.10280   0.00000  Uiso   1.00
O418   O     0.25988   0.07573   0.13277   0.00000  Uiso   1.00
O419   O     0.30489   0.08076   0.08762   0.00000  Uiso   1.00
H420   H     0.31314   0.10259   0.10346   0.00000  Uiso   1.00
C421   C     0.06417   0.27358   0.89720   0.00000  Uiso   1.00
O422   O     0.07573   0.25988   0.86723   0.00000  Uiso   1.00
O423   O     0.08076   0.30489   0.91238   0.00000  Uiso   1.00
H424   H     0.10259   0.31314   0.89654   0.00000  Uiso   1.00
C425   C     0.43796   0.27869   0.10254   0.00000  Uiso   1.00
O426   O     0.42489   0.26556   0.13209   0.00000  Uiso   1.00
O427   O     0.42432   0.31153   0.08768   0.00000  Uiso   1.00
H428   H     0.40284   0.32124   0.10310   0.00000  Uiso   1.00
C429   C     0.99030   0.28192   0.41838   0.00000  Uiso   1.00
C430   C     0.99302   0.21737   0.58185   0.00000  Uiso   1.00
C431   C     0.71737   0.49302   0.41815   0.00000  Uiso   1.00
C432   C     0.78192   0.49030   0.58163   0.00000  Uiso   1.00
C433   C     0.50970   0.21808   0.41838   0.00000  Uiso   1.00
C434   C     0.50698   0.28263   0.58185   0.00000  Uiso   1.00
C435   C     0.78263   0.00698   0.41815   0.00000  Uiso   1.00
C436   C     0.71808   0.00970   0.58163   0.00000  Uiso   1.00
C437   C     0.74030   0.03192   0.91838   0.00000  Uiso   1.00
C438   C     0.74302   0.46737   0.08185   0.00000  Uiso   1.00
C439   C     0.96737   0.24302   0.91815   0.00000  Uiso   1.00
C440   C     0.53192   0.24030   0.08163   0.00000  Uiso   1.00
C441   C     0.75970   0.46808   0.91838   0.00000  Uiso   1.00
C442   C     0.75698   0.03263   0.08185   0.00000  Uiso   1.00
C443   C     0.53263   0.25698   0.91815   0.00000  Uiso   1.00
C444   C     0.96808   0.25970   0.08163   0.00000  Uiso   1.00
C445   C     0.50000   0.25000   0.39815   0.00000  Uiso   1.00
C446   C     0.50000   0.25000   0.60201   0.00000  Uiso   1.00
C447   C     0.75000   0.00000   0.39799   0.00000  Uiso   1.00
C448   C     0.75000   0.00000   0.60185   0.00000  Uiso   1.00
C449   C     0.75000   0.00000   0.89815   0.00000  Uiso   1.00
C450   C     0.75000   0.00000   0.10201   0.00000  Uiso   1.00
C451   C     0.50000   0.25000   0.89799   0.00000  Uiso   1.00
C452   C     0.50000   0.25000   0.10185   0.00000  Uiso   1.00
C453   C     0.50304   0.18288   0.47973   0.00000  Uiso   1.00
C454   C     0.99716   0.31712   0.52061   0.00000  Uiso   1.00
C455   C     0.81712   0.49716   0.47939   0.00000  Uiso   1.00
C456   C     0.68288   0.00304   0.52027   0.00000  Uiso   1.00
C457   C     0.99696   0.31712   0.47973   0.00000  Uiso   1.00
C458   C     0.50284   0.18288   0.52061   0.00000  Uiso   1.00
C459   C     0.68288   0.00284   0.47939   0.00000  Uiso   1.00
C460   C     0.81712   0.49696   0.52027   0.00000  Uiso   1.00
C461   C     0.75304   0.43288   0.97973   0.00000  Uiso   1.00
C462   C     0.74716   0.06712   0.02061   0.00000  Uiso   1.00
C463   C     0.56712   0.24716   0.97939   0.00000  Uiso   1.00
C464   C     0.93288   0.25304   0.02027   0.00000  Uiso   1.00
C465   C     0.74696   0.06712   0.97973   0.00000  Uiso   1.00
C466   C     0.75284   0.43288   0.02061   0.00000  Uiso   1.00
C467   C     0.93288   0.25284   0.97939   0.00000  Uiso   1.00
C468   C     0.56712   0.24696   0.02027   0.00000  Uiso   1.00
C469   C     0.75000   0.00000   0.35572   0.00000  Uiso   1.00
C470   C     0.75000   0.00000   0.64423   0.00000  Uiso   1.00
C471   C     0.50000   0.25000   0.35577   0.00000  Uiso   1.00
C472   C     0.50000   0.25000   0.64428   0.00000  Uiso   1.00
C473   C     0.50000   0.25000   0.85572   0.00000  Uiso   1.00
C474   C     0.50000   0.25000   0.14423   0.00000  Uiso   1.00
C475   C     0.75000   0.00000   0.85577   0.00000  Uiso   1.00
C476   C     0.75000   0.00000   0.14428   0.00000  Uiso   1.00
C477   C     0.68002   0.06998   0.25000   0.00000  Uiso   1.00
C478   C     0.82000   0.43000   0.75000   0.00000  Uiso   1.00
C479   C     0.93002   0.18002   0.25000   0.00000  Uiso   1.00
C480   C     0.56999   0.31999   0.75000   0.00000  Uiso   1.00
C481   C     0.81998   0.43002   0.25000   0.00000  Uiso   1.00
C482   C     0.68000   0.07000   0.75000   0.00000  Uiso   1.00
C483   C     0.56998   0.31998   0.25000   0.00000  Uiso   1.00
C484   C     0.93001   0.18001   0.75000   0.00000  Uiso   1.00
C485   C     0.68002   0.43002   0.75000   0.00000  Uiso   1.00
C486   C     0.81999   0.06999   0.25000   0.00000  Uiso   1.00
C487   C     0.93002   0.31998   0.75000   0.00000  Uiso   1.00
C488   C     0.57000   0.18000   0.25000   0.00000  Uiso   1.00
C489   C     0.81998   0.06998   0.75000   0.00000  Uiso   1.00
C490   C     0.68001   0.43001   0.25000   0.00000  Uiso   1.00
C491   C     0.56998   0.18002   0.75000   0.00000  Uiso   1.00
C492   C     0.93000   0.32000   0.25000   0.00000  Uiso   1.00
C493   C     0.64448   0.38241   0.21563   0.00000  Uiso   1.00
C494   C     0.85548   0.11755   0.78439   0.00000  Uiso   1.00
C495   C     0.61777   0.14461   0.21571   0.00000  Uiso   1.00
C496   C     0.88233   0.35531   0.78432   0.00000  Uiso   1.00
C497   C     0.85552   0.11759   0.21563   0.00000  Uiso   1.00
C498   C     0.64452   0.38245   0.78439   0.00000  Uiso   1.00
C499   C     0.88223   0.35539   0.21571   0.00000  Uiso   1.00
C500   C     0.61768   0.14469   0.78432   0.00000  Uiso   1.00
C501   C     0.64461   0.11777   0.78429   0.00000  Uiso   1.00
C502   C     0.85531   0.38233   0.21568   0.00000  Uiso   1.00
C503   C     0.61759   0.35552   0.78437   0.00000  Uiso   1.00
C504   C     0.88245   0.14452   0.21562   0.00000  Uiso   1.00
C505   C     0.85539   0.38223   0.78429   0.00000  Uiso   1.00
C506   C     0.64469   0.11767   0.21568   0.00000  Uiso   1.00
C507   C     0.88241   0.14448   0.78437   0.00000  Uiso   1.00
C508   C     0.61755   0.35548   0.21561   0.00000  Uiso   1.00
C509   C     0.89448   0.13241   0.71563   0.00000  Uiso   1.00
C510   C     0.60548   0.36755   0.28439   0.00000  Uiso   1.00
C511   C     0.86777   0.39461   0.71571   0.00000  Uiso   1.00
C512   C     0.63233   0.10531   0.28432   0.00000  Uiso   1.00
C513   C     0.60552   0.36759   0.71563   0.00000  Uiso   1.00
C514   C     0.89452   0.13245   0.28439   0.00000  Uiso   1.00
C515   C     0.63223   0.10539   0.71571   0.00000  Uiso   1.00
C516   C     0.86767   0.39469   0.28432   0.00000  Uiso   1.00
C517   C     0.89461   0.36777   0.28429   0.00000  Uiso   1.00
C518   C     0.60531   0.13232   0.71568   0.00000  Uiso   1.00
C519   C     0.86759   0.10552   0.28437   0.00000  Uiso   1.00
C520   C     0.63245   0.39452   0.71562   0.00000  Uiso   1.00
C521   C     0.60539   0.13223   0.28429   0.00000  Uiso   1.00
C522   C     0.89469   0.36767   0.71568   0.00000  Uiso   1.00
C523   C     0.63241   0.39448   0.28437   0.00000  Uiso   1.00
C524   C     0.86755   0.10548   0.71562   0.00000  Uiso   1.00
C525   C     0.50395   0.21655   0.45907   0.00000  Uiso   1.00
C526   C     0.50106   0.28366   0.54118   0.00000  Uiso   1.00
C527   C     0.78366   0.00106   0.45882   0.00000  Uiso   1.00
C528   C     0.71655   0.00395   0.54093   0.00000  Uiso   1.00
C529   C     0.99605   0.28345   0.45907   0.00000  Uiso   1.00
C530   C     0.99894   0.21634   0.54118   0.00000  Uiso   1.00
C531   C     0.71634   0.49894   0.45882   0.00000  Uiso   1.00
C532   C     0.78345   0.49605   0.54093   0.00000  Uiso   1.00
C533   C     0.75395   0.46655   0.95907   0.00000  Uiso   1.00
C534   C     0.75106   0.03366   0.04118   0.00000  Uiso   1.00
C535   C     0.53366   0.25106   0.95882   0.00000  Uiso   1.00
C536   C     0.96655   0.25395   0.04093   0.00000  Uiso   1.00
C537   C     0.74605   0.03345   0.95907   0.00000  Uiso   1.00
C538   C     0.74894   0.46634   0.04118   0.00000  Uiso   1.00
C539   C     0.96634   0.24894   0.95882   0.00000  Uiso   1.00
C540   C     0.53345   0.24605   0.04093   0.00000  Uiso   1.00
C541   C     0.59803   0.34803   0.25000   0.00000  Uiso   1.00
C542   C     0.90193   0.15194   0.75000   0.00000  Uiso   1.00
C543   C     0.65199   0.09801   0.25000   0.00000  Uiso   1.00
C544   C     0.84808   0.40192   0.75000   0.00000  Uiso   1.00
C545   C     0.90197   0.15197   0.25000   0.00000  Uiso   1.00
C546   C     0.59806   0.34807   0.75000   0.00000  Uiso   1.00
C547   C     0.84801   0.40199   0.25000   0.00000  Uiso   1.00
C548   C     0.65192   0.09808   0.75000   0.00000  Uiso   1.00
C549   C     0.59801   0.15199   0.75000   0.00000  Uiso   1.00
C550   C     0.90192   0.34808   0.25000   0.00000  Uiso   1.00
C551   C     0.65197   0.40197   0.75000   0.00000  Uiso   1.00
C552   C     0.84806   0.09807   0.25000   0.00000  Uiso   1.00
C553   C     0.90199   0.34801   0.75000   0.00000  Uiso   1.00
C554   C     0.59808   0.15192   0.25000   0.00000  Uiso   1.00
C555   C     0.84803   0.09803   0.75000   0.00000  Uiso   1.00
C556   C     0.65193   0.40194   0.25000   0.00000  Uiso   1.00
C557   C     0.50000   0.25000   0.47963   0.00000  Uiso   1.00
C558   C     0.50000   0.25000   0.52061   0.00000  Uiso   1.00
C559   C     0.75000   0.00000   0.47939   0.00000  Uiso   1.00
C560   C     0.75000   0.00000   0.52037   0.00000  Uiso   1.00
C561   C     0.75000   0.00000   0.97963   0.00000  Uiso   1.00
C562   C     0.75000   0.00000   0.02061   0.00000  Uiso   1.00
C563   C     0.50000   0.25000   0.97939   0.00000  Uiso   1.00
C564   C     0.50000   0.25000   0.02037   0.00000  Uiso   1.00
O565   O     0.75000   0.00000   0.25000   0.00000  Uiso   1.00
O566   O     0.75000   0.00000   0.75000   0.00000  Uiso   1.00
O567   O     0.50000   0.25000   0.25000   0.00000  Uiso   1.00
O568   O     0.50000   0.25000   0.75000   0.00000  Uiso   1.00
O569   O     0.75000   0.46964   0.33755   0.00000  Uiso   1.00
O570   O     0.75000   0.03037   0.66245   0.00000  Uiso   1.00
O571   O     0.53036   0.25000   0.33755   0.00000  Uiso   1.00
O572   O     0.96963   0.25000   0.66245   0.00000  Uiso   1.00
O573   O     0.75000   0.03037   0.33755   0.00000  Uiso   1.00
O574   O     0.75000   0.46964   0.66245   0.00000  Uiso   1.00
O575   O     0.96963   0.25000   0.33755   0.00000  Uiso   1.00
O576   O     0.53036   0.25000   0.66245   0.00000  Uiso   1.00
O577   O     0.50000   0.21964   0.83755   0.00000  Uiso   1.00
O578   O     0.50000   0.28037   0.16245   0.00000  Uiso   1.00
O579   O     0.78036   0.00000   0.83755   0.00000  Uiso   1.00
O580   O     0.71963   0.00000   0.16245   0.00000  Uiso   1.00
O581   O     0.50000   0.28037   0.83755   0.00000  Uiso   1.00
O582   O     0.50000   0.21964   0.16245   0.00000  Uiso   1.00
O583   O     0.71963   0.00000   0.83755   0.00000  Uiso   1.00
O584   O     0.78036   0.00000   0.16245   0.00000  Uiso   1.00
O585   O     0.70724   0.07308   0.27302   0.00000  Uiso   1.00
O586   O     0.79275   0.42693   0.72698   0.00000  Uiso   1.00
O587   O     0.92692   0.20725   0.27302   0.00000  Uiso   1.00
O588   O     0.57307   0.29276   0.72698   0.00000  Uiso   1.00
O589   O     0.79275   0.42693   0.27302   0.00000  Uiso   1.00
O590   O     0.70724   0.07308   0.72698   0.00000  Uiso   1.00
O591   O     0.57307   0.29276   0.27302   0.00000  Uiso   1.00
O592   O     0.92692   0.20725   0.72698   0.00000  Uiso   1.00
O593   O     0.70724   0.42693   0.72698   0.00000  Uiso   1.00
O594   O     0.79275   0.07308   0.27302   0.00000  Uiso   1.00
O595   O     0.92692   0.29276   0.72698   0.00000  Uiso   1.00
O596   O     0.57307   0.20725   0.27302   0.00000  Uiso   1.00
O597   O     0.79275   0.07308   0.72698   0.00000  Uiso   1.00
O598   O     0.70724   0.42693   0.27302   0.00000  Uiso   1.00
O599   O     0.57307   0.20725   0.72698   0.00000  Uiso   1.00
O600   O     0.92692   0.29276   0.27302   0.00000  Uiso   1.00
O601   O     0.95724   0.32308   0.77302   0.00000  Uiso   1.00
O602   O     0.54275   0.17693   0.22698   0.00000  Uiso   1.00
O603   O     0.67692   0.45725   0.77302   0.00000  Uiso   1.00
O604   O     0.82307   0.04276   0.22698   0.00000  Uiso   1.00
O605   O     0.54275   0.17693   0.77302   0.00000  Uiso   1.00
O606   O     0.95724   0.32308   0.22698   0.00000  Uiso   1.00
O607   O     0.82307   0.04276   0.77302   0.00000  Uiso   1.00
O608   O     0.67692   0.45725   0.22698   0.00000  Uiso   1.00
O609   O     0.95724   0.17693   0.22698   0.00000  Uiso   1.00
O610   O     0.54275   0.32308   0.77302   0.00000  Uiso   1.00
O611   O     0.67692   0.04276   0.22698   0.00000  Uiso   1.00
O612   O     0.82307   0.45725   0.77302   0.00000  Uiso   1.00
O613   O     0.54275   0.32308   0.22698   0.00000  Uiso   1.00
O614   O     0.95724   0.17693   0.77302   0.00000  Uiso   1.00
O615   O     0.82307   0.45725   0.22698   0.00000  Uiso   1.00
O616   O     0.67692   0.04276   0.77302   0.00000  Uiso   1.00
Zn617  Zn    0.70659   0.00000   0.21735   0.00000  Uiso   1.00
Zn618  Zn    0.79340   0.00000   0.78265   0.00000  Uiso   1.00
Zn619  Zn    0.50000   0.20660   0.21735   0.00000  Uiso   1.00
Zn620  Zn    0.50000   0.29341   0.78265   0.00000  Uiso   1.00
Zn621  Zn    0.79340   0.00000   0.21735   0.00000  Uiso   1.00
Zn622  Zn    0.70659   0.00000   0.78265   0.00000  Uiso   1.00
Zn623  Zn    0.50000   0.29341   0.21735   0.00000  Uiso   1.00
Zn624  Zn    0.50000   0.20660   0.78265   0.00000  Uiso   1.00
Zn625  Zn    0.95659   0.25000   0.71735   0.00000  Uiso   1.00
Zn626  Zn    0.54340   0.25000   0.28265   0.00000  Uiso   1.00
Zn627  Zn    0.75000   0.45660   0.71735   0.00000  Uiso   1.00
Zn628  Zn    0.75000   0.04341   0.28265   0.00000  Uiso   1.00
Zn629  Zn    0.54340   0.25000   0.71735   0.00000  Uiso   1.00
Zn630  Zn    0.95659   0.25000   0.28265   0.00000  Uiso   1.00
Zn631  Zn    0.75000   0.04341   0.71735   0.00000  Uiso   1.00
Zn632  Zn    0.75000   0.45660   0.28265   0.00000  Uiso   1.00
C633   C     0.99827   0.14746   0.45911   0.00000  Uiso   1.00
O634   O     0.97149   0.14273   0.43848   0.00000  Uiso   1.00
O635   O     0.52442   0.11983   0.46309   0.00000  Uiso   1.00
H636   H     0.51814   0.09722   0.44744   0.00000  Uiso   1.00
C637   C     0.98887   0.35178   0.54149   0.00000  Uiso   1.00
O638   O     0.50852   0.37856   0.53741   0.00000  Uiso   1.00
O639   O     0.95868   0.35332   0.56631   0.00000  Uiso   1.00
H640   H     0.95593   0.37807   0.57922   0.00000  Uiso   1.00
C641   C     0.85178   0.48887   0.45851   0.00000  Uiso   1.00
O642   O     0.87856   0.00853   0.46259   0.00000  Uiso   1.00
O643   O     0.85332   0.45869   0.43369   0.00000  Uiso   1.00
H644   H     0.87807   0.45593   0.42078   0.00000  Uiso   1.00
C645   C     0.64746   0.49827   0.54089   0.00000  Uiso   1.00
O646   O     0.64273   0.47149   0.56153   0.00000  Uiso   1.00
O647   O     0.61983   0.02442   0.53691   0.00000  Uiso   1.00
H648   H     0.59722   0.01814   0.55256   0.00000  Uiso   1.00
C649   C     0.50173   0.35254   0.45911   0.00000  Uiso   1.00
O650   O     0.52850   0.35727   0.43848   0.00000  Uiso   1.00
O651   O     0.97558   0.38017   0.46309   0.00000  Uiso   1.00
H652   H     0.98186   0.40278   0.44744   0.00000  Uiso   1.00
C653   C     0.51113   0.14822   0.54149   0.00000  Uiso   1.00
O654   O     0.99148   0.12144   0.53741   0.00000  Uiso   1.00
O655   O     0.54132   0.14668   0.56631   0.00000  Uiso   1.00
H656   H     0.54407   0.12193   0.57922   0.00000  Uiso   1.00
C657   C     0.64822   0.01113   0.45851   0.00000  Uiso   1.00
O658   O     0.62144   0.49147   0.46259   0.00000  Uiso   1.00
O659   O     0.64668   0.04131   0.43369   0.00000  Uiso   1.00
H660   H     0.62193   0.04407   0.42078   0.00000  Uiso   1.00
C661   C     0.85254   0.00173   0.54089   0.00000  Uiso   1.00
O662   O     0.85727   0.02851   0.56153   0.00000  Uiso   1.00
O663   O     0.88017   0.47558   0.53691   0.00000  Uiso   1.00
H664   H     0.90278   0.48186   0.55256   0.00000  Uiso   1.00
C665   C     0.74827   0.39746   0.95911   0.00000  Uiso   1.00
O666   O     0.72149   0.39273   0.93847   0.00000  Uiso   1.00
O667   O     0.77442   0.36983   0.96309   0.00000  Uiso   1.00
H668   H     0.76814   0.34722   0.94744   0.00000  Uiso   1.00
C669   C     0.73887   0.10178   0.04149   0.00000  Uiso   1.00
O670   O     0.75853   0.12856   0.03741   0.00000  Uiso   1.00
O671   O     0.70869   0.10332   0.06631   0.00000  Uiso   1.00
H672   H     0.70593   0.12807   0.07922   0.00000  Uiso   1.00
C673   C     0.60178   0.23887   0.95851   0.00000  Uiso   1.00
O674   O     0.62856   0.25852   0.96259   0.00000  Uiso   1.00
O675   O     0.60332   0.20868   0.93369   0.00000  Uiso   1.00
H676   H     0.62807   0.20593   0.92078   0.00000  Uiso   1.00
C677   C     0.89746   0.24827   0.04089   0.00000  Uiso   1.00
O678   O     0.89273   0.22149   0.06153   0.00000  Uiso   1.00
O679   O     0.86983   0.27442   0.03691   0.00000  Uiso   1.00
H680   H     0.84722   0.26814   0.05256   0.00000  Uiso   1.00
C681   C     0.75173   0.10254   0.95911   0.00000  Uiso   1.00
O682   O     0.77851   0.10727   0.93847   0.00000  Uiso   1.00
O683   O     0.72558   0.13017   0.96309   0.00000  Uiso   1.00
H684   H     0.73186   0.15278   0.94744   0.00000  Uiso   1.00
C685   C     0.76113   0.39822   0.04149   0.00000  Uiso   1.00
O686   O     0.74147   0.37144   0.03741   0.00000  Uiso   1.00
O687   O     0.79131   0.39668   0.06631   0.00000  Uiso   1.00
H688   H     0.79407   0.37193   0.07922   0.00000  Uiso   1.00
C689   C     0.89822   0.26113   0.95851   0.00000  Uiso   1.00
O690   O     0.87144   0.24148   0.96259   0.00000  Uiso   1.00
O691   O     0.89668   0.29132   0.93369   0.00000  Uiso   1.00
H692   H     0.87193   0.29407   0.92078   0.00000  Uiso   1.00
C693   C     0.60254   0.25173   0.04089   0.00000  Uiso   1.00
O694   O     0.60727   0.27851   0.06153   0.00000  Uiso   1.00
O695   O     0.63017   0.22558   0.03691   0.00000  Uiso   1.00
H696   H     0.65278   0.23186   0.05256   0.00000  Uiso   1.00
N697   N     0.66467   0.38884   0.18060   0.00000  Uiso   1.00
H698   H     0.69254   0.38582   0.18650   0.00000  Uiso   1.00
H699   H     0.65983   0.41561   0.17138   0.00000  Uiso   1.00
N700   N     0.83529   0.11112   0.81946   0.00000  Uiso   1.00
H701   H     0.80740   0.11402   0.81358   0.00000  Uiso   1.00
H702   H     0.84022   0.08440   0.82877   0.00000  Uiso   1.00
N703   N     0.61147   0.16494   0.18077   0.00000  Uiso   1.00
H704   H     0.61461   0.19277   0.18681   0.00000  Uiso   1.00
H705   H     0.58467   0.16023   0.17158   0.00000  Uiso   1.00
N706   N     0.88862   0.33498   0.81934   0.00000  Uiso   1.00
H707   H     0.88571   0.30711   0.81333   0.00000  Uiso   1.00
H708   H     0.91531   0.33984   0.82878   0.00000  Uiso   1.00
N709   N     0.83532   0.11116   0.18060   0.00000  Uiso   1.00
H710   H     0.80745   0.11419   0.18650   0.00000  Uiso   1.00
H711   H     0.84017   0.08440   0.17138   0.00000  Uiso   1.00
N712   N     0.66471   0.38888   0.81946   0.00000  Uiso   1.00
H713   H     0.69260   0.38598   0.81358   0.00000  Uiso   1.00
H714   H     0.65978   0.41560   0.82877   0.00000  Uiso   1.00
N715   N     0.88853   0.33506   0.18077   0.00000  Uiso   1.00
H716   H     0.88539   0.30723   0.18681   0.00000  Uiso   1.00
H717   H     0.91533   0.33977   0.17158   0.00000  Uiso   1.00
N718   N     0.61138   0.16503   0.81934   0.00000  Uiso   1.00
H719   H     0.61430   0.19289   0.81333   0.00000  Uiso   1.00
H720   H     0.58469   0.16016   0.82878   0.00000  Uiso   1.00
N721   N     0.66495   0.11148   0.81923   0.00000  Uiso   1.00
H722   H     0.69277   0.11461   0.81318   0.00000  Uiso   1.00
H723   H     0.66024   0.08468   0.82842   0.00000  Uiso   1.00
N724   N     0.83498   0.38862   0.18066   0.00000  Uiso   1.00
H725   H     0.80711   0.38571   0.18667   0.00000  Uiso   1.00
H726   H     0.83984   0.41531   0.17122   0.00000  Uiso   1.00
N727   N     0.61116   0.33532   0.81940   0.00000  Uiso   1.00
H728   H     0.61419   0.30745   0.81350   0.00000  Uiso   1.00
H729   H     0.58440   0.34017   0.82862   0.00000  Uiso   1.00
N730   N     0.88888   0.16471   0.18054   0.00000  Uiso   1.00
H731   H     0.88598   0.19260   0.18642   0.00000  Uiso   1.00
H732   H     0.91560   0.15978   0.17123   0.00000  Uiso   1.00
N733   N     0.83506   0.38853   0.81923   0.00000  Uiso   1.00
H734   H     0.80723   0.38539   0.81319   0.00000  Uiso   1.00
H735   H     0.83977   0.41533   0.82842   0.00000  Uiso   1.00
N736   N     0.66502   0.11138   0.18066   0.00000  Uiso   1.00
H737   H     0.69289   0.11429   0.18667   0.00000  Uiso   1.00
H738   H     0.66016   0.08469   0.17122   0.00000  Uiso   1.00
N739   N     0.88884   0.16468   0.81940   0.00000  Uiso   1.00
H740   H     0.88581   0.19255   0.81350   0.00000  Uiso   1.00
H741   H     0.91560   0.15983   0.82862   0.00000  Uiso   1.00
N742   N     0.61111   0.33529   0.18054   0.00000  Uiso   1.00
H743   H     0.61402   0.30740   0.18641   0.00000  Uiso   1.00
H744   H     0.58439   0.34023   0.17123   0.00000  Uiso   1.00
N745   N     0.91468   0.13884   0.68060   0.00000  Uiso   1.00
H746   H     0.94255   0.13581   0.68650   0.00000  Uiso   1.00
H747   H     0.90983   0.16560   0.67138   0.00000  Uiso   1.00
N748   N     0.58529   0.36111   0.31946   0.00000  Uiso   1.00
H749   H     0.55740   0.36402   0.31359   0.00000  Uiso   1.00
H750   H     0.59023   0.33439   0.32877   0.00000  Uiso   1.00
N751   N     0.86147   0.41494   0.68077   0.00000  Uiso   1.00
H752   H     0.86461   0.44277   0.68681   0.00000  Uiso   1.00
H753   H     0.83467   0.41023   0.67158   0.00000  Uiso   1.00
N754   N     0.63862   0.08498   0.31934   0.00000  Uiso   1.00
H755   H     0.63571   0.05711   0.31333   0.00000  Uiso   1.00
H756   H     0.66531   0.08984   0.32878   0.00000  Uiso   1.00
N757   N     0.58532   0.36116   0.68060   0.00000  Uiso   1.00
H758   H     0.55745   0.36419   0.68650   0.00000  Uiso   1.00
H759   H     0.59017   0.33440   0.67138   0.00000  Uiso   1.00
N760   N     0.91471   0.13888   0.31946   0.00000  Uiso   1.00
H761   H     0.94260   0.13598   0.31358   0.00000  Uiso   1.00
H762   H     0.90978   0.16560   0.32877   0.00000  Uiso   1.00
N763   N     0.63852   0.08505   0.68077   0.00000  Uiso   1.00
H764   H     0.63539   0.05723   0.68682   0.00000  Uiso   1.00
H765   H     0.66532   0.08976   0.67158   0.00000  Uiso   1.00
N766   N     0.86138   0.41502   0.31934   0.00000  Uiso   1.00
H767   H     0.86429   0.44289   0.31333   0.00000  Uiso   1.00
H768   H     0.83469   0.41016   0.32878   0.00000  Uiso   1.00
N769   N     0.91494   0.36147   0.31923   0.00000  Uiso   1.00
H770   H     0.94277   0.36461   0.31319   0.00000  Uiso   1.00
H771   H     0.91023   0.33467   0.32842   0.00000  Uiso   1.00
N772   N     0.58497   0.13862   0.68067   0.00000  Uiso   1.00
H773   H     0.55711   0.13570   0.68667   0.00000  Uiso   1.00
H774   H     0.58984   0.16531   0.67122   0.00000  Uiso   1.00
N775   N     0.86116   0.08532   0.31940   0.00000  Uiso   1.00
H776   H     0.86419   0.05745   0.31350   0.00000  Uiso   1.00
H777   H     0.83440   0.09017   0.32862   0.00000  Uiso   1.00
N778   N     0.63888   0.41472   0.68054   0.00000  Uiso   1.00
H779   H     0.63598   0.44260   0.68642   0.00000  Uiso   1.00
H780   H     0.66560   0.40978   0.67123   0.00000  Uiso   1.00
N781   N     0.58506   0.13853   0.31923   0.00000  Uiso   1.00
H782   H     0.55723   0.13539   0.31319   0.00000  Uiso   1.00
H783   H     0.58977   0.16533   0.32842   0.00000  Uiso   1.00
N784   N     0.91502   0.36138   0.68066   0.00000  Uiso   1.00
H785   H     0.94289   0.36429   0.68667   0.00000  Uiso   1.00
H786   H     0.91016   0.33469   0.67122   0.00000  Uiso   1.00
N787   N     0.63884   0.41468   0.31940   0.00000  Uiso   1.00
H788   H     0.63582   0.44254   0.31350   0.00000  Uiso   1.00
H789   H     0.66561   0.40983   0.32862   0.00000  Uiso   1.00
N790   N     0.86111   0.08529   0.68054   0.00000  Uiso   1.00
H791   H     0.86402   0.05740   0.68642   0.00000  Uiso   1.00
H792   H     0.83439   0.09022   0.67123   0.00000  Uiso   1.00
C793   C     0.97131   0.31204   0.39746   0.00000  Uiso   1.00
O794   O     0.98444   0.32511   0.36792   0.00000  Uiso   1.00
O795   O     0.93847   0.32568   0.41233   0.00000  Uiso   1.00
H796   H     0.92876   0.34716   0.39690   0.00000  Uiso   1.00
C797   C     0.97642   0.18583   0.60280   0.00000  Uiso   1.00
O798   O     0.99012   0.17427   0.63277   0.00000  Uiso   1.00
O799   O     0.94511   0.16924   0.58762   0.00000  Uiso   1.00
H800   H     0.93686   0.14741   0.60346   0.00000  Uiso   1.00
C801   C     0.68583   0.47642   0.39720   0.00000  Uiso   1.00
O802   O     0.67427   0.49012   0.36723   0.00000  Uiso   1.00
O803   O     0.66924   0.44510   0.41238   0.00000  Uiso   1.00
H804   H     0.64741   0.43686   0.39654   0.00000  Uiso   1.00
C805   C     0.81204   0.47131   0.60254   0.00000  Uiso   1.00
O806   O     0.82511   0.48444   0.63209   0.00000  Uiso   1.00
O807   O     0.82569   0.43847   0.58767   0.00000  Uiso   1.00
H808   H     0.84716   0.42876   0.60310   0.00000  Uiso   1.00
C809   C     0.52869   0.18796   0.39746   0.00000  Uiso   1.00
O810   O     0.51556   0.17489   0.36792   0.00000  Uiso   1.00
O811   O     0.56153   0.17432   0.41233   0.00000  Uiso   1.00
H812   H     0.57124   0.15284   0.39690   0.00000  Uiso   1.00
C813   C     0.52357   0.31417   0.60280   0.00000  Uiso   1.00
O814   O     0.50988   0.32573   0.63277   0.00000  Uiso   1.00
O815   O     0.55489   0.33076   0.58762   0.00000  Uiso   1.00
H816   H     0.56314   0.35259   0.60346   0.00000  Uiso   1.00
C817   C     0.81417   0.02358   0.39720   0.00000  Uiso   1.00
O818   O     0.82573   0.00988   0.36723   0.00000  Uiso   1.00
O819   O     0.83076   0.05490   0.41238   0.00000  Uiso   1.00
H820   H     0.85259   0.06314   0.39654   0.00000  Uiso   1.00
C821   C     0.68796   0.02869   0.60254   0.00000  Uiso   1.00
O822   O     0.67489   0.01556   0.63209   0.00000  Uiso   1.00
O823   O     0.67431   0.06153   0.58767   0.00000  Uiso   1.00
H824   H     0.65284   0.07124   0.60310   0.00000  Uiso   1.00
C825   C     0.72131   0.06204   0.89746   0.00000  Uiso   1.00
O826   O     0.73444   0.07511   0.86792   0.00000  Uiso   1.00
O827   O     0.68847   0.07569   0.91233   0.00000  Uiso   1.00
H828   H     0.67876   0.09716   0.89690   0.00000  Uiso   1.00
C829   C     0.72642   0.43583   0.10280   0.00000  Uiso   1.00
O830   O     0.74012   0.42427   0.13277   0.00000  Uiso   1.00
O831   O     0.69510   0.41924   0.08762   0.00000  Uiso   1.00
H832   H     0.68686   0.39741   0.10346   0.00000  Uiso   1.00
C833   C     0.93583   0.22642   0.89720   0.00000  Uiso   1.00
O834   O     0.92427   0.24012   0.86723   0.00000  Uiso   1.00
O835   O     0.91924   0.19511   0.91238   0.00000  Uiso   1.00
H836   H     0.89741   0.18686   0.89654   0.00000  Uiso   1.00
C837   C     0.56204   0.22131   0.10254   0.00000  Uiso   1.00
O838   O     0.57511   0.23444   0.13209   0.00000  Uiso   1.00
O839   O     0.57568   0.18847   0.08768   0.00000  Uiso   1.00
H840   H     0.59716   0.17876   0.10310   0.00000  Uiso   1.00
C841   C     0.77869   0.43796   0.89746   0.00000  Uiso   1.00
O842   O     0.76556   0.42489   0.86792   0.00000  Uiso   1.00
O843   O     0.81153   0.42431   0.91233   0.00000  Uiso   1.00
H844   H     0.82124   0.40284   0.89690   0.00000  Uiso   1.00
C845   C     0.77358   0.06417   0.10280   0.00000  Uiso   1.00
O846   O     0.75988   0.07573   0.13277   0.00000  Uiso   1.00
O847   O     0.80489   0.08076   0.08762   0.00000  Uiso   1.00
H848   H     0.81314   0.10259   0.10346   0.00000  Uiso   1.00
C849   C     0.56417   0.27358   0.89720   0.00000  Uiso   1.00
O850   O     0.57573   0.25988   0.86723   0.00000  Uiso   1.00
O851   O     0.58076   0.30489   0.91238   0.00000  Uiso   1.00
H852   H     0.60259   0.31314   0.89654   0.00000  Uiso   1.00
C853   C     0.93796   0.27869   0.10254   0.00000  Uiso   1.00
O854   O     0.92489   0.26556   0.13209   0.00000  Uiso   1.00
O855   O     0.92432   0.31153   0.08768   0.00000  Uiso   1.00
H856   H     0.90284   0.32124   0.10310   0.00000  Uiso   1.00
C857   C     0.49030   0.78192   0.41838   0.00000  Uiso   1.00
C858   C     0.49302   0.71737   0.58185   0.00000  Uiso   1.00
C859   C     0.21737   0.99302   0.41815   0.00000  Uiso   1.00
C860   C     0.28192   0.99030   0.58163   0.00000  Uiso   1.00
C861   C     0.00970   0.71808   0.41838   0.00000  Uiso   1.00
C862   C     0.00698   0.78263   0.58185   0.00000  Uiso   1.00
C863   C     0.28263   0.50698   0.41815   0.00000  Uiso   1.00
C864   C     0.21808   0.50970   0.58163   0.00000  Uiso   1.00
C865   C     0.24030   0.53192   0.91838   0.00000  Uiso   1.00
C866   C     0.24302   0.96737   0.08185   0.00000  Uiso   1.00
C867   C     0.46737   0.74302   0.91815   0.00000  Uiso   1.00
C868   C     0.03192   0.74030   0.08163   0.00000  Uiso   1.00
C869   C     0.25970   0.96808   0.91838   0.00000  Uiso   1.00
C870   C     0.25698   0.53263   0.08185   0.00000  Uiso   1.00
C871   C     0.03263   0.75698   0.91815   0.00000  Uiso   1.00
C872   C     0.46808   0.75970   0.08163   0.00000  Uiso   1.00
C873   C    -0.00000   0.75000   0.39815   0.00000  Uiso   1.00
C874   C    -0.00000   0.75000   0.60201   0.00000  Uiso   1.00
C875   C     0.25000   0.50000   0.39799   0.00000  Uiso   1.00
C876   C     0.25000   0.50000   0.60185   0.00000  Uiso   1.00
C877   C     0.25000   0.50000   0.89815   0.00000  Uiso   1.00
C878   C     0.25000   0.50000   0.10201   0.00000  Uiso   1.00
C879   C     0.00000   0.75000   0.89799   0.00000  Uiso   1.00
C880   C     0.00000   0.75000   0.10185   0.00000  Uiso   1.00
C881   C     0.00304   0.68288   0.47973   0.00000  Uiso   1.00
C882   C     0.49716   0.81712   0.52061   0.00000  Uiso   1.00
C883   C     0.31712   0.99716   0.47939   0.00000  Uiso   1.00
C884   C     0.18288   0.50304   0.52027   0.00000  Uiso   1.00
C885   C     0.49696   0.81712   0.47973   0.00000  Uiso   1.00
C886   C     0.00284   0.68288   0.52061   0.00000  Uiso   1.00
C887   C     0.18288   0.50284   0.47939   0.00000  Uiso   1.00
C888   C     0.31712   0.99696   0.52027   0.00000  Uiso   1.00
C889   C     0.25304   0.93288   0.97973   0.00000  Uiso   1.00
C890   C     0.24716   0.56712   0.02061   0.00000  Uiso   1.00
C891   C     0.06712   0.74716   0.97939   0.00000  Uiso   1.00
C892   C     0.43288   0.75304   0.02027   0.00000  Uiso   1.00
C893   C     0.24696   0.56712   0.97973   0.00000  Uiso   1.00
C894   C     0.25284   0.93288   0.02061   0.00000  Uiso   1.00
C895   C     0.43288   0.75284   0.97939   0.00000  Uiso   1.00
C896   C     0.06712   0.74696   0.02027   0.00000  Uiso   1.00
C897   C     0.25000   0.50000   0.35572   0.00000  Uiso   1.00
C898   C     0.25000   0.50000   0.64423   0.00000  Uiso   1.00
C899   C     0.00000   0.75000   0.35577   0.00000  Uiso   1.00
C900   C     0.00000   0.75000   0.64428   0.00000  Uiso   1.00
C901   C     0.00000   0.75000   0.85572   0.00000  Uiso   1.00
C902   C     0.00000   0.75000   0.14423   0.00000  Uiso   1.00
C903   C     0.25000   0.50000   0.85577   0.00000  Uiso   1.00
C904   C     0.25000   0.50000   0.14428   0.00000  Uiso   1.00
C905   C     0.18002   0.56998   0.25000   0.00000  Uiso   1.00
C906   C     0.32000   0.93000   0.75000   0.00000  Uiso   1.00
C907   C     0.43002   0.68002   0.25000   0.00000  Uiso   1.00
C908   C     0.06999   0.81999   0.75000   0.00000  Uiso   1.00
C909   C     0.31998   0.93002   0.25000   0.00000  Uiso   1.00
C910   C     0.18000   0.57000   0.75000   0.00000  Uiso   1.00
C911   C     0.06998   0.81998   0.25000   0.00000  Uiso   1.00
C912   C     0.43001   0.68001   0.75000   0.00000  Uiso   1.00
C913   C     0.18002   0.93002   0.75000   0.00000  Uiso   1.00
C914   C     0.31999   0.56999   0.25000   0.00000  Uiso   1.00
C915   C     0.43002   0.81998   0.75000   0.00000  Uiso   1.00
C916   C     0.07000   0.68000   0.25000   0.00000  Uiso   1.00
C917   C     0.31998   0.56998   0.75000   0.00000  Uiso   1.00
C918   C     0.18001   0.93001   0.25000   0.00000  Uiso   1.00
C919   C     0.06998   0.68002   0.75000   0.00000  Uiso   1.00
C920   C     0.43000   0.82000   0.25000   0.00000  Uiso   1.00
C921   C     0.14448   0.88241   0.21563   0.00000  Uiso   1.00
C922   C     0.35548   0.61755   0.78439   0.00000  Uiso   1.00
C923   C     0.11777   0.64461   0.21571   0.00000  Uiso   1.00
C924   C     0.38233   0.85531   0.78432   0.00000  Uiso   1.00
C925   C     0.35552   0.61759   0.21563   0.00000  Uiso   1.00
C926   C     0.14452   0.88245   0.78439   0.00000  Uiso   1.00
C927   C     0.38223   0.85539   0.21571   0.00000  Uiso   1.00
C928   C     0.11768   0.64469   0.78432   0.00000  Uiso   1.00
C929   C     0.14461   0.61777   0.78429   0.00000  Uiso   1.00
C930   C     0.35531   0.88233   0.21568   0.00000  Uiso   1.00
C931   C     0.11759   0.85552   0.78437   0.00000  Uiso   1.00
C932   C     0.38245   0.64452   0.21562   0.00000  Uiso   1.00
C933   C     0.35539   0.88223   0.78429   0.00000  Uiso   1.00
C934   C     0.14469   0.61767   0.21568   0.00000  Uiso   1.00
C935   C     0.38241   0.64448   0.78437   0.00000  Uiso   1.00
C936   C     0.11755   0.85548   0.21561   0.00000  Uiso   1.00
C937   C     0.39448   0.63241   0.71563   0.00000  Uiso   1.00
C938   C     0.10548   0.86755   0.28439   0.00000  Uiso   1.00
C939   C     0.36777   0.89461   0.71571   0.00000  Uiso   1.00
C940   C     0.13233   0.60531   0.28432   0.00000  Uiso   1.00
C941   C     0.10552   0.86759   0.71563   0.00000  Uiso   1.00
C942   C     0.39452   0.63245   0.28439   0.00000  Uiso   1.00
C943   C     0.13223   0.60539   0.71571   0.00000  Uiso   1.00
C944   C     0.36767   0.89469   0.28432   0.00000  Uiso   1.00
C945   C     0.39461   0.86777   0.28429   0.00000  Uiso   1.00
C946   C     0.10531   0.63232   0.71568   0.00000  Uiso   1.00
C947   C     0.36759   0.60552   0.28437   0.00000  Uiso   1.00
C948   C     0.13245   0.89452   0.71562   0.00000  Uiso   1.00
C949   C     0.10539   0.63223   0.28429   0.00000  Uiso   1.00
C950   C     0.39469   0.86767   0.71568   0.00000  Uiso   1.00
C951   C     0.13241   0.89448   0.28437   0.00000  Uiso   1.00
C952   C     0.36755   0.60548   0.71562   0.00000  Uiso   1.00
C953   C     0.00395   0.71655   0.45907   0.00000  Uiso   1.00
C954   C     0.00106   0.78366   0.54118   0.00000  Uiso   1.00
C955   C     0.28366   0.50106   0.45882   0.00000  Uiso   1.00
C956   C     0.21655   0.50395   0.54093   0.00000  Uiso   1.00
C957   C     0.49605   0.78345   0.45907   0.00000  Uiso   1.00
C958   C     0.49894   0.71634   0.54118   0.00000  Uiso   1.00
C959   C     0.21634   0.99894   0.45882   0.00000  Uiso   1.00
C960   C     0.28345   0.99605   0.54093   0.00000  Uiso   1.00
C961   C     0.25395   0.96655   0.95907   0.00000  Uiso   1.00
C962   C     0.25106   0.53366   0.04118   0.00000  Uiso   1.00
C963   C     0.03366   0.75106   0.95882   0.00000  Uiso   1.00
C964   C     0.46655   0.75395   0.04093   0.00000  Uiso   1.00
C965   C     0.24605   0.53345   0.95907   0.00000  Uiso   1.00
C966   C     0.24894   0.96634   0.04118   0.00000  Uiso   1.00
C967   C     0.46634   0.74894   0.95882   0.00000  Uiso   1.00
C968   C     0.03345   0.74605   0.04093   0.00000  Uiso   1.00
C969   C     0.09803   0.84803   0.25000   0.00000  Uiso   1.00
C970   C     0.40193   0.65194   0.75000   0.00000  Uiso   1.00
C971   C     0.15199   0.59801   0.25000   0.00000  Uiso   1.00
C972   C     0.34808   0.90192   0.75000   0.00000  Uiso   1.00
C973   C     0.40197   0.65197   0.25000   0.00000  Uiso   1.00
C974   C     0.09806   0.84807   0.75000   0.00000  Uiso   1.00
C975   C     0.34801   0.90199   0.25000   0.00000  Uiso   1.00
C976   C     0.15192   0.59808   0.75000   0.00000  Uiso   1.00
C977   C     0.09801   0.65199   0.75000   0.00000  Uiso   1.00
C978   C     0.40192   0.84808   0.25000   0.00000  Uiso   1.00
C979   C     0.15197   0.90197   0.75000   0.00000  Uiso   1.00
C980   C     0.34806   0.59807   0.25000   0.00000  Uiso   1.00
C981   C     0.40199   0.84801   0.75000   0.00000  Uiso   1.00
C982   C     0.09808   0.65192   0.25000   0.00000  Uiso   1.00
C983   C     0.34803   0.59803   0.75000   0.00000  Uiso   1.00
C984   C     0.15193   0.90194   0.25000   0.00000  Uiso   1.00
C985   C    -0.00000   0.75000   0.47963   0.00000  Uiso   1.00
C986   C    -0.00000   0.75000   0.52061   0.00000  Uiso   1.00
C987   C     0.25000   0.50000   0.47939   0.00000  Uiso   1.00
C988   C     0.25000   0.50000   0.52037   0.00000  Uiso   1.00
C989   C     0.25000   0.50000   0.97963   0.00000  Uiso   1.00
C990   C     0.25000   0.50000   0.02061   0.00000  Uiso   1.00
C991   C    -0.00000   0.75000   0.97939   0.00000  Uiso   1.00
C992   C    -0.00000   0.75000   0.02037   0.00000  Uiso   1.00
O993   O     0.25000   0.50000   0.25000   0.00000  Uiso   1.00
O994   O     0.25000   0.50000   0.75000   0.00000  Uiso   1.00
O995   O    -0.00000   0.75000   0.25000   0.00000  Uiso   1.00
O996   O    -0.00000   0.75000   0.75000   0.00000  Uiso   1.00
O997   O     0.25000   0.96964   0.33755   0.00000  Uiso   1.00
O998   O     0.25000   0.53037   0.66245   0.00000  Uiso   1.00
O999   O     0.03036   0.75000   0.33755   0.00000  Uiso   1.00
O1000  O     0.46963   0.75000   0.66245   0.00000  Uiso   1.00
O1001  O     0.25000   0.53037   0.33755   0.00000  Uiso   1.00
O1002  O     0.25000   0.96964   0.66245   0.00000  Uiso   1.00
O1003  O     0.46963   0.75000   0.33755   0.00000  Uiso   1.00
O1004  O     0.03036   0.75000   0.66245   0.00000  Uiso   1.00
O1005  O    -0.00000   0.71964   0.83755   0.00000  Uiso   1.00
O1006  O     0.00000   0.78037   0.16245   0.00000  Uiso   1.00
O1007  O     0.28036   0.50000   0.83755   0.00000  Uiso   1.00
O1008  O     0.21963   0.50000   0.16245   0.00000  Uiso   1.00
O1009  O     0.00000   0.78037   0.83755   0.00000  Uiso   1.00
O1010  O    -0.00000   0.71964   0.16245   0.00000  Uiso   1.00
O1011  O     0.21963   0.50000   0.83755   0.00000  Uiso   1.00
O1012  O     0.28036   0.50000   0.16245   0.00000  Uiso   1.00
O1013  O     0.20724   0.57308   0.27302   0.00000  Uiso   1.00
O1014  O     0.29275   0.92693   0.72698   0.00000  Uiso   1.00
O1015  O     0.42692   0.70725   0.27302   0.00000  Uiso   1.00
O1016  O     0.07307   0.79276   0.72698   0.00000  Uiso   1.00
O1017  O     0.29275   0.92693   0.27302   0.00000  Uiso   1.00
O1018  O     0.20724   0.57308   0.72698   0.00000  Uiso   1.00
O1019  O     0.07307   0.79276   0.27302   0.00000  Uiso   1.00
O1020  O     0.42692   0.70725   0.72698   0.00000  Uiso   1.00
O1021  O     0.20724   0.92693   0.72698   0.00000  Uiso   1.00
O1022  O     0.29275   0.57308   0.27302   0.00000  Uiso   1.00
O1023  O     0.42692   0.79276   0.72698   0.00000  Uiso   1.00
O1024  O     0.07307   0.70725   0.27302   0.00000  Uiso   1.00
O1025  O     0.29275   0.57308   0.72698   0.00000  Uiso   1.00
O1026  O     0.20724   0.92693   0.27302   0.00000  Uiso   1.00
O1027  O     0.07307   0.70725   0.72698   0.00000  Uiso   1.00
O1028  O     0.42692   0.79276   0.27302   0.00000  Uiso   1.00
O1029  O     0.45724   0.82308   0.77302   0.00000  Uiso   1.00
O1030  O     0.04275   0.67693   0.22698   0.00000  Uiso   1.00
O1031  O     0.17692   0.95725   0.77302   0.00000  Uiso   1.00
O1032  O     0.32307   0.54276   0.22698   0.00000  Uiso   1.00
O1033  O     0.04275   0.67693   0.77302   0.00000  Uiso   1.00
O1034  O     0.45724   0.82308   0.22698   0.00000  Uiso   1.00
O1035  O     0.32307   0.54276   0.77302   0.00000  Uiso   1.00
O1036  O     0.17692   0.95725   0.22698   0.00000  Uiso   1.00
O1037  O     0.45724   0.67693   0.22698   0.00000  Uiso   1.00
O1038  O     0.04275   0.82308   0.77302   0.00000  Uiso   1.00
O1039  O     0.17692   0.54276   0.22698   0.00000  Uiso   1.00
O1040  O     0.32307   0.95725   0.77302   0.00000  Uiso   1.00
O1041  O     0.04275   0.82308   0.22698   0.00000  Uiso   1.00
O1042  O     0.45724   0.67693   0.77302   0.00000  Uiso   1.00
O1043  O     0.32307   0.95725   0.22698   0.00000  Uiso   1.00
O1044  O     0.17692   0.54276   0.77302   0.00000  Uiso   1.00
Zn1045 Zn    0.20659   0.50000   0.21735   0.00000  Uiso   1.00
Zn1046 Zn    0.29340   0.50000   0.78265   0.00000  Uiso   1.00
Zn1047 Zn    0.00000   0.70660   0.21735   0.00000  Uiso   1.00
Zn1048 Zn    0.00000   0.79341   0.78265   0.00000  Uiso   1.00
Zn1049 Zn    0.29340   0.50000   0.21735   0.00000  Uiso   1.00
Zn1050 Zn    0.20659   0.50000   0.78265   0.00000  Uiso   1.00
Zn1051 Zn    0.00000   0.79341   0.21735   0.00000  Uiso   1.00
Zn1052 Zn   -0.00000   0.70660   0.78265   0.00000  Uiso   1.00
Zn1053 Zn    0.45659   0.75000   0.71735   0.00000  Uiso   1.00
Zn1054 Zn    0.04340   0.75000   0.28265   0.00000  Uiso   1.00
Zn1055 Zn    0.25000   0.95660   0.71735   0.00000  Uiso   1.00
Zn1056 Zn    0.25000   0.54341   0.28265   0.00000  Uiso   1.00
Zn1057 Zn    0.04340   0.75000   0.71735   0.00000  Uiso   1.00
Zn1058 Zn    0.45659   0.75000   0.28265   0.00000  Uiso   1.00
Zn1059 Zn    0.25000   0.54341   0.71735   0.00000  Uiso   1.00
Zn1060 Zn    0.25000   0.95660   0.28265   0.00000  Uiso   1.00
C1061  C     0.49827   0.64746   0.45911   0.00000  Uiso   1.00
O1062  O     0.47149   0.64273   0.43848   0.00000  Uiso   1.00
O1063  O     0.02442   0.61983   0.46309   0.00000  Uiso   1.00
H1064  H     0.01814   0.59722   0.44744   0.00000  Uiso   1.00
C1065  C     0.48887   0.85178   0.54149   0.00000  Uiso   1.00
O1066  O     0.00852   0.87856   0.53741   0.00000  Uiso   1.00
O1067  O     0.45868   0.85332   0.56631   0.00000  Uiso   1.00
H1068  H     0.45593   0.87807   0.57922   0.00000  Uiso   1.00
C1069  C     0.35178   0.98887   0.45851   0.00000  Uiso   1.00
O1070  O     0.37856   0.50853   0.46259   0.00000  Uiso   1.00
O1071  O     0.35332   0.95869   0.43369   0.00000  Uiso   1.00
H1072  H     0.37807   0.95593   0.42078   0.00000  Uiso   1.00
C1073  C     0.14746   0.99827   0.54089   0.00000  Uiso   1.00
O1074  O     0.14273   0.97149   0.56153   0.00000  Uiso   1.00
O1075  O     0.11983   0.52442   0.53691   0.00000  Uiso   1.00
H1076  H     0.09722   0.51814   0.55256   0.00000  Uiso   1.00
C1077  C     0.00173   0.85254   0.45911   0.00000  Uiso   1.00
O1078  O     0.02850   0.85727   0.43848   0.00000  Uiso   1.00
O1079  O     0.47558   0.88017   0.46309   0.00000  Uiso   1.00
H1080  H     0.48186   0.90278   0.44744   0.00000  Uiso   1.00
C1081  C     0.01113   0.64822   0.54149   0.00000  Uiso   1.00
O1082  O     0.49148   0.62144   0.53741   0.00000  Uiso   1.00
O1083  O     0.04132   0.64668   0.56631   0.00000  Uiso   1.00
H1084  H     0.04407   0.62193   0.57922   0.00000  Uiso   1.00
C1085  C     0.14822   0.51113   0.45851   0.00000  Uiso   1.00
O1086  O     0.12144   0.99147   0.46259   0.00000  Uiso   1.00
O1087  O     0.14668   0.54131   0.43369   0.00000  Uiso   1.00
H1088  H     0.12193   0.54407   0.42078   0.00000  Uiso   1.00
C1089  C     0.35254   0.50173   0.54089   0.00000  Uiso   1.00
O1090  O     0.35727   0.52851   0.56153   0.00000  Uiso   1.00
O1091  O     0.38017   0.97558   0.53691   0.00000  Uiso   1.00
H1092  H     0.40278   0.98186   0.55256   0.00000  Uiso   1.00
C1093  C     0.24827   0.89746   0.95911   0.00000  Uiso   1.00
O1094  O     0.22149   0.89273   0.93847   0.00000  Uiso   1.00
O1095  O     0.27442   0.86983   0.96309   0.00000  Uiso   1.00
H1096  H     0.26814   0.84722   0.94744   0.00000  Uiso   1.00
C1097  C     0.23887   0.60178   0.04149   0.00000  Uiso   1.00
O1098  O     0.25853   0.62856   0.03741   0.00000  Uiso   1.00
O1099  O     0.20869   0.60332   0.06631   0.00000  Uiso   1.00
H1100  H     0.20593   0.62807   0.07922   0.00000  Uiso   1.00
C1101  C     0.10178   0.73887   0.95851   0.00000  Uiso   1.00
O1102  O     0.12856   0.75852   0.96259   0.00000  Uiso   1.00
O1103  O     0.10332   0.70868   0.93369   0.00000  Uiso   1.00
H1104  H     0.12807   0.70593   0.92078   0.00000  Uiso   1.00
C1105  C     0.39746   0.74827   0.04089   0.00000  Uiso   1.00
O1106  O     0.39273   0.72149   0.06153   0.00000  Uiso   1.00
O1107  O     0.36983   0.77442   0.03691   0.00000  Uiso   1.00
H1108  H     0.34722   0.76814   0.05256   0.00000  Uiso   1.00
C1109  C     0.25173   0.60254   0.95911   0.00000  Uiso   1.00
O1110  O     0.27851   0.60727   0.93847   0.00000  Uiso   1.00
O1111  O     0.22558   0.63017   0.96309   0.00000  Uiso   1.00
H1112  H     0.23186   0.65278   0.94744   0.00000  Uiso   1.00
C1113  C     0.26113   0.89822   0.04149   0.00000  Uiso   1.00
O1114  O     0.24147   0.87144   0.03741   0.00000  Uiso   1.00
O1115  O     0.29131   0.89668   0.06631   0.00000  Uiso   1.00
H1116  H     0.29407   0.87193   0.07922   0.00000  Uiso   1.00
C1117  C     0.39822   0.76113   0.95851   0.00000  Uiso   1.00
O1118  O     0.37144   0.74148   0.96259   0.00000  Uiso   1.00
O1119  O     0.39668   0.79132   0.93369   0.00000  Uiso   1.00
H1120  H     0.37193   0.79407   0.92078   0.00000  Uiso   1.00
C1121  C     0.10254   0.75173   0.04089   0.00000  Uiso   1.00
O1122  O     0.10727   0.77851   0.06153   0.00000  Uiso   1.00
O1123  O     0.13017   0.72558   0.03691   0.00000  Uiso   1.00
H1124  H     0.15278   0.73186   0.05256   0.00000  Uiso   1.00
N1125  N     0.16467   0.88884   0.18060   0.00000  Uiso   1.00
H1126  H     0.19254   0.88582   0.18650   0.00000  Uiso   1.00
H1127  H     0.15983   0.91561   0.17138   0.00000  Uiso   1.00
N1128  N     0.33529   0.61112   0.81946   0.00000  Uiso   1.00
H1129  H     0.30740   0.61402   0.81358   0.00000  Uiso   1.00
H1130  H     0.34022   0.58440   0.82877   0.00000  Uiso   1.00
N1131  N     0.11147   0.66494   0.18077   0.00000  Uiso   1.00
H1132  H     0.11461   0.69277   0.18681   0.00000  Uiso   1.00
H1133  H     0.08467   0.66023   0.17158   0.00000  Uiso   1.00
N1134  N     0.38862   0.83498   0.81934   0.00000  Uiso   1.00
H1135  H     0.38571   0.80711   0.81333   0.00000  Uiso   1.00
H1136  H     0.41531   0.83984   0.82878   0.00000  Uiso   1.00
N1137  N     0.33532   0.61116   0.18060   0.00000  Uiso   1.00
H1138  H     0.30745   0.61419   0.18650   0.00000  Uiso   1.00
H1139  H     0.34017   0.58440   0.17138   0.00000  Uiso   1.00
N1140  N     0.16471   0.88888   0.81946   0.00000  Uiso   1.00
H1141  H     0.19260   0.88598   0.81358   0.00000  Uiso   1.00
H1142  H     0.15978   0.91560   0.82877   0.00000  Uiso   1.00
N1143  N     0.38853   0.83506   0.18077   0.00000  Uiso   1.00
H1144  H     0.38539   0.80723   0.18681   0.00000  Uiso   1.00
H1145  H     0.41533   0.83977   0.17158   0.00000  Uiso   1.00
N1146  N     0.11138   0.66503   0.81934   0.00000  Uiso   1.00
H1147  H     0.11430   0.69289   0.81333   0.00000  Uiso   1.00
H1148  H     0.08469   0.66016   0.82878   0.00000  Uiso   1.00
N1149  N     0.16495   0.61148   0.81923   0.00000  Uiso   1.00
H1150  H     0.19277   0.61461   0.81318   0.00000  Uiso   1.00
H1151  H     0.16024   0.58468   0.82842   0.00000  Uiso   1.00
N1152  N     0.33498   0.88862   0.18066   0.00000  Uiso   1.00
H1153  H     0.30711   0.88571   0.18667   0.00000  Uiso   1.00
H1154  H     0.33984   0.91531   0.17122   0.00000  Uiso   1.00
N1155  N     0.11116   0.83532   0.81940   0.00000  Uiso   1.00
H1156  H     0.11419   0.80745   0.81350   0.00000  Uiso   1.00
H1157  H     0.08440   0.84017   0.82862   0.00000  Uiso   1.00
N1158  N     0.38888   0.66471   0.18054   0.00000  Uiso   1.00
H1159  H     0.38598   0.69260   0.18642   0.00000  Uiso   1.00
H1160  H     0.41560   0.65978   0.17123   0.00000  Uiso   1.00
N1161  N     0.33506   0.88853   0.81923   0.00000  Uiso   1.00
H1162  H     0.30723   0.88539   0.81319   0.00000  Uiso   1.00
H1163  H     0.33977   0.91533   0.82842   0.00000  Uiso   1.00
N1164  N     0.16502   0.61138   0.18066   0.00000  Uiso   1.00
H1165  H     0.19289   0.61429   0.18667   0.00000  Uiso   1.00
H1166  H     0.16016   0.58469   0.17122   0.00000  Uiso   1.00
N1167  N     0.38884   0.66468   0.81940   0.00000  Uiso   1.00
H1168  H     0.38581   0.69255   0.81350   0.00000  Uiso   1.00
H1169  H     0.41560   0.65983   0.82862   0.00000  Uiso   1.00
N1170  N     0.11111   0.83529   0.18054   0.00000  Uiso   1.00
H1171  H     0.11402   0.80740   0.18641   0.00000  Uiso   1.00
H1172  H     0.08439   0.84023   0.17123   0.00000  Uiso   1.00
N1173  N     0.41468   0.63884   0.68060   0.00000  Uiso   1.00
H1174  H     0.44255   0.63581   0.68650   0.00000  Uiso   1.00
H1175  H     0.40983   0.66560   0.67138   0.00000  Uiso   1.00
N1176  N     0.08529   0.86111   0.31946   0.00000  Uiso   1.00
H1177  H     0.05740   0.86402   0.31359   0.00000  Uiso   1.00
H1178  H     0.09023   0.83439   0.32877   0.00000  Uiso   1.00
N1179  N     0.36147   0.91494   0.68077   0.00000  Uiso   1.00
H1180  H     0.36461   0.94277   0.68681   0.00000  Uiso   1.00
H1181  H     0.33467   0.91023   0.67158   0.00000  Uiso   1.00
N1182  N     0.13862   0.58498   0.31934   0.00000  Uiso   1.00
H1183  H     0.13571   0.55711   0.31333   0.00000  Uiso   1.00
H1184  H     0.16531   0.58984   0.32878   0.00000  Uiso   1.00
N1185  N     0.08532   0.86116   0.68060   0.00000  Uiso   1.00
H1186  H     0.05745   0.86419   0.68650   0.00000  Uiso   1.00
H1187  H     0.09017   0.83440   0.67138   0.00000  Uiso   1.00
N1188  N     0.41471   0.63888   0.31946   0.00000  Uiso   1.00
H1189  H     0.44260   0.63598   0.31358   0.00000  Uiso   1.00
H1190  H     0.40978   0.66560   0.32877   0.00000  Uiso   1.00
N1191  N     0.13852   0.58505   0.68077   0.00000  Uiso   1.00
H1192  H     0.13539   0.55723   0.68682   0.00000  Uiso   1.00
H1193  H     0.16532   0.58976   0.67158   0.00000  Uiso   1.00
N1194  N     0.36138   0.91502   0.31934   0.00000  Uiso   1.00
H1195  H     0.36429   0.94289   0.31333   0.00000  Uiso   1.00
H1196  H     0.33469   0.91016   0.32878   0.00000  Uiso   1.00
N1197  N     0.41494   0.86147   0.31923   0.00000  Uiso   1.00
H1198  H     0.44277   0.86461   0.31319   0.00000  Uiso   1.00
H1199  H     0.41023   0.83467   0.32842   0.00000  Uiso   1.00
N1200  N     0.08497   0.63862   0.68067   0.00000  Uiso   1.00
H1201  H     0.05711   0.63570   0.68667   0.00000  Uiso   1.00
H1202  H     0.08984   0.66531   0.67122   0.00000  Uiso   1.00
N1203  N     0.36116   0.58532   0.31940   0.00000  Uiso   1.00
H1204  H     0.36419   0.55745   0.31350   0.00000  Uiso   1.00
H1205  H     0.33440   0.59017   0.32862   0.00000  Uiso   1.00
N1206  N     0.13888   0.91472   0.68054   0.00000  Uiso   1.00
H1207  H     0.13598   0.94260   0.68642   0.00000  Uiso   1.00
H1208  H     0.16560   0.90978   0.67123   0.00000  Uiso   1.00
N1209  N     0.08506   0.63853   0.31923   0.00000  Uiso   1.00
H1210  H     0.05723   0.63539   0.31319   0.00000  Uiso   1.00
H1211  H     0.08977   0.66533   0.32842   0.00000  Uiso   1.00
N1212  N     0.41502   0.86138   0.68066   0.00000  Uiso   1.00
H1213  H     0.44289   0.86429   0.68667   0.00000  Uiso   1.00
H1214  H     0.41016   0.83469   0.67122   0.00000  Uiso   1.00
N1215  N     0.13884   0.91468   0.31940   0.00000  Uiso   1.00
H1216  H     0.13582   0.94254   0.31350   0.00000  Uiso   1.00
H1217  H     0.16561   0.90983   0.32862   0.00000  Uiso   1.00
N1218  N     0.36111   0.58529   0.68054   0.00000  Uiso   1.00
H1219  H     0.36402   0.55740   0.68642   0.00000  Uiso   1.00
H1220  H     0.33439   0.59022   0.67123   0.00000  Uiso   1.00
C1221  C     0.47131   0.81204   0.39746   0.00000  Uiso   1.00
O1222  O     0.48444   0.82511   0.36792   0.00000  Uiso   1.00
O1223  O     0.43847   0.82568   0.41233   0.00000  Uiso   1.00
H1224  H     0.42876   0.84716   0.39690   0.00000  Uiso   1.00
C1225  C     0.47642   0.68583   0.60280   0.00000  Uiso   1.00
O1226  O     0.49012   0.67427   0.63277   0.00000  Uiso   1.00
O1227  O     0.44511   0.66924   0.58762   0.00000  Uiso   1.00
H1228  H     0.43686   0.64741   0.60346   0.00000  Uiso   1.00
C1229  C     0.18583   0.97642   0.39720   0.00000  Uiso   1.00
O1230  O     0.17427   0.99012   0.36723   0.00000  Uiso   1.00
O1231  O     0.16924   0.94510   0.41238   0.00000  Uiso   1.00
H1232  H     0.14741   0.93686   0.39654   0.00000  Uiso   1.00
C1233  C     0.31204   0.97131   0.60254   0.00000  Uiso   1.00
O1234  O     0.32511   0.98444   0.63209   0.00000  Uiso   1.00
O1235  O     0.32569   0.93847   0.58767   0.00000  Uiso   1.00
H1236  H     0.34716   0.92876   0.60310   0.00000  Uiso   1.00
C1237  C     0.02869   0.68796   0.39746   0.00000  Uiso   1.00
O1238  O     0.01556   0.67489   0.36792   0.00000  Uiso   1.00
O1239  O     0.06153   0.67432   0.41233   0.00000  Uiso   1.00
H1240  H     0.07124   0.65284   0.39690   0.00000  Uiso   1.00
C1241  C     0.02357   0.81417   0.60280   0.00000  Uiso   1.00
O1242  O     0.00988   0.82573   0.63277   0.00000  Uiso   1.00
O1243  O     0.05489   0.83076   0.58762   0.00000  Uiso   1.00
H1244  H     0.06314   0.85259   0.60346   0.00000  Uiso   1.00
C1245  C     0.31417   0.52358   0.39720   0.00000  Uiso   1.00
O1246  O     0.32573   0.50988   0.36723   0.00000  Uiso   1.00
O1247  O     0.33076   0.55490   0.41238   0.00000  Uiso   1.00
H1248  H     0.35259   0.56314   0.39654   0.00000  Uiso   1.00
C1249  C     0.18796   0.52869   0.60254   0.00000  Uiso   1.00
O1250  O     0.17489   0.51556   0.63209   0.00000  Uiso   1.00
O1251  O     0.17431   0.56153   0.58767   0.00000  Uiso   1.00
H1252  H     0.15284   0.57124   0.60310   0.00000  Uiso   1.00
C1253  C     0.22131   0.56204   0.89746   0.00000  Uiso   1.00
O1254  O     0.23444   0.57511   0.86792   0.00000  Uiso   1.00
O1255  O     0.18847   0.57569   0.91233   0.00000  Uiso   1.00
H1256  H     0.17876   0.59716   0.89690   0.00000  Uiso   1.00
C1257  C     0.22642   0.93583   0.10280   0.00000  Uiso   1.00
O1258  O     0.24012   0.92427   0.13277   0.00000  Uiso   1.00
O1259  O     0.19510   0.91924   0.08762   0.00000  Uiso   1.00
H1260  H     0.18686   0.89741   0.10346   0.00000  Uiso   1.00
C1261  C     0.43583   0.72642   0.89720   0.00000  Uiso   1.00
O1262  O     0.42427   0.74012   0.86723   0.00000  Uiso   1.00
O1263  O     0.41924   0.69511   0.91238   0.00000  Uiso   1.00
H1264  H     0.39741   0.68686   0.89654   0.00000  Uiso   1.00
C1265  C     0.06204   0.72131   0.10254   0.00000  Uiso   1.00
O1266  O     0.07511   0.73444   0.13209   0.00000  Uiso   1.00
O1267  O     0.07568   0.68847   0.08768   0.00000  Uiso   1.00
H1268  H     0.09716   0.67876   0.10310   0.00000  Uiso   1.00
C1269  C     0.27869   0.93796   0.89746   0.00000  Uiso   1.00
O1270  O     0.26556   0.92489   0.86792   0.00000  Uiso   1.00
O1271  O     0.31153   0.92431   0.91233   0.00000  Uiso   1.00
H1272  H     0.32124   0.90284   0.89690   0.00000  Uiso   1.00
C1273  C     0.27358   0.56417   0.10280   0.00000  Uiso   1.00
O1274  O     0.25988   0.57573   0.13277   0.00000  Uiso   1.00
O1275  O     0.30489   0.58076   0.08762   0.00000  Uiso   1.00
H1276  H     0.31314   0.60259   0.10346   0.00000  Uiso   1.00
C1277  C     0.06417   0.77358   0.89720   0.00000  Uiso   1.00
O1278  O     0.07573   0.75988   0.86723   0.00000  Uiso   1.00
O1279  O     0.08076   0.80489   0.91238   0.00000  Uiso   1.00
H1280  H     0.10259   0.81314   0.89654   0.00000  Uiso   1.00
C1281  C     0.43796   0.77869   0.10254   0.00000  Uiso   1.00
O1282  O     0.42489   0.76556   0.13209   0.00000  Uiso   1.00
O1283  O     0.42432   0.81153   0.08768   0.00000  Uiso   1.00
H1284  H     0.40284   0.82124   0.10310   0.00000  Uiso   1.00
C1285  C     0.99030   0.78192   0.41838   0.00000  Uiso   1.00
C1286  C     0.99302   0.71737   0.58185   0.00000  Uiso   1.00
C1287  C     0.71737   0.99302   0.41815   0.00000  Uiso   1.00
C1288  C     0.78192   0.99030   0.58163   0.00000  Uiso   1.00
C1289  C     0.50970   0.71808   0.41838   0.00000  Uiso   1.00
C1290  C     0.50698   0.78263   0.58185   0.00000  Uiso   1.00
C1291  C     0.78263   0.50698   0.41815   0.00000  Uiso   1.00
C1292  C     0.71808   0.50970   0.58163   0.00000  Uiso   1.00
C1293  C     0.74030   0.53192   0.91838   0.00000  Uiso   1.00
C1294  C     0.74302   0.96737   0.08185   0.00000  Uiso   1.00
C1295  C     0.96737   0.74302   0.91815   0.00000  Uiso   1.00
C1296  C     0.53192   0.74030   0.08163   0.00000  Uiso   1.00
C1297  C     0.75970   0.96808   0.91838   0.00000  Uiso   1.00
C1298  C     0.75698   0.53263   0.08185   0.00000  Uiso   1.00
C1299  C     0.53263   0.75698   0.91815   0.00000  Uiso   1.00
C1300  C     0.96808   0.75970   0.08163   0.00000  Uiso   1.00
C1301  C     0.50000   0.75000   0.39815   0.00000  Uiso   1.00
C1302  C     0.50000   0.75000   0.60201   0.00000  Uiso   1.00
C1303  C     0.75000   0.50000   0.39799   0.00000  Uiso   1.00
C1304  C     0.75000   0.50000   0.60185   0.00000  Uiso   1.00
C1305  C     0.75000   0.50000   0.89815   0.00000  Uiso   1.00
C1306  C     0.75000   0.50000   0.10201   0.00000  Uiso   1.00
C1307  C     0.50000   0.75000   0.89799   0.00000  Uiso   1.00
C1308  C     0.50000   0.75000   0.10185   0.00000  Uiso   1.00
C1309  C     0.50304   0.68288   0.47973   0.00000  Uiso   1.00
C1310  C     0.99716   0.81712   0.52061   0.00000  Uiso   1.00
C1311  C     0.81712   0.99716   0.47939   0.00000  Uiso   1.00
C1312  C     0.68288   0.50304   0.52027   0.00000  Uiso   1.00
C1313  C     0.99696   0.81712   0.47973   0.00000  Uiso   1.00
C1314  C     0.50284   0.68288   0.52061   0.00000  Uiso   1.00
C1315  C     0.68288   0.50284   0.47939   0.00000  Uiso   1.00
C1316  C     0.81712   0.99696   0.52027   0.00000  Uiso   1.00
C1317  C     0.75304   0.93288   0.97973   0.00000  Uiso   1.00
C1318  C     0.74716   0.56712   0.02061   0.00000  Uiso   1.00
C1319  C     0.56712   0.74716   0.97939   0.00000  Uiso   1.00
C1320  C     0.93288   0.75304   0.02027   0.00000  Uiso   1.00
C1321  C     0.74696   0.56712   0.97973   0.00000  Uiso   1.00
C1322  C     0.75284   0.93288   0.02061   0.00000  Uiso   1.00
C1323  C     0.93288   0.75284   0.97939   0.00000  Uiso   1.00
C1324  C     0.56712   0.74696   0.02027   0.00000  Uiso   1.00
C1325  C     0.75000   0.50000   0.35572   0.00000  Uiso   1.00
C1326  C     0.75000   0.50000   0.64423   0.00000  Uiso   1.00
C1327  C     0.50000   0.75000   0.35577   0.00000  Uiso   1.00
C1328  C     0.50000   0.75000   0.64428   0.00000  Uiso   1.00
C1329  C     0.50000   0.75000   0.85572   0.00000  Uiso   1.00
C1330  C     0.50000   0.75000   0.14423   0.00000  Uiso   1.00
C1331  C     0.75000   0.50000   0.85577   0.00000  Uiso   1.00
C1332  C     0.75000   0.50000   0.14428   0.00000  Uiso   1.00
C1333  C     0.68002   0.56998   0.25000   0.00000  Uiso   1.00
C1334  C     0.82000   0.93000   0.75000   0.00000  Uiso   1.00
C1335  C     0.93002   0.68002   0.25000   0.00000  Uiso   1.00
C1336  C     0.56999   0.81999   0.75000   0.00000  Uiso   1.00
C1337  C     0.81998   0.93002   0.25000   0.00000  Uiso   1.00
C1338  C     0.68000   0.57000   0.75000   0.00000  Uiso   1.00
C1339  C     0.56998   0.81998   0.25000   0.00000  Uiso   1.00
C1340  C     0.93001   0.68001   0.75000   0.00000  Uiso   1.00
C1341  C     0.68002   0.93002   0.75000   0.00000  Uiso   1.00
C1342  C     0.81999   0.56999   0.25000   0.00000  Uiso   1.00
C1343  C     0.93002   0.81998   0.75000   0.00000  Uiso   1.00
C1344  C     0.57000   0.68000   0.25000   0.00000  Uiso   1.00
C1345  C     0.81998   0.56998   0.75000   0.00000  Uiso   1.00
C1346  C     0.68001   0.93001   0.25000   0.00000  Uiso   1.00
C1347  C     0.56998   0.68002   0.75000   0.00000  Uiso   1.00
C1348  C     0.93000   0.82000   0.25000   0.00000  Uiso   1.00
C1349  C     0.64448   0.88241   0.21563   0.00000  Uiso   1.00
C1350  C     0.85548   0.61755   0.78439   0.00000  Uiso   1.00
C1351  C     0.61777   0.64461   0.21571   0.00000  Uiso   1.00
C1352  C     0.88233   0.85531   0.78432   0.00000  Uiso   1.00
C1353  C     0.85552   0.61759   0.21563   0.00000  Uiso   1.00
C1354  C     0.64452   0.88245   0.78439   0.00000  Uiso   1.00
C1355  C     0.88223   0.85539   0.21571   0.00000  Uiso   1.00
C1356  C     0.61768   0.64469   0.78432   0.00000  Uiso   1.00
C1357  C     0.64461   0.61777   0.78429   0.00000  Uiso   1.00
C1358  C     0.85531   0.88233   0.21568   0.00000  Uiso   1.00
C1359  C     0.61759   0.85552   0.78437   0.00000  Uiso   1.00
C1360  C     0.88245   0.64452   0.21562   0.00000  Uiso   1.00
C1361  C     0.85539   0.88223   0.78429   0.00000  Uiso   1.00
C1362  C     0.64469   0.61767   0.21568   0.00000  Uiso   1.00
C1363  C     0.88241   0.64448   0.78437   0.00000  Uiso   1.00
C1364  C     0.61755   0.85548   0.21561   0.00000  Uiso   1.00
C1365  C     0.89448   0.63241   0.71563   0.00000  Uiso   1.00
C1366  C     0.60548   0.86755   0.28439   0.00000  Uiso   1.00
C1367  C     0.86777   0.89461   0.71571   0.00000  Uiso   1.00
C1368  C     0.63233   0.60531   0.28432   0.00000  Uiso   1.00
C1369  C     0.60552   0.86759   0.71563   0.00000  Uiso   1.00
C1370  C     0.89452   0.63245   0.28439   0.00000  Uiso   1.00
C1371  C     0.63223   0.60539   0.71571   0.00000  Uiso   1.00
C1372  C     0.86767   0.89469   0.28432   0.00000  Uiso   1.00
C1373  C     0.89461   0.86777   0.28429   0.00000  Uiso   1.00
C1374  C     0.60531   0.63232   0.71568   0.00000  Uiso   1.00
C1375  C     0.86759   0.60552   0.28437   0.00000  Uiso   1.00
C1376  C     0.63245   0.89452   0.71562   0.00000  Uiso   1.00
C1377  C     0.60539   0.63223   0.28429   0.00000  Uiso   1.00
C1378  C     0.89469   0.86767   0.71568   0.00000  Uiso   1.00
C1379  C     0.63241   0.89448   0.28437   0.00000  Uiso   1.00
C1380  C     0.86755   0.60548   0.71562   0.00000  Uiso   1.00
C1381  C     0.50395   0.71655   0.45907   0.00000  Uiso   1.00
C1382  C     0.50106   0.78366   0.54118   0.00000  Uiso   1.00
C1383  C     0.78366   0.50106   0.45882   0.00000  Uiso   1.00
C1384  C     0.71655   0.50395   0.54093   0.00000  Uiso   1.00
C1385  C     0.99605   0.78345   0.45907   0.00000  Uiso   1.00
C1386  C     0.99894   0.71634   0.54118   0.00000  Uiso   1.00
C1387  C     0.71634   0.99894   0.45882   0.00000  Uiso   1.00
C1388  C     0.78345   0.99605   0.54093   0.00000  Uiso   1.00
C1389  C     0.75395   0.96655   0.95907   0.00000  Uiso   1.00
C1390  C     0.75106   0.53366   0.04118   0.00000  Uiso   1.00
C1391  C     0.53366   0.75106   0.95882   0.00000  Uiso   1.00
C1392  C     0.96655   0.75395   0.04093   0.00000  Uiso   1.00
C1393  C     0.74605   0.53345   0.95907   0.00000  Uiso   1.00
C1394  C     0.74894   0.96634   0.04118   0.00000  Uiso   1.00
C1395  C     0.96634   0.74894   0.95882   0.00000  Uiso   1.00
C1396  C     0.53345   0.74605   0.04093   0.00000  Uiso   1.00
C1397  C     0.59803   0.84803   0.25000   0.00000  Uiso   1.00
C1398  C     0.90193   0.65194   0.75000   0.00000  Uiso   1.00
C1399  C     0.65199   0.59801   0.25000   0.00000  Uiso   1.00
C1400  C     0.84808   0.90192   0.75000   0.00000  Uiso   1.00
C1401  C     0.90197   0.65197   0.25000   0.00000  Uiso   1.00
C1402  C     0.59806   0.84807   0.75000   0.00000  Uiso   1.00
C1403  C     0.84801   0.90199   0.25000   0.00000  Uiso   1.00
C1404  C     0.65192   0.59808   0.75000   0.00000  Uiso   1.00
C1405  C     0.59801   0.65199   0.75000   0.00000  Uiso   1.00
C1406  C     0.90192   0.84808   0.25000   0.00000  Uiso   1.00
C1407  C     0.65197   0.90197   0.75000   0.00000  Uiso   1.00
C1408  C     0.84806   0.59807   0.25000   0.00000  Uiso   1.00
C1409  C     0.90199   0.84801   0.75000   0.00000  Uiso   1.00
C1410  C     0.59808   0.65192   0.25000   0.00000  Uiso   1.00
C1411  C     0.84803   0.59803   0.75000   0.00000  Uiso   1.00
C1412  C     0.65193   0.90194   0.25000   0.00000  Uiso   1.00
C1413  C     0.50000   0.75000   0.47963   0.00000  Uiso   1.00
C1414  C     0.50000   0.75000   0.52061   0.00000  Uiso   1.00
C1415  C     0.75000   0.50000   0.47939   0.00000  Uiso   1.00
C1416  C     0.75000   0.50000   0.52037   0.00000  Uiso   1.00
C1417  C     0.75000   0.50000   0.97963   0.00000  Uiso   1.00
C1418  C     0.75000   0.50000   0.02061   0.00000  Uiso   1.00
C1419  C     0.50000   0.75000   0.97939   0.00000  Uiso   1.00
C1420  C     0.50000   0.75000   0.02037   0.00000  Uiso   1.00
O1421  O     0.75000   0.50000   0.25000   0.00000  Uiso   1.00
O1422  O     0.75000   0.50000   0.75000   0.00000  Uiso   1.00
O1423  O     0.50000   0.75000   0.25000   0.00000  Uiso   1.00
O1424  O     0.50000   0.75000   0.75000   0.00000  Uiso   1.00
O1425  O     0.75000   0.96964   0.33755   0.00000  Uiso   1.00
O1426  O     0.75000   0.53037   0.66245   0.00000  Uiso   1.00
O1427  O     0.53036   0.75000   0.33755   0.00000  Uiso   1.00
O1428  O     0.96963   0.75000   0.66245   0.00000  Uiso   1.00
O1429  O     0.75000   0.53037   0.33755   0.00000  Uiso   1.00
O1430  O     0.75000   0.96964   0.66245   0.00000  Uiso   1.00
O1431  O     0.96963   0.75000   0.33755   0.00000  Uiso   1.00
O1432  O     0.53036   0.75000   0.66245   0.00000  Uiso   1.00
O1433  O     0.50000   0.71964   0.83755   0.00000  Uiso   1.00
O1434  O     0.50000   0.78037   0.16245   0.00000  Uiso   1.00
O1435  O     0.78036   0.50000   0.83755   0.00000  Uiso   1.00
O1436  O     0.71963   0.50000   0.16245   0.00000  Uiso   1.00
O1437  O     0.50000   0.78037   0.83755   0.00000  Uiso   1.00
O1438  O     0.50000   0.71964   0.16245   0.00000  Uiso   1.00
O1439  O     0.71963   0.50000   0.83755   0.00000  Uiso   1.00
O1440  O     0.78036   0.50000   0.16245   0.00000  Uiso   1.00
O1441  O     0.70724   0.57308   0.27302   0.00000  Uiso   1.00
O1442  O     0.79275   0.92693   0.72698   0.00000  Uiso   1.00
O1443  O     0.92692   0.70725   0.27302   0.00000  Uiso   1.00
O1444  O     0.57307   0.79276   0.72698   0.00000  Uiso   1.00
O1445  O     0.79275   0.92693   0.27302   0.00000  Uiso   1.00
O1446  O     0.70724   0.57308   0.72698   0.00000  Uiso   1.00
O1447  O     0.57307   0.79276   0.27302   0.00000  Uiso   1.00
O1448  O     0.92692   0.70725   0.72698   0.00000  Uiso   1.00
O1449  O     0.70724   0.92693   0.72698   0.00000  Uiso   1.00
O1450  O     0.79275   0.57308   0.27302   0.00000  Uiso   1.00
O1451  O     0.92692   0.79276   0.72698   0.00000  Uiso   1.00
O1452  O     0.57307   0.70725   0.27302   0.00000  Uiso   1.00
O1453  O     0.79275   0.57308   0.72698   0.00000  Uiso   1.00
O1454  O     0.70724   0.92693   0.27302   0.00000  Uiso   1.00
O1455  O     0.57307   0.70725   0.72698   0.00000  Uiso   1.00
O1456  O     0.92692   0.79276   0.27302   0.00000  Uiso   1.00
O1457  O     0.95724   0.82308   0.77302   0.00000  Uiso   1.00
O1458  O     0.54275   0.67693   0.22698   0.00000  Uiso   1.00
O1459  O     0.67692   0.95725   0.77302   0.00000  Uiso   1.00
O1460  O     0.82307   0.54276   0.22698   0.00000  Uiso   1.00
O1461  O     0.54275   0.67693   0.77302   0.00000  Uiso   1.00
O1462  O     0.95724   0.82308   0.22698   0.00000  Uiso   1.00
O1463  O     0.82307   0.54276   0.77302   0.00000  Uiso   1.00
O1464  O     0.67692   0.95725   0.22698   0.00000  Uiso   1.00
O1465  O     0.95724   0.67693   0.22698   0.00000  Uiso   1.00
O1466  O     0.54275   0.82308   0.77302   0.00000  Uiso   1.00
O1467  O     0.67692   0.54276   0.22698   0.00000  Uiso   1.00
O1468  O     0.82307   0.95725   0.77302   0.00000  Uiso   1.00
O1469  O     0.54275   0.82308   0.22698   0.00000  Uiso   1.00
O1470  O     0.95724   0.67693   0.77302   0.00000  Uiso   1.00
O1471  O     0.82307   0.95725   0.22698   0.00000  Uiso   1.00
O1472  O     0.67692   0.54276   0.77302   0.00000  Uiso   1.00
Zn1473 Zn    0.70659   0.50000   0.21735   0.00000  Uiso   1.00
Zn1474 Zn    0.79340   0.50000   0.78265   0.00000  Uiso   1.00
Zn1475 Zn    0.50000   0.70660   0.21735   0.00000  Uiso   1.00
Zn1476 Zn    0.50000   0.79341   0.78265   0.00000  Uiso   1.00
Zn1477 Zn    0.79340   0.50000   0.21735   0.00000  Uiso   1.00
Zn1478 Zn    0.70659   0.50000   0.78265   0.00000  Uiso   1.00
Zn1479 Zn    0.50000   0.79341   0.21735   0.00000  Uiso   1.00
Zn1480 Zn    0.50000   0.70660   0.78265   0.00000  Uiso   1.00
Zn1481 Zn    0.95659   0.75000   0.71735   0.00000  Uiso   1.00
Zn1482 Zn    0.54340   0.75000   0.28265   0.00000  Uiso   1.00
Zn1483 Zn    0.75000   0.95660   0.71735   0.00000  Uiso   1.00
Zn1484 Zn    0.75000   0.54341   0.28265   0.00000  Uiso   1.00
Zn1485 Zn    0.54340   0.75000   0.71735   0.00000  Uiso   1.00
Zn1486 Zn    0.95659   0.75000   0.28265   0.00000  Uiso   1.00
Zn1487 Zn    0.75000   0.54341   0.71735   0.00000  Uiso   1.00
Zn1488 Zn    0.75000   0.95660   0.28265   0.00000  Uiso   1.00
C1489  C     0.99827   0.64746   0.45911   0.00000  Uiso   1.00
O1490  O     0.97149   0.64273   0.43848   0.00000  Uiso   1.00
O1491  O     0.52442   0.61983   0.46309   0.00000  Uiso   1.00
H1492  H     0.51814   0.59722   0.44744   0.00000  Uiso   1.00
C1493  C     0.98887   0.85178   0.54149   0.00000  Uiso   1.00
O1494  O     0.50852   0.87856   0.53741   0.00000  Uiso   1.00
O1495  O     0.95868   0.85332   0.56631   0.00000  Uiso   1.00
H1496  H     0.95593   0.87807   0.57922   0.00000  Uiso   1.00
C1497  C     0.85178   0.98887   0.45851   0.00000  Uiso   1.00
O1498  O     0.87856   0.50853   0.46259   0.00000  Uiso   1.00
O1499  O     0.85332   0.95869   0.43369   0.00000  Uiso   1.00
H1500  H     0.87807   0.95593   0.42078   0.00000  Uiso   1.00
C1501  C     0.64746   0.99827   0.54089   0.00000  Uiso   1.00
O1502  O     0.64273   0.97149   0.56153   0.00000  Uiso   1.00
O1503  O     0.61983   0.52442   0.53691   0.00000  Uiso   1.00
H1504  H     0.59722   0.51814   0.55256   0.00000  Uiso   1.00
C1505  C     0.50173   0.85254   0.45911   0.00000  Uiso   1.00
O1506  O     0.52850   0.85727   0.43848   0.00000  Uiso   1.00
O1507  O     0.97558   0.88017   0.46309   0.00000  Uiso   1.00
H1508  H     0.98186   0.90278   0.44744   0.00000  Uiso   1.00
C1509  C     0.51113   0.64822   0.54149   0.00000  Uiso   1.00
O1510  O     0.99148   0.62144   0.53741   0.00000  Uiso   1.00
O1511  O     0.54132   0.64668   0.56631   0.00000  Uiso   1.00
H1512  H     0.54407   0.62193   0.57922   0.00000  Uiso   1.00
C1513  C     0.64822   0.51113   0.45851   0.00000  Uiso   1.00
O1514  O     0.62144   0.99147   0.46259   0.00000  Uiso   1.00
O1515  O     0.64668   0.54131   0.43369   0.00000  Uiso   1.00
H1516  H     0.62193   0.54407   0.42078   0.00000  Uiso   1.00
C1517  C     0.85254   0.50173   0.54089   0.00000  Uiso   1.00
O1518  O     0.85727   0.52851   0.56153   0.00000  Uiso   1.00
O1519  O     0.88017   0.97558   0.53691   0.00000  Uiso   1.00
H1520  H     0.90278   0.98186   0.55256   0.00000  Uiso   1.00
C1521  C     0.74827   0.89746   0.95911   0.00000  Uiso   1.00
O1522  O     0.72149   0.89273   0.93847   0.00000  Uiso   1.00
O1523  O     0.77442   0.86983   0.96309   0.00000  Uiso   1.00
H1524  H     0.76814   0.84722   0.94744   0.00000  Uiso   1.00
C1525  C     0.73887   0.60178   0.04149   0.00000  Uiso   1.00
O1526  O     0.75853   0.62856   0.03741   0.00000  Uiso   1.00
O1527  O     0.70869   0.60332   0.06631   0.00000  Uiso   1.00
H1528  H     0.70593   0.62807   0.07922   0.00000  Uiso   1.00
C1529  C     0.60178   0.73887   0.95851   0.00000  Uiso   1.00
O1530  O     0.62856   0.75852   0.96259   0.00000  Uiso   1.00
O1531  O     0.60332   0.70868   0.93369   0.00000  Uiso   1.00
H1532  H     0.62807   0.70593   0.92078   0.00000  Uiso   1.00
C1533  C     0.89746   0.74827   0.04089   0.00000  Uiso   1.00
O1534  O     0.89273   0.72149   0.06153   0.00000  Uiso   1.00
O1535  O     0.86983   0.77442   0.03691   0.00000  Uiso   1.00
H1536  H     0.84722   0.76814   0.05256   0.00000  Uiso   1.00
C1537  C     0.75173   0.60254   0.95911   0.00000  Uiso   1.00
O1538  O     0.77851   0.60727   0.93847   0.00000  Uiso   1.00
O1539  O     0.72558   0.63017   0.96309   0.00000  Uiso   1.00
H1540  H     0.73186   0.65278   0.94744   0.00000  Uiso   1.00
C1541  C     0.76113   0.89822   0.04149   0.00000  Uiso   1.00
O1542  O     0.74147   0.87144   0.03741   0.00000  Uiso   1.00
O1543  O     0.79131   0.89668   0.06631   0.00000  Uiso   1.00
H1544  H     0.79407   0.87193   0.07922   0.00000  Uiso   1.00
C1545  C     0.89822   0.76113   0.95851   0.00000  Uiso   1.00
O1546  O     0.87144   0.74148   0.96259   0.00000  Uiso   1.00
O1547  O     0.89668   0.79132   0.93369   0.00000  Uiso   1.00
H1548  H     0.87193   0.79407   0.92078   0.00000  Uiso   1.00
C1549  C     0.60254   0.75173   0.04089   0.00000  Uiso   1.00
O1550  O     0.60727   0.77851   0.06153   0.00000  Uiso   1.00
O1551  O     0.63017   0.72558   0.03691   0.00000  Uiso   1.00
H1552  H     0.65278   0.73186   0.05256   0.00000  Uiso   1.00
N1553  N     0.66467   0.88884   0.18060   0.00000  Uiso   1.00
H1554  H     0.69254   0.88582   0.18650   0.00000  Uiso   1.00
H1555  H     0.65983   0.91561   0.17138   0.00000  Uiso   1.00
N1556  N     0.83529   0.61112   0.81946   0.00000  Uiso   1.00
H1557  H     0.80740   0.61402   0.81358   0.00000  Uiso   1.00
H1558  H     0.84022   0.58440   0.82877   0.00000  Uiso   1.00
N1559  N     0.61147   0.66494   0.18077   0.00000  Uiso   1.00
H1560  H     0.61461   0.69277   0.18681   0.00000  Uiso   1.00
H1561  H     0.58467   0.66023   0.17158   0.00000  Uiso   1.00
N1562  N     0.88862   0.83498   0.81934   0.00000  Uiso   1.00
H1563  H     0.88571   0.80711   0.81333   0.00000  Uiso   1.00
H1564  H     0.91531   0.83984   0.82878   0.00000  Uiso   1.00
N1565  N     0.83532   0.61116   0.18060   0.00000  Uiso   1.00
H1566  H     0.80745   0.61419   0.18650   0.00000  Uiso   1.00
H1567  H     0.84017   0.58440   0.17138   0.00000  Uiso   1.00
N1568  N     0.66471   0.88888   0.81946   0.00000  Uiso   1.00
H1569  H     0.69260   0.88598   0.81358   0.00000  Uiso   1.00
H1570  H     0.65978   0.91560   0.82877   0.00000  Uiso   1.00
N1571  N     0.88853   0.83506   0.18077   0.00000  Uiso   1.00
H1572  H     0.88539   0.80723   0.18681   0.00000  Uiso   1.00
H1573  H     0.91533   0.83977   0.17158   0.00000  Uiso   1.00
N1574  N     0.61138   0.66503   0.81934   0.00000  Uiso   1.00
H1575  H     0.61430   0.69289   0.81333   0.00000  Uiso   1.00
H1576  H     0.58469   0.66016   0.82878   0.00000  Uiso   1.00
N1577  N     0.66495   0.61148   0.81923   0.00000  Uiso   1.00
H1578  H     0.69277   0.61461   0.81318   0.00000  Uiso   1.00
H1579  H     0.66024   0.58468   0.82842   0.00000  Uiso   1.00
N1580  N     0.83498   0.88862   0.18066   0.00000  Uiso   1.00
H1581  H     0.80711   0.88571   0.18667   0.00000  Uiso   1.00
H1582  H     0.83984   0.91531   0.17122   0.00000  Uiso   1.00
N1583  N     0.61116   0.83532   0.81940   0.00000  Uiso   1.00
H1584  H     0.61419   0.80745   0.81350   0.00000  Uiso   1.00
H1585  H     0.58440   0.84017   0.82862   0.00000  Uiso   1.00
N1586  N     0.88888   0.66471   0.18054   0.00000  Uiso   1.00
H1587  H     0.88598   0.69260   0.18642   0.00000  Uiso   1.00
H1588  H     0.91560   0.65978   0.17123   0.00000  Uiso   1.00
N1589  N     0.83506   0.88853   0.81923   0.00000  Uiso   1.00
H1590  H     0.80723   0.88539   0.81319   0.00000  Uiso   1.00
H1591  H     0.83977   0.91533   0.82842   0.00000  Uiso   1.00
N1592  N     0.66502   0.61138   0.18066   0.00000  Uiso   1.00
H1593  H     0.69289   0.61429   0.18667   0.00000  Uiso   1.00
H1594  H     0.66016   0.58469   0.17122   0.00000  Uiso   1.00
N1595  N     0.88884   0.66468   0.81940   0.00000  Uiso   1.00
H1596  H     0.88581   0.69255   0.81350   0.00000  Uiso   1.00
H1597  H     0.91560   0.65983   0.82862   0.00000  Uiso   1.00
N1598  N     0.61111   0.83529   0.18054   0.00000  Uiso   1.00
H1599  H     0.61402   0.80740   0.18641   0.00000  Uiso   1.00
H1600  H     0.58439   0.84023   0.17123   0.00000  Uiso   1.00
N1601  N     0.91468   0.63884   0.68060   0.00000  Uiso   1.00
H1602  H     0.94255   0.63581   0.68650   0.00000  Uiso   1.00
H1603  H     0.90983   0.66560   0.67138   0.00000  Uiso   1.00
N1604  N     0.58529   0.86111   0.31946   0.00000  Uiso   1.00
H1605  H     0.55740   0.86402   0.31359   0.00000  Uiso   1.00
H1606  H     0.59023   0.83439   0.32877   0.00000  Uiso   1.00
N1607  N     0.86147   0.91494   0.68077   0.00000  Uiso   1.00
H1608  H     0.86461   0.94277   0.68681   0.00000  Uiso   1.00
H1609  H     0.83467   0.91023   0.67158   0.00000  Uiso   1.00
N1610  N     0.63862   0.58498   0.31934   0.00000  Uiso   1.00
H1611  H     0.63571   0.55711   0.31333   0.00000  Uiso   1.00
H1612  H     0.66531   0.58984   0.32878   0.00000  Uiso   1.00
N1613  N     0.58532   0.86116   0.68060   0.00000  Uiso   1.00
H1614  H     0.55745   0.86419   0.68650   0.00000  Uiso   1.00
H1615  H     0.59017   0.83440   0.67138   0.00000  Uiso   1.00
N1616  N     0.91471   0.63888   0.31946   0.00000  Uiso   1.00
H1617  H     0.94260   0.63598   0.31358   0.00000  Uiso   1.00
H1618  H     0.90978   0.66560   0.32877   0.00000  Uiso   1.00
N1619  N     0.63852   0.58505   0.68077   0.00000  Uiso   1.00
H1620  H     0.63539   0.55723   0.68682   0.00000  Uiso   1.00
H1621  H     0.66532   0.58976   0.67158   0.00000  Uiso   1.00
N1622  N     0.86138   0.91502   0.31934   0.00000  Uiso   1.00
H1623  H     0.86429   0.94289   0.31333   0.00000  Uiso   1.00
H1624  H     0.83469   0.91016   0.32878   0.00000  Uiso   1.00
N1625  N     0.91494   0.86147   0.31923   0.00000  Uiso   1.00
H1626  H     0.94277   0.86461   0.31319   0.00000  Uiso   1.00
H1627  H     0.91023   0.83467   0.32842   0.00000  Uiso   1.00
N1628  N     0.58497   0.63862   0.68067   0.00000  Uiso   1.00
H1629  H     0.55711   0.63570   0.68667   0.00000  Uiso   1.00
H1630  H     0.58984   0.66531   0.67122   0.00000  Uiso   1.00
N1631  N     0.86116   0.58532   0.31940   0.00000  Uiso   1.00
H1632  H     0.86419   0.55745   0.31350   0.00000  Uiso   1.00
H1633  H     0.83440   0.59017   0.32862   0.00000  Uiso   1.00
N1634  N     0.63888   0.91472   0.68054   0.00000  Uiso   1.00
H1635  H     0.63598   0.94260   0.68642   0.00000  Uiso   1.00
H1636  H     0.66560   0.90978   0.67123   0.00000  Uiso   1.00
N1637  N     0.58506   0.63853   0.31923   0.00000  Uiso   1.00
H1638  H     0.55723   0.63539   0.31319   0.00000  Uiso   1.00
H1639  H     0.58977   0.66533   0.32842   0.00000  Uiso   1.00
N1640  N     0.91502   0.86138   0.68066   0.00000  Uiso   1.00
H1641  H     0.94289   0.86429   0.68667   0.00000  Uiso   1.00
H1642  H     0.91016   0.83469   0.67122   0.00000  Uiso   1.00
N1643  N     0.63884   0.91468   0.31940   0.00000  Uiso   1.00
H1644  H     0.63582   0.94254   0.31350   0.00000  Uiso   1.00
H1645  H     0.66561   0.90983   0.32862   0.00000  Uiso   1.00
N1646  N     0.86111   0.58529   0.68054   0.00000  Uiso   1.00
H1647  H     0.86402   0.55740   0.68642   0.00000  Uiso   1.00
H1648  H     0.83439   0.59022   0.67123   0.00000  Uiso   1.00
C1649  C     0.97131   0.81204   0.39746   0.00000  Uiso   1.00
O1650  O     0.98444   0.82511   0.36792   0.00000  Uiso   1.00
O1651  O     0.93847   0.82568   0.41233   0.00000  Uiso   1.00
H1652  H     0.92876   0.84716   0.39690   0.00000  Uiso   1.00
C1653  C     0.97642   0.68583   0.60280   0.00000  Uiso   1.00
O1654  O     0.99012   0.67427   0.63277   0.00000  Uiso   1.00
O1655  O     0.94511   0.66924   0.58762   0.00000  Uiso   1.00
H1656  H     0.93686   0.64741   0.60346   0.00000  Uiso   1.00
C1657  C     0.68583   0.97642   0.39720   0.00000  Uiso   1.00
O1658  O     0.67427   0.99012   0.36723   0.00000  Uiso   1.00
O1659  O     0.66924   0.94510   0.41238   0.00000  Uiso   1.00
H1660  H     0.64741   0.93686   0.39654   0.00000  Uiso   1.00
C1661  C     0.81204   0.97131   0.60254   0.00000  Uiso   1.00
O1662  O     0.82511   0.98444   0.63209   0.00000  Uiso   1.00
O1663  O     0.82569   0.93847   0.58767   0.00000  Uiso   1.00
H1664  H     0.84716   0.92876   0.60310   0.00000  Uiso   1.00
C1665  C     0.52869   0.68796   0.39746   0.00000  Uiso   1.00
O1666  O     0.51556   0.67489   0.36792   0.00000  Uiso   1.00
O1667  O     0.56153   0.67432   0.41233   0.00000  Uiso   1.00
H1668  H     0.57124   0.65284   0.39690   0.00000  Uiso   1.00
C1669  C     0.52357   0.81417   0.60280   0.00000  Uiso   1.00
O1670  O     0.50988   0.82573   0.63277   0.00000  Uiso   1.00
O1671  O     0.55489   0.83076   0.58762   0.00000  Uiso   1.00
H1672  H     0.56314   0.85259   0.60346   0.00000  Uiso   1.00
C1673  C     0.81417   0.52358   0.39720   0.00000  Uiso   1.00
O1674  O     0.82573   0.50988   0.36723   0.00000  Uiso   1.00
O1675  O     0.83076   0.55490   0.41238   0.00000  Uiso   1.00
H1676  H     0.85259   0.56314   0.39654   0.00000  Uiso   1.00
C1677  C     0.68796   0.52869   0.60254   0.00000  Uiso   1.00
O1678  O     0.67489   0.51556   0.63209   0.00000  Uiso   1.00
O1679  O     0.67431   0.56153   0.58767   0.00000  Uiso   1.00
H1680  H     0.65284   0.57124   0.60310   0.00000  Uiso   1.00
C1681  C     0.72131   0.56204   0.89746   0.00000  Uiso   1.00
O1682  O     0.73444   0.57511   0.86792   0.00000  Uiso   1.00
O1683  O     0.68847   0.57569   0.91233   0.00000  Uiso   1.00
H1684  H     0.67876   0.59716   0.89690   0.00000  Uiso   1.00
C1685  C     0.72642   0.93583   0.10280   0.00000  Uiso   1.00
O1686  O     0.74012   0.92427   0.13277   0.00000  Uiso   1.00
O1687  O     0.69510   0.91924   0.08762   0.00000  Uiso   1.00
H1688  H     0.68686   0.89741   0.10346   0.00000  Uiso   1.00
C1689  C     0.93583   0.72642   0.89720   0.00000  Uiso   1.00
O1690  O     0.92427   0.74012   0.86723   0.00000  Uiso   1.00
O1691  O     0.91924   0.69511   0.91238   0.00000  Uiso   1.00
H1692  H     0.89741   0.68686   0.89654   0.00000  Uiso   1.00
C1693  C     0.56204   0.72131   0.10254   0.00000  Uiso   1.00
O1694  O     0.57511   0.73444   0.13209   0.00000  Uiso   1.00
O1695  O     0.57568   0.68847   0.08768   0.00000  Uiso   1.00
H1696  H     0.59716   0.67876   0.10310   0.00000  Uiso   1.00
C1697  C     0.77869   0.93796   0.89746   0.00000  Uiso   1.00
O1698  O     0.76556   0.92489   0.86792   0.00000  Uiso   1.00
O1699  O     0.81153   0.92431   0.91233   0.00000  Uiso   1.00
H1700  H     0.82124   0.90284   0.89690   0.00000  Uiso   1.00
C1701  C     0.77358   0.56417   0.10280   0.00000  Uiso   1.00
O1702  O     0.75988   0.57573   0.13277   0.00000  Uiso   1.00
O1703  O     0.80489   0.58076   0.08762   0.00000  Uiso   1.00
H1704  H     0.81314   0.60259   0.10346   0.00000  Uiso   1.00
C1705  C     0.56417   0.77358   0.89720   0.00000  Uiso   1.00
O1706  O     0.57573   0.75988   0.86723   0.00000  Uiso   1.00
O1707  O     0.58076   0.80489   0.91238   0.00000  Uiso   1.00
H1708  H     0.60259   0.81314   0.89654   0.00000  Uiso   1.00
C1709  C     0.93796   0.77869   0.10254   0.00000  Uiso   1.00
O1710  O     0.92489   0.76556   0.13209   0.00000  Uiso   1.00
O1711  O     0.92432   0.81153   0.08768   0.00000  Uiso   1.00
H1712  H     0.90284   0.82124   0.10310   0.00000  Uiso   1.00
loop_
_geom_bond_atom_site_label_1
_geom_bond_atom_site_label_2
_geom_bond_distance
_geom_bond_site_symmetry_2
_ccdc_geom_bond_type
C1     C101    1.419   .     A
C1     C445    1.406   .     A
C1     C365    1.489   .     S
C2     C369    1.491   .     S
C2     C102    1.419   .     A
C2     C446    1.405   .     A
C3     C103    1.419   .     A
C3     C373    1.491   .     S
C3     C875    1.405   .     S
C4     C104    1.419   .     A
C4     C377    1.489   .     S
C4     C876    1.406   .     S
C5     C381    1.489   .     S
C5     C97     1.419   .     A
C5     C17     1.406   .     S
C6     C385    1.491   .     S
C6     C98     1.419   .     A
C6     C18     1.405   .     S
C7     C99     1.419   .     A
C7     C19     1.405   .     A
C7     C389    1.491   .     S
C8     C100    1.419   .     A
C8     C20     1.406   .     A
C8     C393    1.489   .     S
C9     C21     1.406   .     A
C9     C397    1.489   .     S
C9     C109    1.419   .     A
C10    C401    1.491   .     S
C10    C110    1.419   .     A
C10    C878    1.405   .     S
C11    C111    1.419   .     A
C11    C405    1.491   .     S
C11    C451    1.405   .     S
C12    C409    1.489   .     S
C12    C112    1.419   .     A
C12    C24     1.406   .     A
C13    C105    1.419   .     A
C13    C413    1.489   .     S
C13    C877    1.406   .     S
C14    C22     1.405   .     A
C14    C106    1.419   .     A
C14    C417    1.491   .     S
C15    C421    1.491   .     S
C15    C107    1.419   .     A
C15    C23     1.405   .     A
C16    C425    1.489   .     S
C16    C108    1.419   .     A
C16    C452    1.406   .     S
C17    C429    1.406   1_455 A
C17    C43     1.461   .     S
C18    C430    1.405   1_455 A
C18    C44     1.457   .     S
C19    C41     1.457   .     S
C19    C859    1.405   1_545 S
C20    C42     1.461   .     S
C20    C860    1.406   1_545 S
C21    C47     1.461   .     S
C21    C869    1.406   1_545 S
C22    C48     1.457   .     S
C22    C866    1.405   1_545 S
C23    C45     1.457   .     S
C23    C439    1.405   1_455 S
C24    C46     1.461   .     S
C24    C444    1.406   1_455 S
C25    C97     1.423   .     A
C25    C30     1.409   .     A
C25    C633    1.488   1_455 S
C26    C209    1.489   .     S
C26    C29     1.409   .     A
C26    C526    1.422   .     S
C27    C32     1.409   .     A
C27    C213    1.489   .     S
C27    C955    1.422   .     S
C28    C31     1.409   .     A
C28    C100    1.423   .     A
C28    C1073   1.488   1_545 S
C29    C101    1.423   .     A
C29    C649    1.488   .     S
C30    C225    1.489   .     S
C30    C530    1.422   1_455 S
C31    C229    1.489   .     S
C31    C959    1.422   1_545 S
C32    C104    1.423   .     A
C32    C1089   1.488   .     S
C33    C105    1.423   .     A
C33    C237    1.488   .     S
C33    C38     1.409   1_556 S
C34    C106    1.422   .     A
C34    C241    1.489   .     S
C34    C37     1.409   1_554 S
C35    C245    1.489   .     S
C35    C107    1.422   .     A
C35    C40     1.409   1_556 S
C36    C108    1.423   .     A
C36    C249    1.488   .     S
C36    C39     1.409   1_554 S
C37    C109    1.423   .     A
C37    C253    1.488   .     S
C37    C34     1.409   1_556 S
C38    C110    1.422   .     A
C38    C257    1.489   .     S
C38    C33     1.409   1_554 S
C39    C111    1.422   .     A
C39    C261    1.489   .     S
C39    C36     1.409   1_556 S
C40    C265    1.488   .     S
C40    C112    1.423   .     A
C40    C35     1.409   1_554 S
C41    O145    1.275   .     A
C41    O997    1.275   1_545 S
C42    O142    1.276   .     A
C42    O1002   1.276   1_545 S
C43    O143    1.276   .     A
C43    O575    1.276   1_455 S
C44    O148    1.275   .     A
C44    O572    1.275   1_455 S
C45    O153    1.275   .     A
C45    O149    1.275   .     S
C46    O150    1.276   .     A
C46    O154    1.276   .     S
C47    O151    1.276   .     A
C47    O155    1.276   .     A
C48    O152    1.275   .     S
C48    O156    1.275   .     S
C49    C115    1.451   .     S
C49    O157    1.278   .     A
C49    O183    1.278   .     A
C50    O184    1.279   .     A
C50    O158    1.279   .     A
C50    C116    1.453   .     S
C51    O181    1.279   .     A
C51    O159    1.279   .     A
C51    C117    1.451   .     S
C52    O182    1.279   .     A
C52    O160    1.279   .     A
C52    C118    1.452   .     S
C53    C119    1.451   .     S
C53    O187    1.278   .     A
C53    O161    1.278   .     A
C54    O162    1.279   .     A
C54    O188    1.279   .     A
C54    C120    1.453   .     S
C55    O163    1.279   .     A
C55    C113    1.451   .     S
C55    O185    1.279   .     A
C56    O164    1.279   .     A
C56    O186    1.279   .     A
C56    C114    1.452   .     S
C57    C123    1.451   .     S
C57    O165    1.279   .     A
C57    O175    1.279   .     A
C58    O166    1.279   .     A
C58    O176    1.279   .     A
C58    C124    1.452   .     S
C59    O167    1.278   .     A
C59    C125    1.451   .     S
C59    O173    1.278   .     A
C60    O174    1.279   .     A
C60    O168    1.279   .     A
C60    C126    1.453   .     S
C61    C127    1.451   .     S
C61    O179    1.279   .     A
C61    O169    1.279   .     A
C62    O170    1.279   .     A
C62    O180    1.279   .     A
C62    C128    1.452   .     S
C63    C121    1.451   .     S
C63    O171    1.278   .     A
C63    O177    1.278   .     A
C64    O172    1.279   .     A
C64    O178    1.279   .     A
C64    C122    1.453   .     S
C65    C128    1.410   .     A
C65    N269    1.435   .     S
C65    C80     1.393   .     A
C66    C79     1.393   .     A
C66    C127    1.410   .     A
C66    N272    1.436   .     S
C67    C126    1.410   .     A
C67    N275    1.434   .     S
C67    C78     1.393   .     A
C68    N278    1.436   .     S
C68    C77     1.393   .     A
C68    C125    1.410   .     A
C69    C76     1.393   .     A
C69    C124    1.410   .     A
C69    N281    1.435   .     S
C70    C75     1.393   .     A
C70    N284    1.436   .     S
C70    C123    1.410   .     A
C71    C122    1.410   .     A
C71    C74     1.393   .     A
C71    N287    1.434   .     S
C72    C73     1.393   .     A
C72    N290    1.436   .     S
C72    C121    1.410   .     A
C73    C120    1.410   .     A
C73    N293    1.434   .     S
C74    N296    1.436   .     S
C74    C119    1.410   .     A
C75    N299    1.435   .     S
C75    C118    1.410   .     A
C76    N302    1.436   .     S
C76    C117    1.410   .     A
C77    N305    1.434   .     S
C77    C116    1.410   .     A
C78    C115    1.410   .     A
C78    N308    1.436   .     S
C79    N311    1.435   .     S
C79    C114    1.410   .     A
C80    N314    1.436   .     S
C80    C113    1.410   .     A
C81    C114    1.410   .     A
C81    C96     1.393   .     A
C81    N317    1.435   .     S
C82    N320    1.436   .     S
C82    C95     1.393   .     A
C82    C113    1.410   .     A
C83    C94     1.393   .     A
C83    N323    1.434   .     S
C83    C116    1.410   .     A
C84    N326    1.436   .     S
C84    C93     1.393   .     A
C84    C115    1.410   .     A
C85    C92     1.393   .     A
C85    N329    1.435   .     S
C85    C118    1.410   .     A
C86    N332    1.436   .     S
C86    C117    1.410   .     A
C86    C91     1.393   .     A
C87    N335    1.434   .     S
C87    C90     1.393   .     A
C87    C120    1.410   .     A
C88    C119    1.410   .     A
C88    C89     1.393   .     A
C88    N338    1.436   .     S
C89    N341    1.434   .     S
C89    C122    1.410   .     A
C90    C121    1.410   .     A
C90    N344    1.436   .     S
C91    N347    1.435   .     S
C91    C124    1.410   .     A
C92    C123    1.410   .     A
C92    N350    1.436   .     S
C93    C126    1.410   .     A
C93    N353    1.434   .     S
C94    C125    1.410   .     A
C94    N356    1.436   .     S
C95    C128    1.410   .     A
C95    N359    1.435   .     S
C96    C127    1.410   .     A
C96    N362    1.436   .     S
C97    C129    1.421   .     S
C98    C454    1.422   1_455 S
C98    C130    1.421   .     S
C99    C131    1.421   .     A
C99    C883    1.422   1_545 S
C100   C132    1.421   .     A
C101   C557    1.421   .     A
C102   C558    1.421   .     A
C102   C458    1.422   .     S
C103   C887    1.422   .     S
C103   C987    1.421   .     S
C104   C988    1.421   .     S
C105   C989    1.421   .     S
C106   C134    1.421   .     A
C107   C135    1.421   .     S
C108   C564    1.421   .     A
C109   C133    1.421   .     A
C110   C990    1.421   .     S
C111   C563    1.421   .     A
C112   C136    1.421   .     S
C129   C130    1.412   .     A
C129   C529    1.421   1_455 A
C130   C530    1.421   1_455 A
C131   C132    1.412   .     A
C131   C959    1.421   1_545 S
C132   C960    1.421   1_545 S
C133   C961    1.421   1_545 S
C133   C134    1.412   1_556 S
C134   C966    1.421   1_545 S
C134   C133    1.412   1_554 S
C135   C539    1.421   1_455 A
C135   C136    1.412   1_556 S
C136   C536    1.421   1_455 A
C136   C135    1.412   1_554 S
O137   Zn193   1.946   .     S
O137   Zn200   1.946   .     S
O137   Zn189   1.946   .     S
O137   Zn1060  1.946   1_545 S
O138   Zn203   1.946   .     S
O138   Zn190   1.946   .     S
O138   Zn194   1.946   .     S
O138   Zn1055  1.946   1_545 S
O139   Zn630   1.946   1_455 S
O139   Zn191   1.946   .     S
O139   Zn195   1.946   .     S
O139   Zn198   1.946   .     S
O140   Zn625   1.946   1_455 S
O140   Zn196   1.946   .     S
O140   Zn192   1.946   .     S
O140   Zn201   1.946   .     S
O141   Zn204   1.951   .     S
O141   C897    1.275   .     S
O142   Zn203   1.951   .     S
O143   Zn198   1.951   .     S
O144   Zn197   1.951   .     S
O144   C472    1.275   .     S
O145   Zn200   1.951   .     S
O146   Zn199   1.951   .     S
O146   C898    1.276   .     S
O147   Zn202   1.951   .     S
O147   C471    1.276   .     S
O148   Zn201   1.951   .     S
O149   Zn196   1.951   .     S
O150   Zn195   1.951   .     S
O151   Zn190   1.951   .     S
O152   Zn189   1.951   .     S
O153   Zn192   1.951   .     S
O154   Zn191   1.951   .     S
O155   Zn194   1.951   .     S
O156   Zn193   1.951   .     S
O157   Zn200   1.933   .     S
O158   Zn199   1.933   .     S
O159   Zn202   1.933   .     S
O160   Zn201   1.933   .     S
O161   Zn204   1.933   .     S
O162   Zn203   1.933   .     S
O163   Zn198   1.933   .     S
O164   Zn197   1.933   .     S
O165   Zn199   1.933   .     S
O166   Zn200   1.933   .     S
O167   Zn197   1.933   .     S
O168   Zn198   1.933   .     S
O169   Zn203   1.933   .     S
O170   Zn204   1.933   .     S
O171   Zn201   1.933   .     S
O172   Zn202   1.933   .     S
O173   Zn620   1.933   .     S
O174   Zn191   1.933   .     S
O175   Zn1050  1.933   .     S
O176   Zn193   1.933   .     S
O177   Zn196   1.933   .     S
O178   Zn623   1.933   .     S
O179   Zn190   1.933   .     S
O180   Zn1045  1.933   .     S
O181   Zn619   1.933   .     S
O182   Zn192   1.933   .     S
O183   Zn189   1.933   .     S
O184   Zn1046  1.933   .     S
O185   Zn195   1.933   .     S
O186   Zn624   1.933   .     S
O187   Zn1049  1.933   .     S
O188   Zn194   1.933   .     S
Zn189  O1036   1.933   1_545 S
Zn190  O1040   1.933   1_545 S
Zn191  O609    1.933   1_455 S
Zn192  O601    1.933   1_455 S
Zn193  O1043   1.933   1_545 S
Zn194  O1031   1.933   1_545 S
Zn195  O606    1.933   1_455 S
Zn196  O614    1.933   1_455 S
Zn197  O568    1.946   .     S
Zn199  O994    1.946   .     S
Zn202  O567    1.946   .     S
Zn204  O993    1.946   .     S
C205   O206    1.223   .     D
C205   C453    1.488   .     S
C205   O635    1.399   .     S
O207   H208    1.014   .     S
O207   C633    1.399   1_455 S
C209   O211    1.398   .     S
C209   O638    1.223   .     S
O210   C637    1.223   1_455 S
O211   H212    1.014   .     S
C213   O215    1.398   .     S
C213   O1070   1.223   .     S
O214   C1069   1.223   1_545 S
O215   H216    1.014   .     S
C217   O218    1.223   .     D
C217   C884    1.488   .     S
C217   O1075   1.399   .     S
O219   H220    1.014   .     S
O219   C1073   1.399   1_545 S
C221   O222    1.223   .     D
C221   C457    1.488   1_455 S
C221   O651    1.399   1_455 S
O223   H224    1.014   .     S
O223   C649    1.399   .     S
C225   O227    1.398   .     S
C225   O654    1.223   1_455 S
O226   C653    1.223   .     S
O227   H228    1.014   .     S
C229   O231    1.398   .     S
C229   O1086   1.223   1_545 S
O230   C1085   1.223   .     S
O231   H232    1.014   .     S
C233   O234    1.223   .     D
C233   C888    1.488   1_545 S
C233   O1091   1.399   1_545 S
O235   H236    1.014   .     S
O235   C1089   1.399   .     S
C237   O238    1.223   .     D
C237   O239    1.399   .     S
O239   H240    1.014   .     S
C241   O243    1.398   .     S
C241   O242    1.223   .     D
O243   H244    1.014   .     S
C245   O246    1.223   .     D
C245   O247    1.398   .     S
O247   H248    1.014   .     S
C249   O250    1.223   .     D
C249   O251    1.399   .     S
O251   H252    1.014   .     S
C253   O254    1.223   .     D
C253   O255    1.399   .     S
O255   H256    1.014   .     S
C257   O258    1.223   .     D
C257   O259    1.398   .     S
O259   H260    1.014   .     S
C261   O262    1.223   .     D
C261   O263    1.398   .     S
O263   H264    1.014   .     S
C265   O267    1.399   .     S
C265   O266    1.223   .     D
O267   H268    1.014   .     S
N269   H271    1.045   .     S
N269   H270    1.046   .     S
N272   H273    1.046   .     S
N272   H274    1.045   .     S
N275   H277    1.045   .     S
N275   H276    1.045   .     S
N278   H279    1.046   .     S
N278   H280    1.045   .     S
N281   H283    1.045   .     S
N281   H282    1.046   .     S
N284   H285    1.046   .     S
N284   H286    1.045   .     S
N287   H288    1.045   .     S
N287   H289    1.045   .     S
N290   H291    1.046   .     S
N290   H292    1.045   .     S
N293   H294    1.045   .     S
N293   H295    1.045   .     S
N296   H297    1.046   .     S
N296   H298    1.045   .     S
N299   H300    1.046   .     S
N299   H301    1.045   .     S
N302   H304    1.045   .     S
N302   H303    1.046   .     S
N305   H307    1.045   .     S
N305   H306    1.045   .     S
N308   H310    1.045   .     S
N308   H309    1.046   .     S
N311   H313    1.045   .     S
N311   H312    1.046   .     S
N314   H315    1.046   .     S
N314   H316    1.045   .     S
N317   H319    1.045   .     S
N317   H318    1.046   .     S
N320   H322    1.045   .     S
N320   H321    1.046   .     S
N323   H324    1.045   .     S
N323   H325    1.045   .     S
N326   H327    1.046   .     S
N326   H328    1.045   .     S
N329   H331    1.045   .     S
N329   H330    1.046   .     S
N332   H333    1.046   .     S
N332   H334    1.045   .     S
N335   H337    1.045   .     S
N335   H336    1.045   .     S
N338   H340    1.045   .     S
N338   H339    1.046   .     S
N341   H342    1.045   .     S
N341   H343    1.045   .     S
N344   H345    1.046   .     S
N344   H346    1.045   .     S
N347   H348    1.046   .     S
N347   H349    1.045   .     S
N350   H351    1.046   .     S
N350   H352    1.045   .     S
N353   H355    1.045   .     S
N353   H354    1.045   .     S
N356   H358    1.045   .     S
N356   H357    1.046   .     S
N359   H360    1.046   .     S
N359   H361    1.045   .     S
N362   H363    1.046   .     S
N362   H364    1.045   .     S
C365   O366    1.223   .     D
C365   O367    1.398   .     S
O367   H368    1.013   .     S
C369   O371    1.398   .     S
C369   O370    1.223   .     D
O371   H372    1.013   .     S
C373   O375    1.398   .     S
C373   O374    1.223   .     D
O375   H376    1.013   .     S
C377   O379    1.398   .     S
C377   O378    1.223   .     D
O379   H380    1.013   .     S
C381   O382    1.223   .     D
C381   O383    1.398   .     S
O383   H384    1.013   .     S
C385   O387    1.398   .     S
C385   O386    1.223   .     D
O387   H388    1.013   .     S
C389   O391    1.398   .     S
C389   O390    1.223   .     D
O391   H392    1.013   .     S
C393   O394    1.223   .     D
C393   O395    1.398   .     S
O395   H396    1.013   .     S
C397   O399    1.398   .     S
C397   O398    1.223   .     D
O399   H400    1.013   .     S
C401   O402    1.223   .     D
C401   O403    1.398   .     S
O403   H404    1.013   .     S
C405   O406    1.223   .     D
C405   O407    1.398   .     S
O407   H408    1.013   .     S
C409   O410    1.223   .     D
C409   O411    1.398   .     S
O411   H412    1.013   .     S
C413   O414    1.223   .     D
C413   O415    1.398   .     S
O415   H416    1.013   .     S
C417   O419    1.398   .     S
C417   O418    1.223   .     D
O419   H420    1.013   .     S
C421   O422    1.223   .     D
C421   O423    1.398   .     S
O423   H424    1.013   .     S
C425   O426    1.223   .     D
C425   O427    1.398   .     S
O427   H428    1.013   .     S
C429   C529    1.419   .     A
C429   C17     1.406   1_655 A
C429   C793    1.489   .     S
C430   C797    1.491   .     S
C430   C530    1.419   .     A
C430   C18     1.405   1_655 A
C431   C531    1.419   .     A
C431   C801    1.491   .     S
C431   C1303   1.405   .     S
C432   C532    1.419   .     A
C432   C805    1.489   .     S
C432   C1304   1.406   .     S
C433   C809    1.489   .     S
C433   C525    1.419   .     A
C433   C445    1.406   .     S
C434   C813    1.491   .     S
C434   C526    1.419   .     A
C434   C446    1.405   .     S
C435   C527    1.419   .     A
C435   C447    1.405   .     A
C435   C817    1.491   .     S
C436   C528    1.419   .     A
C436   C448    1.406   .     A
C436   C821    1.489   .     S
C437   C449    1.406   .     A
C437   C825    1.489   .     S
C437   C537    1.419   .     A
C438   C829    1.491   .     S
C438   C538    1.419   .     A
C438   C1306   1.405   .     S
C439   C539    1.419   .     A
C439   C833    1.491   .     S
C439   C23     1.405   1_655 S
C440   C837    1.489   .     S
C440   C540    1.419   .     A
C440   C452    1.406   .     A
C441   C533    1.419   .     A
C441   C841    1.489   .     S
C441   C1305   1.406   .     S
C442   C450    1.405   .     A
C442   C534    1.419   .     A
C442   C845    1.491   .     S
C443   C849    1.491   .     S
C443   C535    1.419   .     A
C443   C451    1.405   .     A
C444   C853    1.489   .     S
C444   C536    1.419   .     A
C444   C24     1.406   1_655 S
C445   C471    1.461   .     S
C446   C472    1.457   .     S
C447   C469    1.457   .     S
C447   C1287   1.405   1_545 S
C448   C470    1.461   .     S
C448   C1288   1.406   1_545 S
C449   C475    1.461   .     S
C449   C1297   1.406   1_545 S
C450   C476    1.457   .     S
C450   C1294   1.405   1_545 S
C451   C473    1.457   .     S
C452   C474    1.461   .     S
C453   C525    1.423   .     A
C453   C458    1.409   .     A
C454   C637    1.489   .     S
C454   C457    1.409   .     A
C454   C98     1.422   1_655 S
C455   C460    1.409   .     A
C455   C641    1.489   .     S
C455   C1383   1.422   .     S
C456   C459    1.409   .     A
C456   C528    1.423   .     A
C456   C1501   1.488   1_545 S
C457   C529    1.423   .     A
C457   C221    1.488   1_655 S
C458   C653    1.489   .     S
C459   C657    1.489   .     S
C459   C1387   1.422   1_545 S
C460   C532    1.423   .     A
C460   C1517   1.488   .     S
C461   C533    1.423   .     A
C461   C665    1.488   .     S
C461   C466    1.409   1_556 S
C462   C534    1.422   .     A
C462   C669    1.489   .     S
C462   C465    1.409   1_554 S
C463   C673    1.489   .     S
C463   C535    1.422   .     A
C463   C468    1.409   1_556 S
C464   C536    1.423   .     A
C464   C677    1.488   .     S
C464   C467    1.409   1_554 S
C465   C537    1.423   .     A
C465   C681    1.488   .     S
C465   C462    1.409   1_556 S
C466   C538    1.422   .     A
C466   C685    1.489   .     S
C466   C461    1.409   1_554 S
C467   C539    1.422   .     A
C467   C689    1.489   .     S
C467   C464    1.409   1_556 S
C468   C693    1.488   .     S
C468   C540    1.423   .     A
C468   C463    1.409   1_554 S
C469   O573    1.275   .     A
C469   O1425   1.275   1_545 S
C470   O570    1.276   .     A
C470   O1430   1.276   1_545 S
C471   O571    1.276   .     A
C472   O576    1.275   .     A
C473   O581    1.275   .     A
C473   O577    1.275   .     S
C474   O578    1.276   .     A
C474   O582    1.276   .     S
C475   O579    1.276   .     A
C475   O583    1.276   .     A
C476   O580    1.275   .     S
C476   O584    1.275   .     S
C477   C543    1.451   .     S
C477   O585    1.278   .     A
C477   O611    1.278   .     A
C478   O612    1.279   .     A
C478   O586    1.279   .     A
C478   C544    1.453   .     S
C479   O609    1.279   .     A
C479   O587    1.279   .     A
C479   C545    1.451   .     S
C480   O610    1.279   .     A
C480   O588    1.279   .     A
C480   C546    1.452   .     S
C481   C547    1.451   .     S
C481   O615    1.278   .     A
C481   O589    1.278   .     A
C482   O590    1.279   .     A
C482   O616    1.279   .     A
C482   C548    1.453   .     S
C483   O591    1.279   .     A
C483   C541    1.451   .     S
C483   O613    1.279   .     A
C484   O592    1.279   .     A
C484   O614    1.279   .     A
C484   C542    1.452   .     S
C485   C551    1.451   .     S
C485   O593    1.279   .     A
C485   O603    1.279   .     A
C486   O594    1.279   .     A
C486   O604    1.279   .     A
C486   C552    1.452   .     S
C487   O595    1.278   .     A
C487   C553    1.451   .     S
C487   O601    1.278   .     A
C488   O602    1.279   .     A
C488   O596    1.279   .     A
C488   C554    1.453   .     S
C489   C555    1.451   .     S
C489   O607    1.279   .     A
C489   O597    1.279   .     A
C490   O598    1.279   .     A
C490   O608    1.279   .     A
C490   C556    1.452   .     S
C491   C549    1.451   .     S
C491   O599    1.278   .     A
C491   O605    1.278   .     A
C492   O600    1.279   .     A
C492   O606    1.279   .     A
C492   C550    1.453   .     S
C493   C556    1.410   .     A
C493   N697    1.435   .     S
C493   C508    1.393   .     A
C494   C507    1.393   .     A
C494   C555    1.410   .     A
C494   N700    1.436   .     S
C495   C554    1.410   .     A
C495   N703    1.434   .     S
C495   C506    1.393   .     A
C496   N706    1.436   .     S
C496   C505    1.393   .     A
C496   C553    1.410   .     A
C497   C504    1.393   .     A
C497   C552    1.410   .     A
C497   N709    1.435   .     S
C498   C503    1.393   .     A
C498   N712    1.436   .     S
C498   C551    1.410   .     A
C499   C550    1.410   .     A
C499   C502    1.393   .     A
C499   N715    1.434   .     S
C500   C501    1.393   .     A
C500   N718    1.436   .     S
C500   C549    1.410   .     A
C501   C548    1.410   .     A
C501   N721    1.434   .     S
C502   N724    1.436   .     S
C502   C547    1.410   .     A
C503   N727    1.435   .     S
C503   C546    1.410   .     A
C504   N730    1.436   .     S
C504   C545    1.410   .     A
C505   N733    1.434   .     S
C505   C544    1.410   .     A
C506   C543    1.410   .     A
C506   N736    1.436   .     S
C507   N739    1.435   .     S
C507   C542    1.410   .     A
C508   N742    1.436   .     S
C508   C541    1.410   .     A
C509   C542    1.410   .     A
C509   C524    1.393   .     A
C509   N745    1.435   .     S
C510   N748    1.436   .     S
C510   C523    1.393   .     A
C510   C541    1.410   .     A
C511   C522    1.393   .     A
C511   N751    1.434   .     S
C511   C544    1.410   .     A
C512   N754    1.436   .     S
C512   C521    1.393   .     A
C512   C543    1.410   .     A
C513   C520    1.393   .     A
C513   N757    1.435   .     S
C513   C546    1.410   .     A
C514   N760    1.436   .     S
C514   C545    1.410   .     A
C514   C519    1.393   .     A
C515   N763    1.434   .     S
C515   C518    1.393   .     A
C515   C548    1.410   .     A
C516   C547    1.410   .     A
C516   C517    1.393   .     A
C516   N766    1.436   .     S
C517   N769    1.434   .     S
C517   C550    1.410   .     A
C518   C549    1.410   .     A
C518   N772    1.436   .     S
C519   N775    1.435   .     S
C519   C552    1.410   .     A
C520   C551    1.410   .     A
C520   N778    1.436   .     S
C521   C554    1.410   .     A
C521   N781    1.434   .     S
C522   C553    1.410   .     A
C522   N784    1.436   .     S
C523   C556    1.410   .     A
C523   N787    1.435   .     S
C524   C555    1.410   .     A
C524   N790    1.436   .     S
C525   C557    1.421   .     S
C526   C558    1.421   .     S
C527   C559    1.421   .     A
C527   C1311   1.422   1_545 S
C528   C560    1.421   .     A
C529   C129    1.421   1_655 A
C530   C130    1.421   1_655 A
C530   C30     1.422   1_655 S
C531   C1315   1.422   .     S
C531   C1415   1.421   .     S
C532   C1416   1.421   .     S
C533   C1417   1.421   .     S
C534   C562    1.421   .     A
C535   C563    1.421   .     S
C536   C136    1.421   1_655 A
C537   C561    1.421   .     A
C538   C1418   1.421   .     S
C539   C135    1.421   1_655 A
C540   C564    1.421   .     S
C557   C558    1.412   .     A
C559   C560    1.412   .     A
C559   C1387   1.421   1_545 S
C560   C1388   1.421   1_545 S
C561   C1389   1.421   1_545 S
C561   C562    1.412   1_556 S
C562   C1394   1.421   1_545 S
C562   C561    1.412   1_554 S
C563   C564    1.412   1_556 S
C564   C563    1.412   1_554 S
O565   Zn621   1.946   .     S
O565   Zn628   1.946   .     S
O565   Zn617   1.946   .     S
O565   Zn1488  1.946   1_545 S
O566   Zn631   1.946   .     S
O566   Zn618   1.946   .     S
O566   Zn622   1.946   .     S
O566   Zn1483  1.946   1_545 S
O567   Zn619   1.946   .     S
O567   Zn623   1.946   .     S
O567   Zn626   1.946   .     S
O568   Zn624   1.946   .     S
O568   Zn620   1.946   .     S
O568   Zn629   1.946   .     S
O569   Zn632   1.951   .     S
O569   C1325   1.275   .     S
O570   Zn631   1.951   .     S
O571   Zn626   1.951   .     S
O572   Zn625   1.951   .     S
O572   C44     1.275   1_655 S
O573   Zn628   1.951   .     S
O574   Zn627   1.951   .     S
O574   C1326   1.276   .     S
O575   Zn630   1.951   .     S
O575   C43     1.276   1_655 S
O576   Zn629   1.951   .     S
O577   Zn624   1.951   .     S
O578   Zn623   1.951   .     S
O579   Zn618   1.951   .     S
O580   Zn617   1.951   .     S
O581   Zn620   1.951   .     S
O582   Zn619   1.951   .     S
O583   Zn622   1.951   .     S
O584   Zn621   1.951   .     S
O585   Zn628   1.933   .     S
O586   Zn627   1.933   .     S
O587   Zn630   1.933   .     S
O588   Zn629   1.933   .     S
O589   Zn632   1.933   .     S
O590   Zn631   1.933   .     S
O591   Zn626   1.933   .     S
O592   Zn625   1.933   .     S
O593   Zn627   1.933   .     S
O594   Zn628   1.933   .     S
O595   Zn625   1.933   .     S
O596   Zn626   1.933   .     S
O597   Zn631   1.933   .     S
O598   Zn632   1.933   .     S
O599   Zn629   1.933   .     S
O600   Zn630   1.933   .     S
O601   Zn192   1.933   1_655 S
O602   Zn619   1.933   .     S
O603   Zn1478  1.933   .     S
O604   Zn621   1.933   .     S
O605   Zn624   1.933   .     S
O606   Zn195   1.933   1_655 S
O607   Zn618   1.933   .     S
O608   Zn1473  1.933   .     S
O609   Zn191   1.933   1_655 S
O610   Zn620   1.933   .     S
O611   Zn617   1.933   .     S
O612   Zn1474  1.933   .     S
O613   Zn623   1.933   .     S
O614   Zn196   1.933   1_655 S
O615   Zn1477  1.933   .     S
O616   Zn622   1.933   .     S
Zn617  O1464   1.933   1_545 S
Zn618  O1468   1.933   1_545 S
Zn621  O1471   1.933   1_545 S
Zn622  O1459   1.933   1_545 S
Zn625  O140    1.946   1_655 S
Zn627  O1422   1.946   .     S
Zn630  O139    1.946   1_655 S
Zn632  O1421   1.946   .     S
C633   O634    1.223   .     D
C633   C25     1.488   1_655 S
C633   O207    1.399   1_655 S
O635   H636    1.014   .     S
C637   O639    1.398   .     S
C637   O210    1.223   1_655 S
O639   H640    1.014   .     S
C641   O643    1.398   .     S
C641   O1498   1.223   .     S
O642   C1497   1.223   1_545 S
O643   H644    1.014   .     S
C645   O646    1.223   .     D
C645   C1312   1.488   .     S
C645   O1503   1.399   .     S
O647   H648    1.014   .     S
O647   C1501   1.399   1_545 S
C649   O650    1.223   .     D
O651   H652    1.014   .     S
O651   C221    1.399   1_655 S
C653   O655    1.398   .     S
O654   C225    1.223   1_655 S
O655   H656    1.014   .     S
C657   O659    1.398   .     S
C657   O1514   1.223   1_545 S
O658   C1513   1.223   .     S
O659   H660    1.014   .     S
C661   O662    1.223   .     D
C661   C1316   1.488   1_545 S
C661   O1519   1.399   1_545 S
O663   H664    1.014   .     S
O663   C1517   1.399   .     S
C665   O666    1.223   .     D
C665   O667    1.399   .     S
O667   H668    1.014   .     S
C669   O671    1.398   .     S
C669   O670    1.223   .     D
O671   H672    1.014   .     S
C673   O674    1.223   .     D
C673   O675    1.398   .     S
O675   H676    1.014   .     S
C677   O678    1.223   .     D
C677   O679    1.399   .     S
O679   H680    1.014   .     S
C681   O682    1.223   .     D
C681   O683    1.399   .     S
O683   H684    1.014   .     S
C685   O686    1.223   .     D
C685   O687    1.398   .     S
O687   H688    1.014   .     S
C689   O690    1.223   .     D
C689   O691    1.398   .     S
O691   H692    1.014   .     S
C693   O695    1.399   .     S
C693   O694    1.223   .     D
O695   H696    1.014   .     S
N697   H699    1.045   .     S
N697   H698    1.046   .     S
N700   H701    1.046   .     S
N700   H702    1.045   .     S
N703   H705    1.045   .     S
N703   H704    1.045   .     S
N706   H707    1.046   .     S
N706   H708    1.045   .     S
N709   H711    1.045   .     S
N709   H710    1.046   .     S
N712   H713    1.046   .     S
N712   H714    1.045   .     S
N715   H716    1.045   .     S
N715   H717    1.045   .     S
N718   H719    1.046   .     S
N718   H720    1.045   .     S
N721   H722    1.045   .     S
N721   H723    1.045   .     S
N724   H725    1.046   .     S
N724   H726    1.045   .     S
N727   H728    1.046   .     S
N727   H729    1.045   .     S
N730   H732    1.045   .     S
N730   H731    1.046   .     S
N733   H735    1.045   .     S
N733   H734    1.045   .     S
N736   H738    1.045   .     S
N736   H737    1.046   .     S
N739   H741    1.045   .     S
N739   H740    1.046   .     S
N742   H743    1.046   .     S
N742   H744    1.045   .     S
N745   H747    1.045   .     S
N745   H746    1.046   .     S
N748   H750    1.045   .     S
N748   H749    1.046   .     S
N751   H752    1.045   .     S
N751   H753    1.045   .     S
N754   H755    1.046   .     S
N754   H756    1.045   .     S
N757   H759    1.045   .     S
N757   H758    1.046   .     S
N760   H761    1.046   .     S
N760   H762    1.045   .     S
N763   H765    1.045   .     S
N763   H764    1.045   .     S
N766   H768    1.045   .     S
N766   H767    1.046   .     S
N769   H770    1.045   .     S
N769   H771    1.045   .     S
N772   H773    1.046   .     S
N772   H774    1.045   .     S
N775   H776    1.046   .     S
N775   H777    1.045   .     S
N778   H779    1.046   .     S
N778   H780    1.045   .     S
N781   H783    1.045   .     S
N781   H782    1.045   .     S
N784   H786    1.045   .     S
N784   H785    1.046   .     S
N787   H788    1.046   .     S
N787   H789    1.045   .     S
N790   H791    1.046   .     S
N790   H792    1.045   .     S
C793   O794    1.223   .     D
C793   O795    1.398   .     S
O795   H796    1.013   .     S
C797   O799    1.398   .     S
C797   O798    1.223   .     D
O799   H800    1.013   .     S
C801   O803    1.398   .     S
C801   O802    1.223   .     D
O803   H804    1.013   .     S
C805   O807    1.398   .     S
C805   O806    1.223   .     D
O807   H808    1.013   .     S
C809   O810    1.223   .     D
C809   O811    1.398   .     S
O811   H812    1.013   .     S
C813   O815    1.398   .     S
C813   O814    1.223   .     D
O815   H816    1.013   .     S
C817   O819    1.398   .     S
C817   O818    1.223   .     D
O819   H820    1.013   .     S
C821   O822    1.223   .     D
C821   O823    1.398   .     S
O823   H824    1.013   .     S
C825   O827    1.398   .     S
C825   O826    1.223   .     D
O827   H828    1.013   .     S
C829   O830    1.223   .     D
C829   O831    1.398   .     S
O831   H832    1.013   .     S
C833   O834    1.223   .     D
C833   O835    1.398   .     S
O835   H836    1.013   .     S
C837   O838    1.223   .     D
C837   O839    1.398   .     S
O839   H840    1.013   .     S
C841   O842    1.223   .     D
C841   O843    1.398   .     S
O843   H844    1.013   .     S
C845   O847    1.398   .     S
C845   O846    1.223   .     D
O847   H848    1.013   .     S
C849   O850    1.223   .     D
C849   O851    1.398   .     S
O851   H852    1.013   .     S
C853   O854    1.223   .     D
C853   O855    1.398   .     S
O855   H856    1.013   .     S
C857   C957    1.419   .     A
C857   C1301   1.406   .     A
C857   C1221   1.489   .     S
C858   C1225   1.491   .     S
C858   C958    1.419   .     A
C858   C1302   1.405   .     A
C859   C959    1.419   .     A
C859   C1229   1.491   .     S
C859   C19     1.405   1_565 S
C860   C960    1.419   .     A
C860   C1233   1.489   .     S
C860   C20     1.406   1_565 S
C861   C1237   1.489   .     S
C861   C953    1.419   .     A
C861   C873    1.406   .     S
C862   C1241   1.491   .     S
C862   C954    1.419   .     A
C862   C874    1.405   .     S
C863   C955    1.419   .     A
C863   C875    1.405   .     A
C863   C1245   1.491   .     S
C864   C956    1.419   .     A
C864   C876    1.406   .     A
C864   C1249   1.489   .     S
C865   C877    1.406   .     A
C865   C1253   1.489   .     S
C865   C965    1.419   .     A
C866   C1257   1.491   .     S
C866   C966    1.419   .     A
C866   C22     1.405   1_565 S
C867   C967    1.419   .     A
C867   C1261   1.491   .     S
C867   C1307   1.405   .     S
C868   C1265   1.489   .     S
C868   C968    1.419   .     A
C868   C880    1.406   .     A
C869   C961    1.419   .     A
C869   C1269   1.489   .     S
C869   C21     1.406   1_565 S
C870   C878    1.405   .     A
C870   C962    1.419   .     A
C870   C1273   1.491   .     S
C871   C1277   1.491   .     S
C871   C963    1.419   .     A
C871   C879    1.405   .     A
C872   C1281   1.489   .     S
C872   C964    1.419   .     A
C872   C1308   1.406   .     S
C873   C1285   1.406   1_455 A
C873   C899    1.461   .     S
C874   C1286   1.405   1_455 A
C874   C900    1.457   .     S
C875   C897    1.457   .     S
C876   C898    1.461   .     S
C877   C903    1.461   .     S
C878   C904    1.457   .     S
C879   C901    1.457   .     S
C879   C1295   1.405   1_455 S
C880   C902    1.461   .     S
C880   C1300   1.406   1_455 S
C881   C953    1.423   .     A
C881   C886    1.409   .     A
C881   C1489   1.488   1_455 S
C882   C1065   1.489   .     S
C882   C885    1.409   .     A
C882   C1382   1.422   .     S
C883   C888    1.409   .     A
C883   C1069   1.489   .     S
C883   C99     1.422   1_565 S
C884   C887    1.409   .     A
C884   C956    1.423   .     A
C885   C957    1.423   .     A
C885   C1505   1.488   .     S
C886   C1081   1.489   .     S
C886   C1386   1.422   1_455 S
C887   C1085   1.489   .     S
C888   C960    1.423   .     A
C888   C233    1.488   1_565 S
C889   C961    1.423   .     A
C889   C1093   1.488   .     S
C889   C894    1.409   1_556 S
C890   C962    1.422   .     A
C890   C1097   1.489   .     S
C890   C893    1.409   1_554 S
C891   C1101   1.489   .     S
C891   C963    1.422   .     A
C891   C896    1.409   1_556 S
C892   C964    1.423   .     A
C892   C1105   1.488   .     S
C892   C895    1.409   1_554 S
C893   C965    1.423   .     A
C893   C1109   1.488   .     S
C893   C890    1.409   1_556 S
C894   C966    1.422   .     A
C894   C1113   1.489   .     S
C894   C889    1.409   1_554 S
C895   C967    1.422   .     A
C895   C1117   1.489   .     S
C895   C892    1.409   1_556 S
C896   C1121   1.488   .     S
C896   C968    1.423   .     A
C896   C891    1.409   1_554 S
C897   O1001   1.275   .     A
C898   O998    1.276   .     A
C899   O999    1.276   .     A
C899   O1431   1.276   1_455 S
C900   O1004   1.275   .     A
C900   O1428   1.275   1_455 S
C901   O1009   1.275   .     A
C901   O1005   1.275   .     S
C902   O1006   1.276   .     A
C902   O1010   1.276   .     S
C903   O1007   1.276   .     A
C903   O1011   1.276   .     A
C904   O1008   1.275   .     S
C904   O1012   1.275   .     S
C905   C971    1.451   .     S
C905   O1013   1.278   .     A
C905   O1039   1.278   .     A
C906   O1040   1.279   .     A
C906   O1014   1.279   .     A
C906   C972    1.453   .     S
C907   O1037   1.279   .     A
C907   O1015   1.279   .     A
C907   C973    1.451   .     S
C908   O1038   1.279   .     A
C908   O1016   1.279   .     A
C908   C974    1.452   .     S
C909   C975    1.451   .     S
C909   O1043   1.278   .     A
C909   O1017   1.278   .     A
C910   O1018   1.279   .     A
C910   O1044   1.279   .     A
C910   C976    1.453   .     S
C911   O1019   1.279   .     A
C911   C969    1.451   .     S
C911   O1041   1.279   .     A
C912   O1020   1.279   .     A
C912   O1042   1.279   .     A
C912   C970    1.452   .     S
C913   C979    1.451   .     S
C913   O1021   1.279   .     A
C913   O1031   1.279   .     A
C914   O1022   1.279   .     A
C914   O1032   1.279   .     A
C914   C980    1.452   .     S
C915   O1023   1.278   .     A
C915   C981    1.451   .     S
C915   O1029   1.278   .     A
C916   O1030   1.279   .     A
C916   O1024   1.279   .     A
C916   C982    1.453   .     S
C917   C983    1.451   .     S
C917   O1035   1.279   .     A
C917   O1025   1.279   .     A
C918   O1026   1.279   .     A
C918   O1036   1.279   .     A
C918   C984    1.452   .     S
C919   C977    1.451   .     S
C919   O1027   1.278   .     A
C919   O1033   1.278   .     A
C920   O1028   1.279   .     A
C920   O1034   1.279   .     A
C920   C978    1.453   .     S
C921   C984    1.410   .     A
C921   N1125   1.435   .     S
C921   C936    1.393   .     A
C922   C935    1.393   .     A
C922   C983    1.410   .     A
C922   N1128   1.436   .     S
C923   C982    1.410   .     A
C923   N1131   1.434   .     S
C923   C934    1.393   .     A
C924   N1134   1.436   .     S
C924   C933    1.393   .     A
C924   C981    1.410   .     A
C925   C932    1.393   .     A
C925   C980    1.410   .     A
C925   N1137   1.435   .     S
C926   C931    1.393   .     A
C926   N1140   1.436   .     S
C926   C979    1.410   .     A
C927   C978    1.410   .     A
C927   C930    1.393   .     A
C927   N1143   1.434   .     S
C928   C929    1.393   .     A
C928   N1146   1.436   .     S
C928   C977    1.410   .     A
C929   C976    1.410   .     A
C929   N1149   1.434   .     S
C930   N1152   1.436   .     S
C930   C975    1.410   .     A
C931   N1155   1.435   .     S
C931   C974    1.410   .     A
C932   N1158   1.436   .     S
C932   C973    1.410   .     A
C933   N1161   1.434   .     S
C933   C972    1.410   .     A
C934   C971    1.410   .     A
C934   N1164   1.436   .     S
C935   N1167   1.435   .     S
C935   C970    1.410   .     A
C936   N1170   1.436   .     S
C936   C969    1.410   .     A
C937   C970    1.410   .     A
C937   C952    1.393   .     A
C937   N1173   1.435   .     S
C938   N1176   1.436   .     S
C938   C951    1.393   .     A
C938   C969    1.410   .     A
C939   C950    1.393   .     A
C939   N1179   1.434   .     S
C939   C972    1.410   .     A
C940   N1182   1.436   .     S
C940   C949    1.393   .     A
C940   C971    1.410   .     A
C941   C948    1.393   .     A
C941   N1185   1.435   .     S
C941   C974    1.410   .     A
C942   N1188   1.436   .     S
C942   C973    1.410   .     A
C942   C947    1.393   .     A
C943   N1191   1.434   .     S
C943   C946    1.393   .     A
C943   C976    1.410   .     A
C944   C975    1.410   .     A
C944   C945    1.393   .     A
C944   N1194   1.436   .     S
C945   N1197   1.434   .     S
C945   C978    1.410   .     A
C946   C977    1.410   .     A
C946   N1200   1.436   .     S
C947   N1203   1.435   .     S
C947   C980    1.410   .     A
C948   C979    1.410   .     A
C948   N1206   1.436   .     S
C949   C982    1.410   .     A
C949   N1209   1.434   .     S
C950   C981    1.410   .     A
C950   N1212   1.436   .     S
C951   C984    1.410   .     A
C951   N1215   1.435   .     S
C952   C983    1.410   .     A
C952   N1218   1.436   .     S
C953   C985    1.421   .     S
C954   C1310   1.422   1_455 S
C954   C986    1.421   .     S
C955   C987    1.421   .     A
C956   C988    1.421   .     A
C957   C1413   1.421   .     A
C958   C1414   1.421   .     A
C958   C1314   1.422   .     S
C959   C31     1.422   1_565 S
C959   C131    1.421   1_565 S
C960   C132    1.421   1_565 S
C961   C133    1.421   1_565 S
C962   C990    1.421   .     A
C963   C991    1.421   .     S
C964   C1420   1.421   .     A
C965   C989    1.421   .     A
C966   C134    1.421   1_565 S
C967   C1419   1.421   .     A
C968   C992    1.421   .     S
C985   C986    1.412   .     A
C985   C1385   1.421   1_455 A
C986   C1386   1.421   1_455 A
C987   C988    1.412   .     A
C989   C990    1.412   1_556 S
C990   C989    1.412   1_554 S
C991   C1395   1.421   1_455 A
C991   C992    1.412   1_556 S
C992   C1392   1.421   1_455 A
C992   C991    1.412   1_554 S
O993   Zn1049  1.946   .     S
O993   Zn1056  1.946   .     S
O993   Zn1045  1.946   .     S
O994   Zn1059  1.946   .     S
O994   Zn1046  1.946   .     S
O994   Zn1050  1.946   .     S
O995   Zn1486  1.946   1_455 S
O995   Zn1047  1.946   .     S
O995   Zn1051  1.946   .     S
O995   Zn1054  1.946   .     S
O996   Zn1481  1.946   1_455 S
O996   Zn1052  1.946   .     S
O996   Zn1048  1.946   .     S
O996   Zn1057  1.946   .     S
O997   Zn1060  1.951   .     S
O997   C41     1.275   1_565 S
O998   Zn1059  1.951   .     S
O999   Zn1054  1.951   .     S
O1000  Zn1053  1.951   .     S
O1000  C1328   1.275   .     S
O1001  Zn1056  1.951   .     S
O1002  Zn1055  1.951   .     S
O1002  C42     1.276   1_565 S
O1003  Zn1058  1.951   .     S
O1003  C1327   1.276   .     S
O1004  Zn1057  1.951   .     S
O1005  Zn1052  1.951   .     S
O1006  Zn1051  1.951   .     S
O1007  Zn1046  1.951   .     S
O1008  Zn1045  1.951   .     S
O1009  Zn1048  1.951   .     S
O1010  Zn1047  1.951   .     S
O1011  Zn1050  1.951   .     S
O1012  Zn1049  1.951   .     S
O1013  Zn1056  1.933   .     S
O1014  Zn1055  1.933   .     S
O1015  Zn1058  1.933   .     S
O1016  Zn1057  1.933   .     S
O1017  Zn1060  1.933   .     S
O1018  Zn1059  1.933   .     S
O1019  Zn1054  1.933   .     S
O1020  Zn1053  1.933   .     S
O1021  Zn1055  1.933   .     S
O1022  Zn1056  1.933   .     S
O1023  Zn1053  1.933   .     S
O1024  Zn1054  1.933   .     S
O1025  Zn1059  1.933   .     S
O1026  Zn1060  1.933   .     S
O1027  Zn1057  1.933   .     S
O1028  Zn1058  1.933   .     S
O1029  Zn1476  1.933   .     S
O1030  Zn1047  1.933   .     S
O1031  Zn194   1.933   1_565 S
O1032  Zn1049  1.933   .     S
O1033  Zn1052  1.933   .     S
O1034  Zn1479  1.933   .     S
O1035  Zn1046  1.933   .     S
O1036  Zn189   1.933   1_565 S
O1037  Zn1475  1.933   .     S
O1038  Zn1048  1.933   .     S
O1039  Zn1045  1.933   .     S
O1040  Zn190   1.933   1_565 S
O1041  Zn1051  1.933   .     S
O1042  Zn1480  1.933   .     S
O1043  Zn193   1.933   1_565 S
O1044  Zn1050  1.933   .     S
Zn1047 O1465   1.933   1_455 S
Zn1048 O1457   1.933   1_455 S
Zn1051 O1462   1.933   1_455 S
Zn1052 O1470   1.933   1_455 S
Zn1053 O1424   1.946   .     S
Zn1055 O138    1.946   1_565 S
Zn1058 O1423   1.946   .     S
Zn1060 O137    1.946   1_565 S
C1061  O1062   1.223   .     D
C1061  C1309   1.488   .     S
C1061  O1491   1.399   .     S
O1063  H1064   1.014   .     S
O1063  C1489   1.399   1_455 S
C1065  O1067   1.398   .     S
C1065  O1494   1.223   .     S
O1066  C1493   1.223   1_455 S
O1067  H1068   1.014   .     S
C1069  O1071   1.398   .     S
C1069  O214    1.223   1_565 S
O1071  H1072   1.014   .     S
C1073  O1074   1.223   .     D
C1073  C28     1.488   1_565 S
C1073  O219    1.399   1_565 S
O1075  H1076   1.014   .     S
C1077  O1078   1.223   .     D
C1077  C1313   1.488   1_455 S
C1077  O1507   1.399   1_455 S
O1079  H1080   1.014   .     S
O1079  C1505   1.399   .     S
C1081  O1083   1.398   .     S
C1081  O1510   1.223   1_455 S
O1082  C1509   1.223   .     S
O1083  H1084   1.014   .     S
C1085  O1087   1.398   .     S
O1086  C229    1.223   1_565 S
O1087  H1088   1.014   .     S
C1089  O1090   1.223   .     D
O1091  H1092   1.014   .     S
O1091  C233    1.399   1_565 S
C1093  O1094   1.223   .     D
C1093  O1095   1.399   .     S
O1095  H1096   1.014   .     S
C1097  O1099   1.398   .     S
C1097  O1098   1.223   .     D
O1099  H1100   1.014   .     S
C1101  O1102   1.223   .     D
C1101  O1103   1.398   .     S
O1103  H1104   1.014   .     S
C1105  O1106   1.223   .     D
C1105  O1107   1.399   .     S
O1107  H1108   1.014   .     S
C1109  O1110   1.223   .     D
C1109  O1111   1.399   .     S
O1111  H1112   1.014   .     S
C1113  O1114   1.223   .     D
C1113  O1115   1.398   .     S
O1115  H1116   1.014   .     S
C1117  O1118   1.223   .     D
C1117  O1119   1.398   .     S
O1119  H1120   1.014   .     S
C1121  O1123   1.399   .     S
C1121  O1122   1.223   .     D
O1123  H1124   1.014   .     S
N1125  H1127   1.045   .     S
N1125  H1126   1.046   .     S
N1128  H1129   1.046   .     S
N1128  H1130   1.045   .     S
N1131  H1133   1.045   .     S
N1131  H1132   1.045   .     S
N1134  H1135   1.046   .     S
N1134  H1136   1.045   .     S
N1137  H1139   1.045   .     S
N1137  H1138   1.046   .     S
N1140  H1141   1.046   .     S
N1140  H1142   1.045   .     S
N1143  H1144   1.045   .     S
N1143  H1145   1.045   .     S
N1146  H1147   1.046   .     S
N1146  H1148   1.045   .     S
N1149  H1150   1.045   .     S
N1149  H1151   1.045   .     S
N1152  H1153   1.046   .     S
N1152  H1154   1.045   .     S
N1155  H1156   1.046   .     S
N1155  H1157   1.045   .     S
N1158  H1160   1.045   .     S
N1158  H1159   1.046   .     S
N1161  H1163   1.045   .     S
N1161  H1162   1.045   .     S
N1164  H1166   1.045   .     S
N1164  H1165   1.046   .     S
N1167  H1169   1.045   .     S
N1167  H1168   1.046   .     S
N1170  H1171   1.046   .     S
N1170  H1172   1.045   .     S
N1173  H1175   1.045   .     S
N1173  H1174   1.046   .     S
N1176  H1178   1.045   .     S
N1176  H1177   1.046   .     S
N1179  H1180   1.045   .     S
N1179  H1181   1.045   .     S
N1182  H1183   1.046   .     S
N1182  H1184   1.045   .     S
N1185  H1187   1.045   .     S
N1185  H1186   1.046   .     S
N1188  H1189   1.046   .     S
N1188  H1190   1.045   .     S
N1191  H1193   1.045   .     S
N1191  H1192   1.045   .     S
N1194  H1196   1.045   .     S
N1194  H1195   1.046   .     S
N1197  H1198   1.045   .     S
N1197  H1199   1.045   .     S
N1200  H1201   1.046   .     S
N1200  H1202   1.045   .     S
N1203  H1204   1.046   .     S
N1203  H1205   1.045   .     S
N1206  H1207   1.046   .     S
N1206  H1208   1.045   .     S
N1209  H1211   1.045   .     S
N1209  H1210   1.045   .     S
N1212  H1214   1.045   .     S
N1212  H1213   1.046   .     S
N1215  H1216   1.046   .     S
N1215  H1217   1.045   .     S
N1218  H1219   1.046   .     S
N1218  H1220   1.045   .     S
C1221  O1222   1.223   .     D
C1221  O1223   1.398   .     S
O1223  H1224   1.013   .     S
C1225  O1227   1.398   .     S
C1225  O1226   1.223   .     D
O1227  H1228   1.013   .     S
C1229  O1231   1.398   .     S
C1229  O1230   1.223   .     D
O1231  H1232   1.013   .     S
C1233  O1235   1.398   .     S
C1233  O1234   1.223   .     D
O1235  H1236   1.013   .     S
C1237  O1238   1.223   .     D
C1237  O1239   1.398   .     S
O1239  H1240   1.013   .     S
C1241  O1243   1.398   .     S
C1241  O1242   1.223   .     D
O1243  H1244   1.013   .     S
C1245  O1247   1.398   .     S
C1245  O1246   1.223   .     D
O1247  H1248   1.013   .     S
C1249  O1250   1.223   .     D
C1249  O1251   1.398   .     S
O1251  H1252   1.013   .     S
C1253  O1255   1.398   .     S
C1253  O1254   1.223   .     D
O1255  H1256   1.013   .     S
C1257  O1258   1.223   .     D
C1257  O1259   1.398   .     S
O1259  H1260   1.013   .     S
C1261  O1262   1.223   .     D
C1261  O1263   1.398   .     S
O1263  H1264   1.013   .     S
C1265  O1266   1.223   .     D
C1265  O1267   1.398   .     S
O1267  H1268   1.013   .     S
C1269  O1270   1.223   .     D
C1269  O1271   1.398   .     S
O1271  H1272   1.013   .     S
C1273  O1275   1.398   .     S
C1273  O1274   1.223   .     D
O1275  H1276   1.013   .     S
C1277  O1278   1.223   .     D
C1277  O1279   1.398   .     S
O1279  H1280   1.013   .     S
C1281  O1282   1.223   .     D
C1281  O1283   1.398   .     S
O1283  H1284   1.013   .     S
C1285  C1385   1.419   .     A
C1285  C873    1.406   1_655 A
C1285  C1649   1.489   .     S
C1286  C1653   1.491   .     S
C1286  C1386   1.419   .     A
C1286  C874    1.405   1_655 A
C1287  C1387   1.419   .     A
C1287  C1657   1.491   .     S
C1287  C447    1.405   1_565 S
C1288  C1388   1.419   .     A
C1288  C1661   1.489   .     S
C1288  C448    1.406   1_565 S
C1289  C1665   1.489   .     S
C1289  C1381   1.419   .     A
C1289  C1301   1.406   .     S
C1290  C1669   1.491   .     S
C1290  C1382   1.419   .     A
C1290  C1302   1.405   .     S
C1291  C1383   1.419   .     A
C1291  C1303   1.405   .     A
C1291  C1673   1.491   .     S
C1292  C1384   1.419   .     A
C1292  C1304   1.406   .     A
C1292  C1677   1.489   .     S
C1293  C1305   1.406   .     A
C1293  C1681   1.489   .     S
C1293  C1393   1.419   .     A
C1294  C1685   1.491   .     S
C1294  C1394   1.419   .     A
C1294  C450    1.405   1_565 S
C1295  C1395   1.419   .     A
C1295  C1689   1.491   .     S
C1295  C879    1.405   1_655 S
C1296  C1693   1.489   .     S
C1296  C1396   1.419   .     A
C1296  C1308   1.406   .     A
C1297  C1389   1.419   .     A
C1297  C1697   1.489   .     S
C1297  C449    1.406   1_565 S
C1298  C1306   1.405   .     A
C1298  C1390   1.419   .     A
C1298  C1701   1.491   .     S
C1299  C1705   1.491   .     S
C1299  C1391   1.419   .     A
C1299  C1307   1.405   .     A
C1300  C1709   1.489   .     S
C1300  C1392   1.419   .     A
C1300  C880    1.406   1_655 S
C1301  C1327   1.461   .     S
C1302  C1328   1.457   .     S
C1303  C1325   1.457   .     S
C1304  C1326   1.461   .     S
C1305  C1331   1.461   .     S
C1306  C1332   1.457   .     S
C1307  C1329   1.457   .     S
C1308  C1330   1.461   .     S
C1309  C1381   1.423   .     A
C1309  C1314   1.409   .     A
C1310  C1493   1.489   .     S
C1310  C1313   1.409   .     A
C1310  C954    1.422   1_655 S
C1311  C1316   1.409   .     A
C1311  C1497   1.489   .     S
C1311  C527    1.422   1_565 S
C1312  C1315   1.409   .     A
C1312  C1384   1.423   .     A
C1313  C1385   1.423   .     A
C1313  C1077   1.488   1_655 S
C1314  C1509   1.489   .     S
C1315  C1513   1.489   .     S
C1316  C1388   1.423   .     A
C1316  C661    1.488   1_565 S
C1317  C1389   1.423   .     A
C1317  C1521   1.488   .     S
C1317  C1322   1.409   1_556 S
C1318  C1390   1.422   .     A
C1318  C1525   1.489   .     S
C1318  C1321   1.409   1_554 S
C1319  C1529   1.489   .     S
C1319  C1391   1.422   .     A
C1319  C1324   1.409   1_556 S
C1320  C1392   1.423   .     A
C1320  C1533   1.488   .     S
C1320  C1323   1.409   1_554 S
C1321  C1393   1.423   .     A
C1321  C1537   1.488   .     S
C1321  C1318   1.409   1_556 S
C1322  C1394   1.422   .     A
C1322  C1541   1.489   .     S
C1322  C1317   1.409   1_554 S
C1323  C1395   1.422   .     A
C1323  C1545   1.489   .     S
C1323  C1320   1.409   1_556 S
C1324  C1549   1.488   .     S
C1324  C1396   1.423   .     A
C1324  C1319   1.409   1_554 S
C1325  O1429   1.275   .     A
C1326  O1426   1.276   .     A
C1327  O1427   1.276   .     A
C1328  O1432   1.275   .     A
C1329  O1437   1.275   .     A
C1329  O1433   1.275   .     S
C1330  O1434   1.276   .     A
C1330  O1438   1.276   .     S
C1331  O1435   1.276   .     A
C1331  O1439   1.276   .     A
C1332  O1436   1.275   .     S
C1332  O1440   1.275   .     S
C1333  C1399   1.451   .     S
C1333  O1441   1.278   .     A
C1333  O1467   1.278   .     A
C1334  O1468   1.279   .     A
C1334  O1442   1.279   .     A
C1334  C1400   1.453   .     S
C1335  O1465   1.279   .     A
C1335  O1443   1.279   .     A
C1335  C1401   1.451   .     S
C1336  O1466   1.279   .     A
C1336  O1444   1.279   .     A
C1336  C1402   1.452   .     S
C1337  C1403   1.451   .     S
C1337  O1471   1.278   .     A
C1337  O1445   1.278   .     A
C1338  O1446   1.279   .     A
C1338  O1472   1.279   .     A
C1338  C1404   1.453   .     S
C1339  O1447   1.279   .     A
C1339  C1397   1.451   .     S
C1339  O1469   1.279   .     A
C1340  O1448   1.279   .     A
C1340  O1470   1.279   .     A
C1340  C1398   1.452   .     S
C1341  C1407   1.451   .     S
C1341  O1449   1.279   .     A
C1341  O1459   1.279   .     A
C1342  O1450   1.279   .     A
C1342  O1460   1.279   .     A
C1342  C1408   1.452   .     S
C1343  O1451   1.278   .     A
C1343  C1409   1.451   .     S
C1343  O1457   1.278   .     A
C1344  O1458   1.279   .     A
C1344  O1452   1.279   .     A
C1344  C1410   1.453   .     S
C1345  C1411   1.451   .     S
C1345  O1463   1.279   .     A
C1345  O1453   1.279   .     A
C1346  O1454   1.279   .     A
C1346  O1464   1.279   .     A
C1346  C1412   1.452   .     S
C1347  C1405   1.451   .     S
C1347  O1455   1.278   .     A
C1347  O1461   1.278   .     A
C1348  O1456   1.279   .     A
C1348  O1462   1.279   .     A
C1348  C1406   1.453   .     S
C1349  C1412   1.410   .     A
C1349  N1553   1.435   .     S
C1349  C1364   1.393   .     A
C1350  C1363   1.393   .     A
C1350  C1411   1.410   .     A
C1350  N1556   1.436   .     S
C1351  C1410   1.410   .     A
C1351  N1559   1.434   .     S
C1351  C1362   1.393   .     A
C1352  N1562   1.436   .     S
C1352  C1361   1.393   .     A
C1352  C1409   1.410   .     A
C1353  C1360   1.393   .     A
C1353  C1408   1.410   .     A
C1353  N1565   1.435   .     S
C1354  C1359   1.393   .     A
C1354  N1568   1.436   .     S
C1354  C1407   1.410   .     A
C1355  C1406   1.410   .     A
C1355  C1358   1.393   .     A
C1355  N1571   1.434   .     S
C1356  C1357   1.393   .     A
C1356  N1574   1.436   .     S
C1356  C1405   1.410   .     A
C1357  C1404   1.410   .     A
C1357  N1577   1.434   .     S
C1358  N1580   1.436   .     S
C1358  C1403   1.410   .     A
C1359  N1583   1.435   .     S
C1359  C1402   1.410   .     A
C1360  N1586   1.436   .     S
C1360  C1401   1.410   .     A
C1361  N1589   1.434   .     S
C1361  C1400   1.410   .     A
C1362  C1399   1.410   .     A
C1362  N1592   1.436   .     S
C1363  N1595   1.435   .     S
C1363  C1398   1.410   .     A
C1364  N1598   1.436   .     S
C1364  C1397   1.410   .     A
C1365  C1398   1.410   .     A
C1365  C1380   1.393   .     A
C1365  N1601   1.435   .     S
C1366  N1604   1.436   .     S
C1366  C1379   1.393   .     A
C1366  C1397   1.410   .     A
C1367  C1378   1.393   .     A
C1367  N1607   1.434   .     S
C1367  C1400   1.410   .     A
C1368  N1610   1.436   .     S
C1368  C1377   1.393   .     A
C1368  C1399   1.410   .     A
C1369  C1376   1.393   .     A
C1369  N1613   1.435   .     S
C1369  C1402   1.410   .     A
C1370  N1616   1.436   .     S
C1370  C1401   1.410   .     A
C1370  C1375   1.393   .     A
C1371  N1619   1.434   .     S
C1371  C1374   1.393   .     A
C1371  C1404   1.410   .     A
C1372  C1403   1.410   .     A
C1372  C1373   1.393   .     A
C1372  N1622   1.436   .     S
C1373  N1625   1.434   .     S
C1373  C1406   1.410   .     A
C1374  C1405   1.410   .     A
C1374  N1628   1.436   .     S
C1375  N1631   1.435   .     S
C1375  C1408   1.410   .     A
C1376  C1407   1.410   .     A
C1376  N1634   1.436   .     S
C1377  C1410   1.410   .     A
C1377  N1637   1.434   .     S
C1378  C1409   1.410   .     A
C1378  N1640   1.436   .     S
C1379  C1412   1.410   .     A
C1379  N1643   1.435   .     S
C1380  C1411   1.410   .     A
C1380  N1646   1.436   .     S
C1381  C1413   1.421   .     S
C1382  C1414   1.421   .     S
C1383  C1415   1.421   .     A
C1384  C1416   1.421   .     A
C1385  C985    1.421   1_655 A
C1386  C986    1.421   1_655 A
C1386  C886    1.422   1_655 S
C1387  C459    1.422   1_565 S
C1387  C559    1.421   1_565 S
C1388  C560    1.421   1_565 S
C1389  C561    1.421   1_565 S
C1390  C1418   1.421   .     A
C1391  C1419   1.421   .     S
C1392  C992    1.421   1_655 A
C1393  C1417   1.421   .     A
C1394  C562    1.421   1_565 S
C1395  C991    1.421   1_655 A
C1396  C1420   1.421   .     S
C1413  C1414   1.412   .     A
C1415  C1416   1.412   .     A
C1417  C1418   1.412   1_556 S
C1418  C1417   1.412   1_554 S
C1419  C1420   1.412   1_556 S
C1420  C1419   1.412   1_554 S
O1421  Zn1477  1.946   .     S
O1421  Zn1484  1.946   .     S
O1421  Zn1473  1.946   .     S
O1422  Zn1487  1.946   .     S
O1422  Zn1474  1.946   .     S
O1422  Zn1478  1.946   .     S
O1423  Zn1475  1.946   .     S
O1423  Zn1479  1.946   .     S
O1423  Zn1482  1.946   .     S
O1424  Zn1480  1.946   .     S
O1424  Zn1476  1.946   .     S
O1424  Zn1485  1.946   .     S
O1425  Zn1488  1.951   .     S
O1425  C469    1.275   1_565 S
O1426  Zn1487  1.951   .     S
O1427  Zn1482  1.951   .     S
O1428  Zn1481  1.951   .     S
O1428  C900    1.275   1_655 S
O1429  Zn1484  1.951   .     S
O1430  Zn1483  1.951   .     S
O1430  C470    1.276   1_565 S
O1431  Zn1486  1.951   .     S
O1431  C899    1.276   1_655 S
O1432  Zn1485  1.951   .     S
O1433  Zn1480  1.951   .     S
O1434  Zn1479  1.951   .     S
O1435  Zn1474  1.951   .     S
O1436  Zn1473  1.951   .     S
O1437  Zn1476  1.951   .     S
O1438  Zn1475  1.951   .     S
O1439  Zn1478  1.951   .     S
O1440  Zn1477  1.951   .     S
O1441  Zn1484  1.933   .     S
O1442  Zn1483  1.933   .     S
O1443  Zn1486  1.933   .     S
O1444  Zn1485  1.933   .     S
O1445  Zn1488  1.933   .     S
O1446  Zn1487  1.933   .     S
O1447  Zn1482  1.933   .     S
O1448  Zn1481  1.933   .     S
O1449  Zn1483  1.933   .     S
O1450  Zn1484  1.933   .     S
O1451  Zn1481  1.933   .     S
O1452  Zn1482  1.933   .     S
O1453  Zn1487  1.933   .     S
O1454  Zn1488  1.933   .     S
O1455  Zn1485  1.933   .     S
O1456  Zn1486  1.933   .     S
O1457  Zn1048  1.933   1_655 S
O1458  Zn1475  1.933   .     S
O1459  Zn622   1.933   1_565 S
O1460  Zn1477  1.933   .     S
O1461  Zn1480  1.933   .     S
O1462  Zn1051  1.933   1_655 S
O1463  Zn1474  1.933   .     S
O1464  Zn617   1.933   1_565 S
O1465  Zn1047  1.933   1_655 S
O1466  Zn1476  1.933   .     S
O1467  Zn1473  1.933   .     S
O1468  Zn618   1.933   1_565 S
O1469  Zn1479  1.933   .     S
O1470  Zn1052  1.933   1_655 S
O1471  Zn621   1.933   1_565 S
O1472  Zn1478  1.933   .     S
Zn1481 O996    1.946   1_655 S
Zn1483 O566    1.946   1_565 S
Zn1486 O995    1.946   1_655 S
Zn1488 O565    1.946   1_565 S
C1489  O1490   1.223   .     D
C1489  C881    1.488   1_655 S
C1489  O1063   1.399   1_655 S
O1491  H1492   1.014   .     S
C1493  O1495   1.398   .     S
C1493  O1066   1.223   1_655 S
O1495  H1496   1.014   .     S
C1497  O1499   1.398   .     S
C1497  O642    1.223   1_565 S
O1499  H1500   1.014   .     S
C1501  O1502   1.223   .     D
C1501  C456    1.488   1_565 S
C1501  O647    1.399   1_565 S
O1503  H1504   1.014   .     S
C1505  O1506   1.223   .     D
O1507  H1508   1.014   .     S
O1507  C1077   1.399   1_655 S
C1509  O1511   1.398   .     S
O1510  C1081   1.223   1_655 S
O1511  H1512   1.014   .     S
C1513  O1515   1.398   .     S
O1514  C657    1.223   1_565 S
O1515  H1516   1.014   .     S
C1517  O1518   1.223   .     D
O1519  H1520   1.014   .     S
O1519  C661    1.399   1_565 S
C1521  O1522   1.223   .     D
C1521  O1523   1.399   .     S
O1523  H1524   1.014   .     S
C1525  O1527   1.398   .     S
C1525  O1526   1.223   .     D
O1527  H1528   1.014   .     S
C1529  O1530   1.223   .     D
C1529  O1531   1.398   .     S
O1531  H1532   1.014   .     S
C1533  O1534   1.223   .     D
C1533  O1535   1.399   .     S
O1535  H1536   1.014   .     S
C1537  O1538   1.223   .     D
C1537  O1539   1.399   .     S
O1539  H1540   1.014   .     S
C1541  O1542   1.223   .     D
C1541  O1543   1.398   .     S
O1543  H1544   1.014   .     S
C1545  O1546   1.223   .     D
C1545  O1547   1.398   .     S
O1547  H1548   1.014   .     S
C1549  O1551   1.399   .     S
C1549  O1550   1.223   .     D
O1551  H1552   1.014   .     S
N1553  H1555   1.045   .     S
N1553  H1554   1.046   .     S
N1556  H1557   1.046   .     S
N1556  H1558   1.045   .     S
N1559  H1561   1.045   .     S
N1559  H1560   1.045   .     S
N1562  H1563   1.046   .     S
N1562  H1564   1.045   .     S
N1565  H1567   1.045   .     S
N1565  H1566   1.046   .     S
N1568  H1569   1.046   .     S
N1568  H1570   1.045   .     S
N1571  H1572   1.045   .     S
N1571  H1573   1.045   .     S
N1574  H1575   1.046   .     S
N1574  H1576   1.045   .     S
N1577  H1578   1.045   .     S
N1577  H1579   1.045   .     S
N1580  H1581   1.046   .     S
N1580  H1582   1.045   .     S
N1583  H1584   1.046   .     S
N1583  H1585   1.045   .     S
N1586  H1588   1.045   .     S
N1586  H1587   1.046   .     S
N1589  H1591   1.045   .     S
N1589  H1590   1.045   .     S
N1592  H1594   1.045   .     S
N1592  H1593   1.046   .     S
N1595  H1597   1.045   .     S
N1595  H1596   1.046   .     S
N1598  H1599   1.046   .     S
N1598  H1600   1.045   .     S
N1601  H1603   1.045   .     S
N1601  H1602   1.046   .     S
N1604  H1606   1.045   .     S
N1604  H1605   1.046   .     S
N1607  H1608   1.045   .     S
N1607  H1609   1.045   .     S
N1610  H1611   1.046   .     S
N1610  H1612   1.045   .     S
N1613  H1615   1.045   .     S
N1613  H1614   1.046   .     S
N1616  H1617   1.046   .     S
N1616  H1618   1.045   .     S
N1619  H1621   1.045   .     S
N1619  H1620   1.045   .     S
N1622  H1624   1.045   .     S
N1622  H1623   1.046   .     S
N1625  H1626   1.045   .     S
N1625  H1627   1.045   .     S
N1628  H1629   1.046   .     S
N1628  H1630   1.045   .     S
N1631  H1632   1.046   .     S
N1631  H1633   1.045   .     S
N1634  H1635   1.046   .     S
N1634  H1636   1.045   .     S
N1637  H1639   1.045   .     S
N1637  H1638   1.045   .     S
N1640  H1642   1.045   .     S
N1640  H1641   1.046   .     S
N1643  H1644   1.046   .     S
N1643  H1645   1.045   .     S
N1646  H1647   1.046   .     S
N1646  H1648   1.045   .     S
C1649  O1650   1.223   .     D
C1649  O1651   1.398   .     S
O1651  H1652   1.013   .     S
C1653  O1655   1.398   .     S
C1653  O1654   1.223   .     D
O1655  H1656   1.013   .     S
C1657  O1659   1.398   .     S
C1657  O1658   1.223   .     D
O1659  H1660   1.013   .     S
C1661  O1663   1.398   .     S
C1661  O1662   1.223   .     D
O1663  H1664   1.013   .     S
C1665  O1666   1.223   .     D
C1665  O1667   1.398   .     S
O1667  H1668   1.013   .     S
C1669  O1671   1.398   .     S
C1669  O1670   1.223   .     D
O1671  H1672   1.013   .     S
C1673  O1675   1.398   .     S
C1673  O1674   1.223   .     D
O1675  H1676   1.013   .     S
C1677  O1678   1.223   .     D
C1677  O1679   1.398   .     S
O1679  H1680   1.013   .     S
C1681  O1683   1.398   .     S
C1681  O1682   1.223   .     D
O1683  H1684   1.013   .     S
C1685  O1686   1.223   .     D
C1685  O1687   1.398   .     S
O1687  H1688   1.013   .     S
C1689  O1690   1.223   .     D
C1689  O1691   1.398   .     S
O1691  H1692   1.013   .     S
C1693  O1694   1.223   .     D
C1693  O1695   1.398   .     S
O1695  H1696   1.013   .     S
C1697  O1698   1.223   .     D
C1697  O1699   1.398   .     S
O1699  H1700   1.013   .     S
C1701  O1703   1.398   .     S
C1701  O1702   1.223   .     D
O1703  H1704   1.013   .     S
C1705  O1706   1.223   .     D
C1705  O1707   1.398   .     S
O1707  H1708   1.013   .     S
C1709  O1710   1.223   .     D
C1709  O1711   1.398   .     S
O1711  H1712   1.013   .     S
