data_str_m1_o10_o18_pcu_sym.166
_audit_creation_date              2020-01-03
_audit_creation_method            'Materials Studio'
_symmetry_space_group_name_H-M    'P1'
_symmetry_Int_Tables_number       1
_symmetry_cell_setting            triclinic
loop_
_symmetry_equiv_pos_as_xyz
  x,y,z
_cell_length_a                    32.4697
_cell_length_b                    32.6289
_cell_length_c                    35.7001
_cell_angle_alpha                 99.0228
_cell_angle_beta                  72.6537
_cell_angle_gamma                 98.6238
loop_
_atom_site_label
_atom_site_type_symbol
_atom_site_fract_x
_atom_site_fract_y
_atom_site_fract_z
_atom_site_U_iso_or_equiv
_atom_site_adp_type
_atom_site_occupancy
C1     C     0.05229   0.15982   0.25918   0.00000  Uiso   1.00
C2     C     0.18904   0.12818   0.46097   0.00000  Uiso   1.00
C3     C     0.20558   0.10350   0.48019   0.00000  Uiso   1.00
C4     C     0.28109   0.17358   0.24104   0.00000  Uiso   1.00
C5     C     0.19909   0.11179   0.02156   0.00000  Uiso   1.00
C6     C     0.17976   0.14859   0.04210   0.00000  Uiso   1.00
C7     C     0.21162   0.08498   0.04316   0.00000  Uiso   1.00
C8     C     0.20911   0.09721   0.08293   0.00000  Uiso   1.00
C9     C     0.18262   0.16224   0.08120   0.00000  Uiso   1.00
C10    C     0.32753   0.17551   0.23645   0.00000  Uiso   1.00
C11    C     0.00699   0.15876   0.26249   0.00000  Uiso   1.00
C12    C     0.09789   0.21824   0.42267   0.00000  Uiso   1.00
C13    C     0.18281   0.32316   0.24221   0.00000  Uiso   1.00
C14    C     0.15021   0.01296   0.26270   0.00000  Uiso   1.00
C15    C     0.15598   0.05639   0.25865   0.00000  Uiso   1.00
C16    C     0.17711   0.27787   0.24220   0.00000  Uiso   1.00
C17    C     0.18820   0.14494   0.14400   0.00000  Uiso   1.00
C18    C     0.14511   0.18813   0.35641   0.00000  Uiso   1.00
C19    C     0.13441   0.19744   0.40015   0.00000  Uiso   1.00
C20    C     0.19559   0.13561   0.10147   0.00000  Uiso   1.00
C21    C     0.08895   0.22598   0.46411   0.00000  Uiso   1.00
C22    C     0.09977   0.28474   0.05338   0.00000  Uiso   1.00
C23    C     0.16176   0.18581   0.41973   0.00000  Uiso   1.00
C24    C     0.06789   0.31542   0.07780   0.00000  Uiso   1.00
C25    C     0.09131   0.02562   0.08468   0.00000  Uiso   1.00
C26    C     0.22320   0.04223   0.02707   0.00000  Uiso   1.00
C27    C     0.03253   0.23405   0.21073   0.00000  Uiso   1.00
C28    C     0.06697   0.24995   0.17486   0.00000  Uiso   1.00
C29    C     0.07806   0.29718   0.18124   0.00000  Uiso   1.00
C30    C     0.25793   0.00400   0.22674   0.00000  Uiso   1.00
C31    C     0.27121   0.04321   0.25203   0.00000  Uiso   1.00
C32    C     0.31472   0.04073   0.25939   0.00000  Uiso   1.00
C33    C     0.10871   0.33152   0.29076   0.00000  Uiso   1.00
C34    C     0.14790   0.18599   0.46133   0.00000  Uiso   1.00
C35    C     0.20751   0.23101   0.09149   0.00000  Uiso   1.00
C36    C     0.19769   0.27124   0.11920   0.00000  Uiso   1.00
C37    C     0.23743   0.30366   0.11362   0.00000  Uiso   1.00
C38    C     0.27257   0.08281   0.44627   0.00000  Uiso   1.00
C39    C     0.28713   0.09621   0.40464   0.00000  Uiso   1.00
C40    C     0.00318   0.10339   0.38946   0.00000  Uiso   1.00
C41    C     0.01555   0.21673   0.49201   0.00000  Uiso   1.00
C42    C     0.31005   0.23793   0.49192   0.00000  Uiso   1.00
C43    C     0.27134   0.20584   0.49001   0.00000  Uiso   1.00
C44    C     0.06779   0.23202   0.40423   0.00000  Uiso   1.00
C45    C     0.11437   0.21057   0.48361   0.00000  Uiso   1.00
C46    C     0.23398   0.21123   0.40245   0.00000  Uiso   1.00
C47    C     0.24159   0.23931   0.36984   0.00000  Uiso   1.00
C48    C     0.27680   0.27538   0.37266   0.00000  Uiso   1.00
C49    C     0.16654   0.16239   0.48118   0.00000  Uiso   1.00
C50    C     0.15872   0.17040   0.02271   0.00000  Uiso   1.00
C51    C     0.12734   0.19739   0.04391   0.00000  Uiso   1.00
C52    C     0.10625   0.21803   0.02501   0.00000  Uiso   1.00
H53    H     0.31730   0.14691   0.28846   0.00000  Uiso   1.00
H54    H     0.06746   0.04704   0.10298   0.00000  Uiso   1.00
H55    H     0.10771   0.03809   0.05605   0.00000  Uiso   1.00
H56    H     0.20692   0.31913   0.49979   0.00000  Uiso   1.00
H57    H     0.04498   0.24296   0.23714   0.00000  Uiso   1.00
H58    H     0.00252   0.24922   0.21557   0.00000  Uiso   1.00
H59    H     0.09693   0.23461   0.16932   0.00000  Uiso   1.00
H60    H     0.05478   0.24176   0.14835   0.00000  Uiso   1.00
H61    H     0.04849   0.31322   0.18742   0.00000  Uiso   1.00
H62    H     0.10193   0.30788   0.15426   0.00000  Uiso   1.00
H63    H     0.09258   0.30582   0.20625   0.00000  Uiso   1.00
H64    H     0.21689   0.07622   0.09999   0.00000  Uiso   1.00
H65    H     0.28425   0.33307   0.19869   0.00000  Uiso   1.00
H66    H     0.25540   0.30965   0.24233   0.00000  Uiso   1.00
H67    H     0.27376   0.07112   0.23687   0.00000  Uiso   1.00
H68    H     0.24609   0.04660   0.28096   0.00000  Uiso   1.00
H69    H     0.31334   0.01239   0.27356   0.00000  Uiso   1.00
H70    H     0.32244   0.06856   0.27937   0.00000  Uiso   1.00
H71    H     0.00766   0.03991   0.23110   0.00000  Uiso   1.00
H72    H     0.07865   0.30837   0.34235   0.00000  Uiso   1.00
H73    H     0.21346   0.23791   0.06072   0.00000  Uiso   1.00
H74    H     0.23724   0.22041   0.09478   0.00000  Uiso   1.00
H75    H     0.11568   0.20085   0.07569   0.00000  Uiso   1.00
H76    H     0.17094   0.28430   0.11319   0.00000  Uiso   1.00
H77    H     0.18695   0.26433   0.15036   0.00000  Uiso   1.00
H78    H     0.26365   0.29231   0.12204   0.00000  Uiso   1.00
H79    H     0.22858   0.33317   0.13266   0.00000  Uiso   1.00
H80    H     0.24954   0.31007   0.08235   0.00000  Uiso   1.00
H81    H     0.28896   0.05511   0.44583   0.00000  Uiso   1.00
H82    H     0.28361   0.10780   0.46751   0.00000  Uiso   1.00
H83    H     0.27480   0.07162   0.38409   0.00000  Uiso   1.00
H84    H     0.27353   0.12555   0.40501   0.00000  Uiso   1.00
H85    H     0.01634   0.12716   0.41005   0.00000  Uiso   1.00
H86    H     0.19165   0.11785   0.43020   0.00000  Uiso   1.00
H87    H     0.01267   0.11464   0.35994   0.00000  Uiso   1.00
H88    H     0.01749   0.07380   0.38660   0.00000  Uiso   1.00
H89    H     0.00931   0.20554   0.02126   0.00000  Uiso   1.00
H90    H     0.01845   0.18872   0.46925   0.00000  Uiso   1.00
H91    H     0.30113   0.26038   0.01911   0.00000  Uiso   1.00
H92    H     0.31858   0.25546   0.46587   0.00000  Uiso   1.00
H93    H     0.27885   0.18490   0.46175   0.00000  Uiso   1.00
H94    H     0.24302   0.22203   0.49178   0.00000  Uiso   1.00
H95    H     0.26326   0.18686   0.01494   0.00000  Uiso   1.00
H96    H     0.02467   0.21563   0.37241   0.00000  Uiso   1.00
H97    H     0.11663   0.29644   0.02434   0.00000  Uiso   1.00
H98    H     0.26507   0.19906   0.39956   0.00000  Uiso   1.00
H99    H     0.22512   0.23002   0.43206   0.00000  Uiso   1.00
H100   H     0.25144   0.22053   0.34044   0.00000  Uiso   1.00
H101   H     0.21110   0.25250   0.37251   0.00000  Uiso   1.00
H102   H     0.26736   0.29487   0.40169   0.00000  Uiso   1.00
H103   H     0.28124   0.29525   0.34887   0.00000  Uiso   1.00
H104   H     0.30812   0.26333   0.36906   0.00000  Uiso   1.00
H105   H     0.12410   0.28343   0.06943   0.00000  Uiso   1.00
H106   H     0.04350   0.31721   0.06206   0.00000  Uiso   1.00
H107   H     0.05054   0.30413   0.10680   0.00000  Uiso   1.00
H108   H     0.11588   0.02462   0.10042   0.00000  Uiso   1.00
O109   O     0.16667   0.16667   0.25000   0.00000  Uiso   1.00
O110   O     0.15693   0.12393   0.16625   0.00000  Uiso   1.00
O111   O     0.12687   0.20646   0.33749   0.00000  Uiso   1.00
O112   O     0.21088   0.17493   0.15877   0.00000  Uiso   1.00
O113   O     0.17198   0.16135   0.33749   0.00000  Uiso   1.00
O114   O     0.07682   0.24494   0.04791   0.00000  Uiso   1.00
O115   O     0.25584   0.03106   0.03097   0.00000  Uiso   1.00
O116   O     0.19589   0.01419   0.00894   0.00000  Uiso   1.00
O117   O     0.02419   0.19025   0.20338   0.00000  Uiso   1.00
O118   O     0.21978   0.00870   0.21686   0.00000  Uiso   1.00
O119   O     0.07427   0.00118   0.28460   0.00000  Uiso   1.00
O120   O     0.17849   0.08101   0.27821   0.00000  Uiso   1.00
O121   O     0.10899   0.31682   0.32541   0.00000  Uiso   1.00
O122   O     0.17131   0.20075   0.10099   0.00000  Uiso   1.00
O123   O     0.22726   0.07059   0.45761   0.00000  Uiso   1.00
O124   O     0.05302   0.24616   0.48556   0.00000  Uiso   1.00
O125   O     0.06250   0.26897   0.40847   0.00000  Uiso   1.00
O126   O     0.04442   0.20255   0.38328   0.00000  Uiso   1.00
O127   O     0.20314   0.17646   0.39802   0.00000  Uiso   1.00
O128   O     0.14581   0.26136   0.26767   0.00000  Uiso   1.00
O129   O     0.07452   0.13251   0.23607   0.00000  Uiso   1.00
O130   O     0.26785   0.19179   0.21806   0.00000  Uiso   1.00
O131   O     0.06990   0.18960   0.27820   0.00000  Uiso   1.00
O132   O     0.25440   0.15277   0.26768   0.00000  Uiso   1.00
O133   O     0.13800   0.06903   0.23607   0.00000  Uiso   1.00
O134   O     0.20437   0.25527   0.21806   0.00000  Uiso   1.00
Zn135  Zn    0.19244   0.14090   0.28278   0.00000  Uiso   1.00
Zn136  Zn    0.13459   0.12378   0.22258   0.00000  Uiso   1.00
Zn137  Zn    0.21166   0.19664   0.21188   0.00000  Uiso   1.00
Zn138  Zn    0.12798   0.20535   0.28277   0.00000  Uiso   1.00
C139   C     0.38562   0.15982   0.25918   0.00000  Uiso   1.00
C140   C     0.52237   0.12818   0.46097   0.00000  Uiso   1.00
C141   C     0.53891   0.10350   0.48019   0.00000  Uiso   1.00
C142   C     0.61443   0.17358   0.24104   0.00000  Uiso   1.00
C143   C     0.53243   0.11179   0.02156   0.00000  Uiso   1.00
C144   C     0.51309   0.14859   0.04210   0.00000  Uiso   1.00
C145   C     0.54495   0.08498   0.04316   0.00000  Uiso   1.00
C146   C     0.54244   0.09721   0.08293   0.00000  Uiso   1.00
C147   C     0.51595   0.16224   0.08120   0.00000  Uiso   1.00
C148   C     0.66086   0.17551   0.23645   0.00000  Uiso   1.00
C149   C     0.34032   0.15876   0.26249   0.00000  Uiso   1.00
C150   C     0.43123   0.21824   0.42267   0.00000  Uiso   1.00
C151   C     0.51614   0.32316   0.24221   0.00000  Uiso   1.00
C152   C     0.48355   0.01296   0.26270   0.00000  Uiso   1.00
C153   C     0.48931   0.05639   0.25865   0.00000  Uiso   1.00
C154   C     0.51044   0.27787   0.24220   0.00000  Uiso   1.00
C155   C     0.52153   0.14494   0.14400   0.00000  Uiso   1.00
C156   C     0.47845   0.18813   0.35641   0.00000  Uiso   1.00
C157   C     0.46774   0.19744   0.40015   0.00000  Uiso   1.00
C158   C     0.52892   0.13561   0.10147   0.00000  Uiso   1.00
C159   C     0.42228   0.22598   0.46411   0.00000  Uiso   1.00
C160   C     0.43310   0.28474   0.05338   0.00000  Uiso   1.00
C161   C     0.49509   0.18581   0.41973   0.00000  Uiso   1.00
C162   C     0.40122   0.31542   0.07780   0.00000  Uiso   1.00
C163   C     0.42465   0.02562   0.08468   0.00000  Uiso   1.00
C164   C     0.55653   0.04223   0.02707   0.00000  Uiso   1.00
C165   C     0.36587   0.23405   0.21073   0.00000  Uiso   1.00
C166   C     0.40030   0.24995   0.17486   0.00000  Uiso   1.00
C167   C     0.41140   0.29718   0.18124   0.00000  Uiso   1.00
C168   C     0.59126   0.00400   0.22674   0.00000  Uiso   1.00
C169   C     0.60455   0.04321   0.25203   0.00000  Uiso   1.00
C170   C     0.64805   0.04073   0.25939   0.00000  Uiso   1.00
C171   C     0.44205   0.33152   0.29076   0.00000  Uiso   1.00
C172   C     0.48123   0.18599   0.46133   0.00000  Uiso   1.00
C173   C     0.54084   0.23101   0.09149   0.00000  Uiso   1.00
C174   C     0.53102   0.27124   0.11920   0.00000  Uiso   1.00
C175   C     0.57076   0.30366   0.11362   0.00000  Uiso   1.00
C176   C     0.60591   0.08281   0.44627   0.00000  Uiso   1.00
C177   C     0.62046   0.09621   0.40464   0.00000  Uiso   1.00
C178   C     0.33651   0.10339   0.38946   0.00000  Uiso   1.00
C179   C     0.34888   0.21673   0.49201   0.00000  Uiso   1.00
C180   C     0.64338   0.23793   0.49192   0.00000  Uiso   1.00
C181   C     0.60467   0.20584   0.49001   0.00000  Uiso   1.00
C182   C     0.40112   0.23202   0.40423   0.00000  Uiso   1.00
C183   C     0.44770   0.21057   0.48361   0.00000  Uiso   1.00
C184   C     0.56731   0.21123   0.40245   0.00000  Uiso   1.00
C185   C     0.57492   0.23931   0.36984   0.00000  Uiso   1.00
C186   C     0.61013   0.27538   0.37266   0.00000  Uiso   1.00
C187   C     0.49987   0.16239   0.48118   0.00000  Uiso   1.00
C188   C     0.49205   0.17040   0.02271   0.00000  Uiso   1.00
C189   C     0.46067   0.19739   0.04391   0.00000  Uiso   1.00
C190   C     0.43958   0.21803   0.02501   0.00000  Uiso   1.00
H191   H     0.65064   0.14691   0.28846   0.00000  Uiso   1.00
H192   H     0.40079   0.04704   0.10298   0.00000  Uiso   1.00
H193   H     0.44104   0.03809   0.05605   0.00000  Uiso   1.00
H194   H     0.54026   0.31913   0.49979   0.00000  Uiso   1.00
H195   H     0.37831   0.24296   0.23714   0.00000  Uiso   1.00
H196   H     0.33586   0.24922   0.21557   0.00000  Uiso   1.00
H197   H     0.43026   0.23461   0.16932   0.00000  Uiso   1.00
H198   H     0.38812   0.24176   0.14835   0.00000  Uiso   1.00
H199   H     0.38182   0.31322   0.18742   0.00000  Uiso   1.00
H200   H     0.43526   0.30788   0.15426   0.00000  Uiso   1.00
H201   H     0.42591   0.30582   0.20625   0.00000  Uiso   1.00
H202   H     0.55023   0.07622   0.09999   0.00000  Uiso   1.00
H203   H     0.61759   0.33307   0.19869   0.00000  Uiso   1.00
H204   H     0.58873   0.30965   0.24233   0.00000  Uiso   1.00
H205   H     0.60710   0.07112   0.23687   0.00000  Uiso   1.00
H206   H     0.57942   0.04660   0.28096   0.00000  Uiso   1.00
H207   H     0.64668   0.01239   0.27356   0.00000  Uiso   1.00
H208   H     0.65578   0.06856   0.27937   0.00000  Uiso   1.00
H209   H     0.34100   0.03991   0.23110   0.00000  Uiso   1.00
H210   H     0.41199   0.30837   0.34235   0.00000  Uiso   1.00
H211   H     0.54679   0.23791   0.06072   0.00000  Uiso   1.00
H212   H     0.57057   0.22041   0.09478   0.00000  Uiso   1.00
H213   H     0.44901   0.20085   0.07569   0.00000  Uiso   1.00
H214   H     0.50427   0.28430   0.11319   0.00000  Uiso   1.00
H215   H     0.52028   0.26433   0.15036   0.00000  Uiso   1.00
H216   H     0.59698   0.29231   0.12204   0.00000  Uiso   1.00
H217   H     0.56191   0.33317   0.13266   0.00000  Uiso   1.00
H218   H     0.58288   0.31007   0.08235   0.00000  Uiso   1.00
H219   H     0.62229   0.05511   0.44583   0.00000  Uiso   1.00
H220   H     0.61694   0.10780   0.46751   0.00000  Uiso   1.00
H221   H     0.60813   0.07162   0.38409   0.00000  Uiso   1.00
H222   H     0.60686   0.12555   0.40501   0.00000  Uiso   1.00
H223   H     0.34967   0.12716   0.41005   0.00000  Uiso   1.00
H224   H     0.52498   0.11785   0.43020   0.00000  Uiso   1.00
H225   H     0.34600   0.11464   0.35994   0.00000  Uiso   1.00
H226   H     0.35082   0.07380   0.38660   0.00000  Uiso   1.00
H227   H     0.34265   0.20554   0.02126   0.00000  Uiso   1.00
H228   H     0.35178   0.18872   0.46925   0.00000  Uiso   1.00
H229   H     0.63446   0.26038   0.01911   0.00000  Uiso   1.00
H230   H     0.65192   0.25546   0.46587   0.00000  Uiso   1.00
H231   H     0.61219   0.18490   0.46175   0.00000  Uiso   1.00
H232   H     0.57636   0.22203   0.49178   0.00000  Uiso   1.00
H233   H     0.59659   0.18686   0.01494   0.00000  Uiso   1.00
H234   H     0.35801   0.21563   0.37241   0.00000  Uiso   1.00
H235   H     0.44996   0.29644   0.02434   0.00000  Uiso   1.00
H236   H     0.59840   0.19906   0.39956   0.00000  Uiso   1.00
H237   H     0.55845   0.23002   0.43206   0.00000  Uiso   1.00
H238   H     0.58477   0.22053   0.34044   0.00000  Uiso   1.00
H239   H     0.54444   0.25250   0.37251   0.00000  Uiso   1.00
H240   H     0.60069   0.29487   0.40169   0.00000  Uiso   1.00
H241   H     0.61458   0.29525   0.34887   0.00000  Uiso   1.00
H242   H     0.64146   0.26333   0.36906   0.00000  Uiso   1.00
H243   H     0.45743   0.28343   0.06943   0.00000  Uiso   1.00
H244   H     0.37683   0.31721   0.06206   0.00000  Uiso   1.00
H245   H     0.38388   0.30413   0.10680   0.00000  Uiso   1.00
H246   H     0.44921   0.02462   0.10042   0.00000  Uiso   1.00
O247   O     0.50000   0.16667   0.25000   0.00000  Uiso   1.00
O248   O     0.49027   0.12393   0.16625   0.00000  Uiso   1.00
O249   O     0.46020   0.20646   0.33749   0.00000  Uiso   1.00
O250   O     0.54421   0.17493   0.15877   0.00000  Uiso   1.00
O251   O     0.50532   0.16135   0.33749   0.00000  Uiso   1.00
O252   O     0.41015   0.24494   0.04791   0.00000  Uiso   1.00
O253   O     0.58917   0.03106   0.03097   0.00000  Uiso   1.00
O254   O     0.52923   0.01419   0.00894   0.00000  Uiso   1.00
O255   O     0.35753   0.19025   0.20338   0.00000  Uiso   1.00
O256   O     0.55312   0.00870   0.21686   0.00000  Uiso   1.00
O257   O     0.40760   0.00118   0.28460   0.00000  Uiso   1.00
O258   O     0.51182   0.08101   0.27821   0.00000  Uiso   1.00
O259   O     0.44232   0.31682   0.32541   0.00000  Uiso   1.00
O260   O     0.50464   0.20075   0.10099   0.00000  Uiso   1.00
O261   O     0.56059   0.07059   0.45761   0.00000  Uiso   1.00
O262   O     0.38635   0.24616   0.48556   0.00000  Uiso   1.00
O263   O     0.39584   0.26897   0.40847   0.00000  Uiso   1.00
O264   O     0.37776   0.20255   0.38328   0.00000  Uiso   1.00
O265   O     0.53648   0.17646   0.39802   0.00000  Uiso   1.00
O266   O     0.47914   0.26136   0.26767   0.00000  Uiso   1.00
O267   O     0.40785   0.13251   0.23607   0.00000  Uiso   1.00
O268   O     0.60119   0.19179   0.21806   0.00000  Uiso   1.00
O269   O     0.40323   0.18960   0.27820   0.00000  Uiso   1.00
O270   O     0.58773   0.15277   0.26768   0.00000  Uiso   1.00
O271   O     0.47133   0.06903   0.23607   0.00000  Uiso   1.00
O272   O     0.53771   0.25527   0.21806   0.00000  Uiso   1.00
Zn273  Zn    0.52577   0.14090   0.28278   0.00000  Uiso   1.00
Zn274  Zn    0.46792   0.12378   0.22258   0.00000  Uiso   1.00
Zn275  Zn    0.54500   0.19664   0.21188   0.00000  Uiso   1.00
Zn276  Zn    0.46131   0.20535   0.28277   0.00000  Uiso   1.00
C277   C     0.71896   0.15982   0.25918   0.00000  Uiso   1.00
C278   C     0.85570   0.12818   0.46097   0.00000  Uiso   1.00
C279   C     0.87225   0.10350   0.48019   0.00000  Uiso   1.00
C280   C     0.94776   0.17358   0.24104   0.00000  Uiso   1.00
C281   C     0.86576   0.11179   0.02156   0.00000  Uiso   1.00
C282   C     0.84643   0.14859   0.04210   0.00000  Uiso   1.00
C283   C     0.87828   0.08498   0.04316   0.00000  Uiso   1.00
C284   C     0.87577   0.09721   0.08293   0.00000  Uiso   1.00
C285   C     0.84928   0.16224   0.08120   0.00000  Uiso   1.00
C286   C     0.99419   0.17551   0.23645   0.00000  Uiso   1.00
C287   C     0.67366   0.15876   0.26249   0.00000  Uiso   1.00
C288   C     0.76456   0.21824   0.42267   0.00000  Uiso   1.00
C289   C     0.84947   0.32316   0.24221   0.00000  Uiso   1.00
C290   C     0.81688   0.01296   0.26270   0.00000  Uiso   1.00
C291   C     0.82265   0.05639   0.25865   0.00000  Uiso   1.00
C292   C     0.84377   0.27787   0.24220   0.00000  Uiso   1.00
C293   C     0.85486   0.14494   0.14400   0.00000  Uiso   1.00
C294   C     0.81178   0.18813   0.35641   0.00000  Uiso   1.00
C295   C     0.80108   0.19744   0.40015   0.00000  Uiso   1.00
C296   C     0.86226   0.13561   0.10147   0.00000  Uiso   1.00
C297   C     0.75561   0.22598   0.46411   0.00000  Uiso   1.00
C298   C     0.76643   0.28474   0.05338   0.00000  Uiso   1.00
C299   C     0.82843   0.18581   0.41973   0.00000  Uiso   1.00
C300   C     0.73456   0.31542   0.07780   0.00000  Uiso   1.00
C301   C     0.75798   0.02562   0.08468   0.00000  Uiso   1.00
C302   C     0.88987   0.04223   0.02707   0.00000  Uiso   1.00
C303   C     0.69920   0.23405   0.21073   0.00000  Uiso   1.00
C304   C     0.73364   0.24995   0.17486   0.00000  Uiso   1.00
C305   C     0.74473   0.29718   0.18124   0.00000  Uiso   1.00
C306   C     0.92459   0.00400   0.22674   0.00000  Uiso   1.00
C307   C     0.93788   0.04321   0.25203   0.00000  Uiso   1.00
C308   C     0.98139   0.04073   0.25939   0.00000  Uiso   1.00
C309   C     0.77538   0.33152   0.29076   0.00000  Uiso   1.00
C310   C     0.81457   0.18599   0.46133   0.00000  Uiso   1.00
C311   C     0.87417   0.23101   0.09149   0.00000  Uiso   1.00
C312   C     0.86435   0.27124   0.11920   0.00000  Uiso   1.00
C313   C     0.90409   0.30366   0.11362   0.00000  Uiso   1.00
C314   C     0.93924   0.08281   0.44627   0.00000  Uiso   1.00
C315   C     0.95380   0.09621   0.40464   0.00000  Uiso   1.00
C316   C     0.66984   0.10339   0.38946   0.00000  Uiso   1.00
C317   C     0.68221   0.21673   0.49201   0.00000  Uiso   1.00
C318   C     0.97671   0.23793   0.49192   0.00000  Uiso   1.00
C319   C     0.93801   0.20584   0.49001   0.00000  Uiso   1.00
C320   C     0.73446   0.23202   0.40423   0.00000  Uiso   1.00
C321   C     0.78104   0.21057   0.48361   0.00000  Uiso   1.00
C322   C     0.90064   0.21123   0.40245   0.00000  Uiso   1.00
C323   C     0.90826   0.23931   0.36984   0.00000  Uiso   1.00
C324   C     0.94347   0.27538   0.37266   0.00000  Uiso   1.00
C325   C     0.83321   0.16239   0.48118   0.00000  Uiso   1.00
C326   C     0.82538   0.17040   0.02271   0.00000  Uiso   1.00
C327   C     0.79401   0.19739   0.04391   0.00000  Uiso   1.00
C328   C     0.77291   0.21803   0.02501   0.00000  Uiso   1.00
H329   H     0.98397   0.14691   0.28846   0.00000  Uiso   1.00
H330   H     0.73412   0.04704   0.10298   0.00000  Uiso   1.00
H331   H     0.77437   0.03809   0.05605   0.00000  Uiso   1.00
H332   H     0.87359   0.31913   0.49979   0.00000  Uiso   1.00
H333   H     0.71165   0.24296   0.23714   0.00000  Uiso   1.00
H334   H     0.66919   0.24922   0.21557   0.00000  Uiso   1.00
H335   H     0.76360   0.23461   0.16932   0.00000  Uiso   1.00
H336   H     0.72145   0.24176   0.14835   0.00000  Uiso   1.00
H337   H     0.71516   0.31322   0.18742   0.00000  Uiso   1.00
H338   H     0.76860   0.30788   0.15426   0.00000  Uiso   1.00
H339   H     0.75925   0.30582   0.20625   0.00000  Uiso   1.00
H340   H     0.88356   0.07622   0.09999   0.00000  Uiso   1.00
H341   H     0.95092   0.33307   0.19869   0.00000  Uiso   1.00
H342   H     0.92206   0.30965   0.24233   0.00000  Uiso   1.00
H343   H     0.94043   0.07112   0.23687   0.00000  Uiso   1.00
H344   H     0.91275   0.04660   0.28096   0.00000  Uiso   1.00
H345   H     0.98001   0.01239   0.27356   0.00000  Uiso   1.00
H346   H     0.98911   0.06856   0.27937   0.00000  Uiso   1.00
H347   H     0.67433   0.03991   0.23110   0.00000  Uiso   1.00
H348   H     0.74532   0.30837   0.34235   0.00000  Uiso   1.00
H349   H     0.88013   0.23791   0.06072   0.00000  Uiso   1.00
H350   H     0.90391   0.22041   0.09478   0.00000  Uiso   1.00
H351   H     0.78235   0.20085   0.07569   0.00000  Uiso   1.00
H352   H     0.83761   0.28430   0.11319   0.00000  Uiso   1.00
H353   H     0.85362   0.26433   0.15036   0.00000  Uiso   1.00
H354   H     0.93032   0.29231   0.12204   0.00000  Uiso   1.00
H355   H     0.89525   0.33317   0.13266   0.00000  Uiso   1.00
H356   H     0.91621   0.31007   0.08235   0.00000  Uiso   1.00
H357   H     0.95562   0.05511   0.44583   0.00000  Uiso   1.00
H358   H     0.95028   0.10780   0.46751   0.00000  Uiso   1.00
H359   H     0.94147   0.07162   0.38409   0.00000  Uiso   1.00
H360   H     0.94019   0.12555   0.40501   0.00000  Uiso   1.00
H361   H     0.68300   0.12716   0.41005   0.00000  Uiso   1.00
H362   H     0.85832   0.11785   0.43020   0.00000  Uiso   1.00
H363   H     0.67933   0.11464   0.35994   0.00000  Uiso   1.00
H364   H     0.68415   0.07380   0.38660   0.00000  Uiso   1.00
H365   H     0.67598   0.20554   0.02126   0.00000  Uiso   1.00
H366   H     0.68511   0.18872   0.46925   0.00000  Uiso   1.00
H367   H     0.96780   0.26038   0.01911   0.00000  Uiso   1.00
H368   H     0.98525   0.25546   0.46587   0.00000  Uiso   1.00
H369   H     0.94552   0.18490   0.46175   0.00000  Uiso   1.00
H370   H     0.90969   0.22203   0.49178   0.00000  Uiso   1.00
H371   H     0.92993   0.18686   0.01494   0.00000  Uiso   1.00
H372   H     0.69134   0.21563   0.37241   0.00000  Uiso   1.00
H373   H     0.78329   0.29644   0.02434   0.00000  Uiso   1.00
H374   H     0.93174   0.19906   0.39956   0.00000  Uiso   1.00
H375   H     0.89179   0.23002   0.43206   0.00000  Uiso   1.00
H376   H     0.91810   0.22053   0.34044   0.00000  Uiso   1.00
H377   H     0.87777   0.25250   0.37251   0.00000  Uiso   1.00
H378   H     0.93403   0.29487   0.40169   0.00000  Uiso   1.00
H379   H     0.94791   0.29525   0.34887   0.00000  Uiso   1.00
H380   H     0.97479   0.26333   0.36906   0.00000  Uiso   1.00
H381   H     0.79076   0.28343   0.06943   0.00000  Uiso   1.00
H382   H     0.71016   0.31721   0.06206   0.00000  Uiso   1.00
H383   H     0.71721   0.30413   0.10680   0.00000  Uiso   1.00
H384   H     0.78255   0.02462   0.10042   0.00000  Uiso   1.00
O385   O     0.83333   0.16667   0.25000   0.00000  Uiso   1.00
O386   O     0.82360   0.12393   0.16625   0.00000  Uiso   1.00
O387   O     0.79354   0.20646   0.33749   0.00000  Uiso   1.00
O388   O     0.87755   0.17493   0.15877   0.00000  Uiso   1.00
O389   O     0.83865   0.16135   0.33749   0.00000  Uiso   1.00
O390   O     0.74348   0.24494   0.04791   0.00000  Uiso   1.00
O391   O     0.92250   0.03106   0.03097   0.00000  Uiso   1.00
O392   O     0.86256   0.01419   0.00894   0.00000  Uiso   1.00
O393   O     0.69086   0.19025   0.20338   0.00000  Uiso   1.00
O394   O     0.88645   0.00870   0.21686   0.00000  Uiso   1.00
O395   O     0.74093   0.00118   0.28460   0.00000  Uiso   1.00
O396   O     0.84515   0.08101   0.27821   0.00000  Uiso   1.00
O397   O     0.77566   0.31682   0.32541   0.00000  Uiso   1.00
O398   O     0.83797   0.20075   0.10099   0.00000  Uiso   1.00
O399   O     0.89393   0.07059   0.45761   0.00000  Uiso   1.00
O400   O     0.71969   0.24616   0.48556   0.00000  Uiso   1.00
O401   O     0.72917   0.26897   0.40847   0.00000  Uiso   1.00
O402   O     0.71109   0.20255   0.38328   0.00000  Uiso   1.00
O403   O     0.86981   0.17646   0.39802   0.00000  Uiso   1.00
O404   O     0.81247   0.26136   0.26767   0.00000  Uiso   1.00
O405   O     0.74119   0.13251   0.23607   0.00000  Uiso   1.00
O406   O     0.93452   0.19179   0.21806   0.00000  Uiso   1.00
O407   O     0.73656   0.18960   0.27820   0.00000  Uiso   1.00
O408   O     0.92106   0.15277   0.26768   0.00000  Uiso   1.00
O409   O     0.80467   0.06903   0.23607   0.00000  Uiso   1.00
O410   O     0.87104   0.25527   0.21806   0.00000  Uiso   1.00
Zn411  Zn    0.85910   0.14090   0.28278   0.00000  Uiso   1.00
Zn412  Zn    0.80125   0.12378   0.22258   0.00000  Uiso   1.00
Zn413  Zn    0.87833   0.19664   0.21188   0.00000  Uiso   1.00
Zn414  Zn    0.79465   0.20535   0.28277   0.00000  Uiso   1.00
C415   C     0.05229   0.49315   0.25918   0.00000  Uiso   1.00
C416   C     0.18904   0.46152   0.46097   0.00000  Uiso   1.00
C417   C     0.20558   0.43683   0.48019   0.00000  Uiso   1.00
C418   C     0.28109   0.50691   0.24104   0.00000  Uiso   1.00
C419   C     0.19909   0.44512   0.02156   0.00000  Uiso   1.00
C420   C     0.17976   0.48192   0.04210   0.00000  Uiso   1.00
C421   C     0.21162   0.41831   0.04316   0.00000  Uiso   1.00
C422   C     0.20911   0.43054   0.08293   0.00000  Uiso   1.00
C423   C     0.18262   0.49557   0.08120   0.00000  Uiso   1.00
C424   C     0.32753   0.50884   0.23645   0.00000  Uiso   1.00
C425   C     0.00699   0.49209   0.26249   0.00000  Uiso   1.00
C426   C     0.09789   0.55158   0.42267   0.00000  Uiso   1.00
C427   C     0.18281   0.65649   0.24221   0.00000  Uiso   1.00
C428   C     0.15021   0.34629   0.26270   0.00000  Uiso   1.00
C429   C     0.15598   0.38972   0.25865   0.00000  Uiso   1.00
C430   C     0.17711   0.61120   0.24220   0.00000  Uiso   1.00
C431   C     0.18820   0.47828   0.14400   0.00000  Uiso   1.00
C432   C     0.14511   0.52146   0.35641   0.00000  Uiso   1.00
C433   C     0.13441   0.53077   0.40015   0.00000  Uiso   1.00
C434   C     0.19559   0.46895   0.10147   0.00000  Uiso   1.00
C435   C     0.08895   0.55931   0.46411   0.00000  Uiso   1.00
C436   C     0.09977   0.61807   0.05338   0.00000  Uiso   1.00
C437   C     0.16176   0.51914   0.41973   0.00000  Uiso   1.00
C438   C     0.06789   0.64876   0.07780   0.00000  Uiso   1.00
C439   C     0.09131   0.35895   0.08468   0.00000  Uiso   1.00
C440   C     0.22320   0.37556   0.02707   0.00000  Uiso   1.00
C441   C     0.03253   0.56739   0.21073   0.00000  Uiso   1.00
C442   C     0.06697   0.58329   0.17486   0.00000  Uiso   1.00
C443   C     0.07806   0.63051   0.18124   0.00000  Uiso   1.00
C444   C     0.25793   0.33733   0.22674   0.00000  Uiso   1.00
C445   C     0.27121   0.37654   0.25203   0.00000  Uiso   1.00
C446   C     0.31472   0.37406   0.25939   0.00000  Uiso   1.00
C447   C     0.10871   0.66486   0.29076   0.00000  Uiso   1.00
C448   C     0.14790   0.51932   0.46133   0.00000  Uiso   1.00
C449   C     0.20751   0.56434   0.09149   0.00000  Uiso   1.00
C450   C     0.19769   0.60457   0.11920   0.00000  Uiso   1.00
C451   C     0.23743   0.63699   0.11362   0.00000  Uiso   1.00
C452   C     0.27257   0.41614   0.44627   0.00000  Uiso   1.00
C453   C     0.28713   0.42954   0.40464   0.00000  Uiso   1.00
C454   C     0.00318   0.43672   0.38946   0.00000  Uiso   1.00
C455   C     0.01555   0.55006   0.49201   0.00000  Uiso   1.00
C456   C     0.31005   0.57126   0.49192   0.00000  Uiso   1.00
C457   C     0.27134   0.53917   0.49001   0.00000  Uiso   1.00
C458   C     0.06779   0.56536   0.40423   0.00000  Uiso   1.00
C459   C     0.11437   0.54390   0.48361   0.00000  Uiso   1.00
C460   C     0.23398   0.54456   0.40245   0.00000  Uiso   1.00
C461   C     0.24159   0.57264   0.36984   0.00000  Uiso   1.00
C462   C     0.27680   0.60872   0.37266   0.00000  Uiso   1.00
C463   C     0.16654   0.49573   0.48118   0.00000  Uiso   1.00
C464   C     0.15872   0.50374   0.02271   0.00000  Uiso   1.00
C465   C     0.12734   0.53072   0.04391   0.00000  Uiso   1.00
C466   C     0.10625   0.55137   0.02501   0.00000  Uiso   1.00
H467   H     0.31730   0.48025   0.28846   0.00000  Uiso   1.00
H468   H     0.06746   0.38037   0.10298   0.00000  Uiso   1.00
H469   H     0.10771   0.37142   0.05605   0.00000  Uiso   1.00
H470   H     0.20692   0.65246   0.49979   0.00000  Uiso   1.00
H471   H     0.04498   0.57629   0.23714   0.00000  Uiso   1.00
H472   H     0.00252   0.58256   0.21557   0.00000  Uiso   1.00
H473   H     0.09693   0.56794   0.16932   0.00000  Uiso   1.00
H474   H     0.05478   0.57509   0.14835   0.00000  Uiso   1.00
H475   H     0.04849   0.64655   0.18742   0.00000  Uiso   1.00
H476   H     0.10193   0.64121   0.15426   0.00000  Uiso   1.00
H477   H     0.09258   0.63916   0.20625   0.00000  Uiso   1.00
H478   H     0.21689   0.40955   0.09999   0.00000  Uiso   1.00
H479   H     0.28425   0.66641   0.19869   0.00000  Uiso   1.00
H480   H     0.25540   0.64298   0.24233   0.00000  Uiso   1.00
H481   H     0.27376   0.40446   0.23687   0.00000  Uiso   1.00
H482   H     0.24609   0.37994   0.28096   0.00000  Uiso   1.00
H483   H     0.31334   0.34572   0.27356   0.00000  Uiso   1.00
H484   H     0.32244   0.40189   0.27937   0.00000  Uiso   1.00
H485   H     0.00766   0.37324   0.23110   0.00000  Uiso   1.00
H486   H     0.07865   0.64171   0.34235   0.00000  Uiso   1.00
H487   H     0.21346   0.57124   0.06072   0.00000  Uiso   1.00
H488   H     0.23724   0.55374   0.09478   0.00000  Uiso   1.00
H489   H     0.11568   0.53418   0.07569   0.00000  Uiso   1.00
H490   H     0.17094   0.61763   0.11319   0.00000  Uiso   1.00
H491   H     0.18695   0.59766   0.15036   0.00000  Uiso   1.00
H492   H     0.26365   0.62564   0.12204   0.00000  Uiso   1.00
H493   H     0.22858   0.66650   0.13266   0.00000  Uiso   1.00
H494   H     0.24954   0.64341   0.08235   0.00000  Uiso   1.00
H495   H     0.28896   0.38844   0.44583   0.00000  Uiso   1.00
H496   H     0.28361   0.44113   0.46751   0.00000  Uiso   1.00
H497   H     0.27480   0.40496   0.38409   0.00000  Uiso   1.00
H498   H     0.27353   0.45888   0.40501   0.00000  Uiso   1.00
H499   H     0.01634   0.46049   0.41005   0.00000  Uiso   1.00
H500   H     0.19165   0.45119   0.43020   0.00000  Uiso   1.00
H501   H     0.01267   0.44797   0.35994   0.00000  Uiso   1.00
H502   H     0.01749   0.40713   0.38660   0.00000  Uiso   1.00
H503   H     0.00931   0.53887   0.02126   0.00000  Uiso   1.00
H504   H     0.01845   0.52206   0.46925   0.00000  Uiso   1.00
H505   H     0.30113   0.59371   0.01911   0.00000  Uiso   1.00
H506   H     0.31858   0.58879   0.46587   0.00000  Uiso   1.00
H507   H     0.27885   0.51823   0.46175   0.00000  Uiso   1.00
H508   H     0.24302   0.55537   0.49178   0.00000  Uiso   1.00
H509   H     0.26326   0.52019   0.01494   0.00000  Uiso   1.00
H510   H     0.02467   0.54896   0.37241   0.00000  Uiso   1.00
H511   H     0.11663   0.62978   0.02434   0.00000  Uiso   1.00
H512   H     0.26507   0.53239   0.39956   0.00000  Uiso   1.00
H513   H     0.22512   0.56336   0.43206   0.00000  Uiso   1.00
H514   H     0.25144   0.55387   0.34044   0.00000  Uiso   1.00
H515   H     0.21110   0.58583   0.37251   0.00000  Uiso   1.00
H516   H     0.26736   0.62821   0.40169   0.00000  Uiso   1.00
H517   H     0.28124   0.62858   0.34887   0.00000  Uiso   1.00
H518   H     0.30812   0.59667   0.36906   0.00000  Uiso   1.00
H519   H     0.12410   0.61676   0.06943   0.00000  Uiso   1.00
H520   H     0.04350   0.65055   0.06206   0.00000  Uiso   1.00
H521   H     0.05054   0.63746   0.10680   0.00000  Uiso   1.00
H522   H     0.11588   0.35795   0.10042   0.00000  Uiso   1.00
O523   O     0.16667   0.50000   0.25000   0.00000  Uiso   1.00
O524   O     0.15693   0.45726   0.16625   0.00000  Uiso   1.00
O525   O     0.12687   0.53979   0.33749   0.00000  Uiso   1.00
O526   O     0.21088   0.50826   0.15877   0.00000  Uiso   1.00
O527   O     0.17198   0.49468   0.33749   0.00000  Uiso   1.00
O528   O     0.07682   0.57827   0.04791   0.00000  Uiso   1.00
O529   O     0.25584   0.36439   0.03097   0.00000  Uiso   1.00
O530   O     0.19589   0.34753   0.00894   0.00000  Uiso   1.00
O531   O     0.02419   0.52358   0.20338   0.00000  Uiso   1.00
O532   O     0.21978   0.34204   0.21686   0.00000  Uiso   1.00
O533   O     0.07427   0.33451   0.28460   0.00000  Uiso   1.00
O534   O     0.17849   0.41434   0.27821   0.00000  Uiso   1.00
O535   O     0.10899   0.65015   0.32541   0.00000  Uiso   1.00
O536   O     0.17131   0.53408   0.10099   0.00000  Uiso   1.00
O537   O     0.22726   0.40392   0.45761   0.00000  Uiso   1.00
O538   O     0.05302   0.57949   0.48556   0.00000  Uiso   1.00
O539   O     0.06250   0.60230   0.40847   0.00000  Uiso   1.00
O540   O     0.04442   0.53589   0.38328   0.00000  Uiso   1.00
O541   O     0.20314   0.50979   0.39802   0.00000  Uiso   1.00
O542   O     0.14581   0.59469   0.26767   0.00000  Uiso   1.00
O543   O     0.07452   0.46584   0.23607   0.00000  Uiso   1.00
O544   O     0.26785   0.52512   0.21806   0.00000  Uiso   1.00
O545   O     0.06990   0.52293   0.27820   0.00000  Uiso   1.00
O546   O     0.25440   0.48610   0.26768   0.00000  Uiso   1.00
O547   O     0.13800   0.40236   0.23607   0.00000  Uiso   1.00
O548   O     0.20437   0.58860   0.21806   0.00000  Uiso   1.00
Zn549  Zn    0.19244   0.47423   0.28278   0.00000  Uiso   1.00
Zn550  Zn    0.13459   0.45711   0.22258   0.00000  Uiso   1.00
Zn551  Zn    0.21166   0.52997   0.21188   0.00000  Uiso   1.00
Zn552  Zn    0.12798   0.53868   0.28277   0.00000  Uiso   1.00
C553   C     0.38562   0.49315   0.25918   0.00000  Uiso   1.00
C554   C     0.52237   0.46152   0.46097   0.00000  Uiso   1.00
C555   C     0.53891   0.43683   0.48019   0.00000  Uiso   1.00
C556   C     0.61443   0.50691   0.24104   0.00000  Uiso   1.00
C557   C     0.53243   0.44512   0.02156   0.00000  Uiso   1.00
C558   C     0.51309   0.48192   0.04210   0.00000  Uiso   1.00
C559   C     0.54495   0.41831   0.04316   0.00000  Uiso   1.00
C560   C     0.54244   0.43054   0.08293   0.00000  Uiso   1.00
C561   C     0.51595   0.49557   0.08120   0.00000  Uiso   1.00
C562   C     0.66086   0.50884   0.23645   0.00000  Uiso   1.00
C563   C     0.34032   0.49209   0.26249   0.00000  Uiso   1.00
C564   C     0.43123   0.55158   0.42267   0.00000  Uiso   1.00
C565   C     0.51614   0.65649   0.24221   0.00000  Uiso   1.00
C566   C     0.48355   0.34629   0.26270   0.00000  Uiso   1.00
C567   C     0.48931   0.38972   0.25865   0.00000  Uiso   1.00
C568   C     0.51044   0.61120   0.24220   0.00000  Uiso   1.00
C569   C     0.52153   0.47828   0.14400   0.00000  Uiso   1.00
C570   C     0.47845   0.52146   0.35641   0.00000  Uiso   1.00
C571   C     0.46774   0.53077   0.40015   0.00000  Uiso   1.00
C572   C     0.52892   0.46895   0.10147   0.00000  Uiso   1.00
C573   C     0.42228   0.55931   0.46411   0.00000  Uiso   1.00
C574   C     0.43310   0.61807   0.05338   0.00000  Uiso   1.00
C575   C     0.49509   0.51914   0.41973   0.00000  Uiso   1.00
C576   C     0.40122   0.64876   0.07780   0.00000  Uiso   1.00
C577   C     0.42465   0.35895   0.08468   0.00000  Uiso   1.00
C578   C     0.55653   0.37556   0.02707   0.00000  Uiso   1.00
C579   C     0.36587   0.56739   0.21073   0.00000  Uiso   1.00
C580   C     0.40030   0.58329   0.17486   0.00000  Uiso   1.00
C581   C     0.41140   0.63051   0.18124   0.00000  Uiso   1.00
C582   C     0.59126   0.33733   0.22674   0.00000  Uiso   1.00
C583   C     0.60455   0.37654   0.25203   0.00000  Uiso   1.00
C584   C     0.64805   0.37406   0.25939   0.00000  Uiso   1.00
C585   C     0.44205   0.66486   0.29076   0.00000  Uiso   1.00
C586   C     0.48123   0.51932   0.46133   0.00000  Uiso   1.00
C587   C     0.54084   0.56434   0.09149   0.00000  Uiso   1.00
C588   C     0.53102   0.60457   0.11920   0.00000  Uiso   1.00
C589   C     0.57076   0.63699   0.11362   0.00000  Uiso   1.00
C590   C     0.60591   0.41614   0.44627   0.00000  Uiso   1.00
C591   C     0.62046   0.42954   0.40464   0.00000  Uiso   1.00
C592   C     0.33651   0.43672   0.38946   0.00000  Uiso   1.00
C593   C     0.34888   0.55006   0.49201   0.00000  Uiso   1.00
C594   C     0.64338   0.57126   0.49192   0.00000  Uiso   1.00
C595   C     0.60467   0.53917   0.49001   0.00000  Uiso   1.00
C596   C     0.40112   0.56536   0.40423   0.00000  Uiso   1.00
C597   C     0.44770   0.54390   0.48361   0.00000  Uiso   1.00
C598   C     0.56731   0.54456   0.40245   0.00000  Uiso   1.00
C599   C     0.57492   0.57264   0.36984   0.00000  Uiso   1.00
C600   C     0.61013   0.60872   0.37266   0.00000  Uiso   1.00
C601   C     0.49987   0.49573   0.48118   0.00000  Uiso   1.00
C602   C     0.49205   0.50374   0.02271   0.00000  Uiso   1.00
C603   C     0.46067   0.53072   0.04391   0.00000  Uiso   1.00
C604   C     0.43958   0.55137   0.02501   0.00000  Uiso   1.00
H605   H     0.65064   0.48025   0.28846   0.00000  Uiso   1.00
H606   H     0.40079   0.38037   0.10298   0.00000  Uiso   1.00
H607   H     0.44104   0.37142   0.05605   0.00000  Uiso   1.00
H608   H     0.54026   0.65246   0.49979   0.00000  Uiso   1.00
H609   H     0.37831   0.57629   0.23714   0.00000  Uiso   1.00
H610   H     0.33586   0.58256   0.21557   0.00000  Uiso   1.00
H611   H     0.43026   0.56794   0.16932   0.00000  Uiso   1.00
H612   H     0.38812   0.57509   0.14835   0.00000  Uiso   1.00
H613   H     0.38182   0.64655   0.18742   0.00000  Uiso   1.00
H614   H     0.43526   0.64121   0.15426   0.00000  Uiso   1.00
H615   H     0.42591   0.63916   0.20625   0.00000  Uiso   1.00
H616   H     0.55023   0.40955   0.09999   0.00000  Uiso   1.00
H617   H     0.61759   0.66641   0.19869   0.00000  Uiso   1.00
H618   H     0.58873   0.64298   0.24233   0.00000  Uiso   1.00
H619   H     0.60710   0.40446   0.23687   0.00000  Uiso   1.00
H620   H     0.57942   0.37994   0.28096   0.00000  Uiso   1.00
H621   H     0.64668   0.34572   0.27356   0.00000  Uiso   1.00
H622   H     0.65578   0.40189   0.27937   0.00000  Uiso   1.00
H623   H     0.34100   0.37324   0.23110   0.00000  Uiso   1.00
H624   H     0.41199   0.64171   0.34235   0.00000  Uiso   1.00
H625   H     0.54679   0.57124   0.06072   0.00000  Uiso   1.00
H626   H     0.57057   0.55374   0.09478   0.00000  Uiso   1.00
H627   H     0.44901   0.53418   0.07569   0.00000  Uiso   1.00
H628   H     0.50427   0.61763   0.11319   0.00000  Uiso   1.00
H629   H     0.52028   0.59766   0.15036   0.00000  Uiso   1.00
H630   H     0.59698   0.62564   0.12204   0.00000  Uiso   1.00
H631   H     0.56191   0.66650   0.13266   0.00000  Uiso   1.00
H632   H     0.58288   0.64341   0.08235   0.00000  Uiso   1.00
H633   H     0.62229   0.38844   0.44583   0.00000  Uiso   1.00
H634   H     0.61694   0.44113   0.46751   0.00000  Uiso   1.00
H635   H     0.60813   0.40496   0.38409   0.00000  Uiso   1.00
H636   H     0.60686   0.45888   0.40501   0.00000  Uiso   1.00
H637   H     0.34967   0.46049   0.41005   0.00000  Uiso   1.00
H638   H     0.52498   0.45119   0.43020   0.00000  Uiso   1.00
H639   H     0.34600   0.44797   0.35994   0.00000  Uiso   1.00
H640   H     0.35082   0.40713   0.38660   0.00000  Uiso   1.00
H641   H     0.34265   0.53887   0.02126   0.00000  Uiso   1.00
H642   H     0.35178   0.52206   0.46925   0.00000  Uiso   1.00
H643   H     0.63446   0.59371   0.01911   0.00000  Uiso   1.00
H644   H     0.65192   0.58879   0.46587   0.00000  Uiso   1.00
H645   H     0.61219   0.51823   0.46175   0.00000  Uiso   1.00
H646   H     0.57636   0.55537   0.49178   0.00000  Uiso   1.00
H647   H     0.59659   0.52019   0.01494   0.00000  Uiso   1.00
H648   H     0.35801   0.54896   0.37241   0.00000  Uiso   1.00
H649   H     0.44996   0.62978   0.02434   0.00000  Uiso   1.00
H650   H     0.59840   0.53239   0.39956   0.00000  Uiso   1.00
H651   H     0.55845   0.56336   0.43206   0.00000  Uiso   1.00
H652   H     0.58477   0.55387   0.34044   0.00000  Uiso   1.00
H653   H     0.54444   0.58583   0.37251   0.00000  Uiso   1.00
H654   H     0.60069   0.62821   0.40169   0.00000  Uiso   1.00
H655   H     0.61458   0.62858   0.34887   0.00000  Uiso   1.00
H656   H     0.64146   0.59667   0.36906   0.00000  Uiso   1.00
H657   H     0.45743   0.61676   0.06943   0.00000  Uiso   1.00
H658   H     0.37683   0.65055   0.06206   0.00000  Uiso   1.00
H659   H     0.38388   0.63746   0.10680   0.00000  Uiso   1.00
H660   H     0.44921   0.35795   0.10042   0.00000  Uiso   1.00
O661   O     0.50000   0.50000   0.25000   0.00000  Uiso   1.00
O662   O     0.49027   0.45726   0.16625   0.00000  Uiso   1.00
O663   O     0.46020   0.53979   0.33749   0.00000  Uiso   1.00
O664   O     0.54421   0.50826   0.15877   0.00000  Uiso   1.00
O665   O     0.50532   0.49468   0.33749   0.00000  Uiso   1.00
O666   O     0.41015   0.57827   0.04791   0.00000  Uiso   1.00
O667   O     0.58917   0.36439   0.03097   0.00000  Uiso   1.00
O668   O     0.52923   0.34753   0.00894   0.00000  Uiso   1.00
O669   O     0.35753   0.52358   0.20338   0.00000  Uiso   1.00
O670   O     0.55312   0.34204   0.21686   0.00000  Uiso   1.00
O671   O     0.40760   0.33451   0.28460   0.00000  Uiso   1.00
O672   O     0.51182   0.41434   0.27821   0.00000  Uiso   1.00
O673   O     0.44232   0.65015   0.32541   0.00000  Uiso   1.00
O674   O     0.50464   0.53408   0.10099   0.00000  Uiso   1.00
O675   O     0.56059   0.40392   0.45761   0.00000  Uiso   1.00
O676   O     0.38635   0.57949   0.48556   0.00000  Uiso   1.00
O677   O     0.39584   0.60230   0.40847   0.00000  Uiso   1.00
O678   O     0.37776   0.53589   0.38328   0.00000  Uiso   1.00
O679   O     0.53648   0.50979   0.39802   0.00000  Uiso   1.00
O680   O     0.47914   0.59469   0.26767   0.00000  Uiso   1.00
O681   O     0.40785   0.46584   0.23607   0.00000  Uiso   1.00
O682   O     0.60119   0.52512   0.21806   0.00000  Uiso   1.00
O683   O     0.40323   0.52293   0.27820   0.00000  Uiso   1.00
O684   O     0.58773   0.48610   0.26768   0.00000  Uiso   1.00
O685   O     0.47133   0.40236   0.23607   0.00000  Uiso   1.00
O686   O     0.53771   0.58860   0.21806   0.00000  Uiso   1.00
Zn687  Zn    0.52577   0.47423   0.28278   0.00000  Uiso   1.00
Zn688  Zn    0.46792   0.45711   0.22258   0.00000  Uiso   1.00
Zn689  Zn    0.54500   0.52997   0.21188   0.00000  Uiso   1.00
Zn690  Zn    0.46131   0.53868   0.28277   0.00000  Uiso   1.00
C691   C     0.71896   0.49315   0.25918   0.00000  Uiso   1.00
C692   C     0.85570   0.46152   0.46097   0.00000  Uiso   1.00
C693   C     0.87225   0.43683   0.48019   0.00000  Uiso   1.00
C694   C     0.94776   0.50691   0.24104   0.00000  Uiso   1.00
C695   C     0.86576   0.44512   0.02156   0.00000  Uiso   1.00
C696   C     0.84643   0.48192   0.04210   0.00000  Uiso   1.00
C697   C     0.87828   0.41831   0.04316   0.00000  Uiso   1.00
C698   C     0.87577   0.43054   0.08293   0.00000  Uiso   1.00
C699   C     0.84928   0.49557   0.08120   0.00000  Uiso   1.00
C700   C     0.99419   0.50884   0.23645   0.00000  Uiso   1.00
C701   C     0.67366   0.49209   0.26249   0.00000  Uiso   1.00
C702   C     0.76456   0.55158   0.42267   0.00000  Uiso   1.00
C703   C     0.84947   0.65649   0.24221   0.00000  Uiso   1.00
C704   C     0.81688   0.34629   0.26270   0.00000  Uiso   1.00
C705   C     0.82265   0.38972   0.25865   0.00000  Uiso   1.00
C706   C     0.84377   0.61120   0.24220   0.00000  Uiso   1.00
C707   C     0.85486   0.47828   0.14400   0.00000  Uiso   1.00
C708   C     0.81178   0.52146   0.35641   0.00000  Uiso   1.00
C709   C     0.80108   0.53077   0.40015   0.00000  Uiso   1.00
C710   C     0.86226   0.46895   0.10147   0.00000  Uiso   1.00
C711   C     0.75561   0.55931   0.46411   0.00000  Uiso   1.00
C712   C     0.76643   0.61807   0.05338   0.00000  Uiso   1.00
C713   C     0.82843   0.51914   0.41973   0.00000  Uiso   1.00
C714   C     0.73456   0.64876   0.07780   0.00000  Uiso   1.00
C715   C     0.75798   0.35895   0.08468   0.00000  Uiso   1.00
C716   C     0.88987   0.37556   0.02707   0.00000  Uiso   1.00
C717   C     0.69920   0.56739   0.21073   0.00000  Uiso   1.00
C718   C     0.73364   0.58329   0.17486   0.00000  Uiso   1.00
C719   C     0.74473   0.63051   0.18124   0.00000  Uiso   1.00
C720   C     0.92459   0.33733   0.22674   0.00000  Uiso   1.00
C721   C     0.93788   0.37654   0.25203   0.00000  Uiso   1.00
C722   C     0.98139   0.37406   0.25939   0.00000  Uiso   1.00
C723   C     0.77538   0.66486   0.29076   0.00000  Uiso   1.00
C724   C     0.81457   0.51932   0.46133   0.00000  Uiso   1.00
C725   C     0.87417   0.56434   0.09149   0.00000  Uiso   1.00
C726   C     0.86435   0.60457   0.11920   0.00000  Uiso   1.00
C727   C     0.90409   0.63699   0.11362   0.00000  Uiso   1.00
C728   C     0.93924   0.41614   0.44627   0.00000  Uiso   1.00
C729   C     0.95380   0.42954   0.40464   0.00000  Uiso   1.00
C730   C     0.66984   0.43672   0.38946   0.00000  Uiso   1.00
C731   C     0.68221   0.55006   0.49201   0.00000  Uiso   1.00
C732   C     0.97671   0.57126   0.49192   0.00000  Uiso   1.00
C733   C     0.93801   0.53917   0.49001   0.00000  Uiso   1.00
C734   C     0.73446   0.56536   0.40423   0.00000  Uiso   1.00
C735   C     0.78104   0.54390   0.48361   0.00000  Uiso   1.00
C736   C     0.90064   0.54456   0.40245   0.00000  Uiso   1.00
C737   C     0.90826   0.57264   0.36984   0.00000  Uiso   1.00
C738   C     0.94347   0.60872   0.37266   0.00000  Uiso   1.00
C739   C     0.83321   0.49573   0.48118   0.00000  Uiso   1.00
C740   C     0.82538   0.50374   0.02271   0.00000  Uiso   1.00
C741   C     0.79401   0.53072   0.04391   0.00000  Uiso   1.00
C742   C     0.77291   0.55137   0.02501   0.00000  Uiso   1.00
H743   H     0.98397   0.48025   0.28846   0.00000  Uiso   1.00
H744   H     0.73412   0.38037   0.10298   0.00000  Uiso   1.00
H745   H     0.77437   0.37142   0.05605   0.00000  Uiso   1.00
H746   H     0.87359   0.65246   0.49979   0.00000  Uiso   1.00
H747   H     0.71165   0.57629   0.23714   0.00000  Uiso   1.00
H748   H     0.66919   0.58256   0.21557   0.00000  Uiso   1.00
H749   H     0.76360   0.56794   0.16932   0.00000  Uiso   1.00
H750   H     0.72145   0.57509   0.14835   0.00000  Uiso   1.00
H751   H     0.71516   0.64655   0.18742   0.00000  Uiso   1.00
H752   H     0.76860   0.64121   0.15426   0.00000  Uiso   1.00
H753   H     0.75925   0.63916   0.20625   0.00000  Uiso   1.00
H754   H     0.88356   0.40955   0.09999   0.00000  Uiso   1.00
H755   H     0.95092   0.66641   0.19869   0.00000  Uiso   1.00
H756   H     0.92206   0.64298   0.24233   0.00000  Uiso   1.00
H757   H     0.94043   0.40446   0.23687   0.00000  Uiso   1.00
H758   H     0.91275   0.37994   0.28096   0.00000  Uiso   1.00
H759   H     0.98001   0.34572   0.27356   0.00000  Uiso   1.00
H760   H     0.98911   0.40189   0.27937   0.00000  Uiso   1.00
H761   H     0.67433   0.37324   0.23110   0.00000  Uiso   1.00
H762   H     0.74532   0.64171   0.34235   0.00000  Uiso   1.00
H763   H     0.88013   0.57124   0.06072   0.00000  Uiso   1.00
H764   H     0.90391   0.55374   0.09478   0.00000  Uiso   1.00
H765   H     0.78235   0.53418   0.07569   0.00000  Uiso   1.00
H766   H     0.83761   0.61763   0.11319   0.00000  Uiso   1.00
H767   H     0.85362   0.59766   0.15036   0.00000  Uiso   1.00
H768   H     0.93032   0.62564   0.12204   0.00000  Uiso   1.00
H769   H     0.89525   0.66650   0.13266   0.00000  Uiso   1.00
H770   H     0.91621   0.64341   0.08235   0.00000  Uiso   1.00
H771   H     0.95562   0.38844   0.44583   0.00000  Uiso   1.00
H772   H     0.95028   0.44113   0.46751   0.00000  Uiso   1.00
H773   H     0.94147   0.40496   0.38409   0.00000  Uiso   1.00
H774   H     0.94019   0.45888   0.40501   0.00000  Uiso   1.00
H775   H     0.68300   0.46049   0.41005   0.00000  Uiso   1.00
H776   H     0.85832   0.45119   0.43020   0.00000  Uiso   1.00
H777   H     0.67933   0.44797   0.35994   0.00000  Uiso   1.00
H778   H     0.68415   0.40713   0.38660   0.00000  Uiso   1.00
H779   H     0.67598   0.53887   0.02126   0.00000  Uiso   1.00
H780   H     0.68511   0.52206   0.46925   0.00000  Uiso   1.00
H781   H     0.96780   0.59371   0.01911   0.00000  Uiso   1.00
H782   H     0.98525   0.58879   0.46587   0.00000  Uiso   1.00
H783   H     0.94552   0.51823   0.46175   0.00000  Uiso   1.00
H784   H     0.90969   0.55537   0.49178   0.00000  Uiso   1.00
H785   H     0.92993   0.52019   0.01494   0.00000  Uiso   1.00
H786   H     0.69134   0.54896   0.37241   0.00000  Uiso   1.00
H787   H     0.78329   0.62978   0.02434   0.00000  Uiso   1.00
H788   H     0.93174   0.53239   0.39956   0.00000  Uiso   1.00
H789   H     0.89179   0.56336   0.43206   0.00000  Uiso   1.00
H790   H     0.91810   0.55387   0.34044   0.00000  Uiso   1.00
H791   H     0.87777   0.58583   0.37251   0.00000  Uiso   1.00
H792   H     0.93403   0.62821   0.40169   0.00000  Uiso   1.00
H793   H     0.94791   0.62858   0.34887   0.00000  Uiso   1.00
H794   H     0.97479   0.59667   0.36906   0.00000  Uiso   1.00
H795   H     0.79076   0.61676   0.06943   0.00000  Uiso   1.00
H796   H     0.71016   0.65055   0.06206   0.00000  Uiso   1.00
H797   H     0.71721   0.63746   0.10680   0.00000  Uiso   1.00
H798   H     0.78255   0.35795   0.10042   0.00000  Uiso   1.00
O799   O     0.83333   0.50000   0.25000   0.00000  Uiso   1.00
O800   O     0.82360   0.45726   0.16625   0.00000  Uiso   1.00
O801   O     0.79354   0.53979   0.33749   0.00000  Uiso   1.00
O802   O     0.87755   0.50826   0.15877   0.00000  Uiso   1.00
O803   O     0.83865   0.49468   0.33749   0.00000  Uiso   1.00
O804   O     0.74348   0.57827   0.04791   0.00000  Uiso   1.00
O805   O     0.92250   0.36439   0.03097   0.00000  Uiso   1.00
O806   O     0.86256   0.34753   0.00894   0.00000  Uiso   1.00
O807   O     0.69086   0.52358   0.20338   0.00000  Uiso   1.00
O808   O     0.88645   0.34204   0.21686   0.00000  Uiso   1.00
O809   O     0.74093   0.33451   0.28460   0.00000  Uiso   1.00
O810   O     0.84515   0.41434   0.27821   0.00000  Uiso   1.00
O811   O     0.77566   0.65015   0.32541   0.00000  Uiso   1.00
O812   O     0.83797   0.53408   0.10099   0.00000  Uiso   1.00
O813   O     0.89393   0.40392   0.45761   0.00000  Uiso   1.00
O814   O     0.71969   0.57949   0.48556   0.00000  Uiso   1.00
O815   O     0.72917   0.60230   0.40847   0.00000  Uiso   1.00
O816   O     0.71109   0.53589   0.38328   0.00000  Uiso   1.00
O817   O     0.86981   0.50979   0.39802   0.00000  Uiso   1.00
O818   O     0.81247   0.59469   0.26767   0.00000  Uiso   1.00
O819   O     0.74119   0.46584   0.23607   0.00000  Uiso   1.00
O820   O     0.93452   0.52512   0.21806   0.00000  Uiso   1.00
O821   O     0.73656   0.52293   0.27820   0.00000  Uiso   1.00
O822   O     0.92106   0.48610   0.26768   0.00000  Uiso   1.00
O823   O     0.80467   0.40236   0.23607   0.00000  Uiso   1.00
O824   O     0.87104   0.58860   0.21806   0.00000  Uiso   1.00
Zn825  Zn    0.85910   0.47423   0.28278   0.00000  Uiso   1.00
Zn826  Zn    0.80125   0.45711   0.22258   0.00000  Uiso   1.00
Zn827  Zn    0.87833   0.52997   0.21188   0.00000  Uiso   1.00
Zn828  Zn    0.79465   0.53868   0.28277   0.00000  Uiso   1.00
C829   C     0.05229   0.82648   0.25918   0.00000  Uiso   1.00
C830   C     0.18904   0.79485   0.46097   0.00000  Uiso   1.00
C831   C     0.20558   0.77016   0.48019   0.00000  Uiso   1.00
C832   C     0.28109   0.84024   0.24104   0.00000  Uiso   1.00
C833   C     0.19909   0.77846   0.02156   0.00000  Uiso   1.00
C834   C     0.17976   0.81525   0.04210   0.00000  Uiso   1.00
C835   C     0.21162   0.75165   0.04316   0.00000  Uiso   1.00
C836   C     0.20911   0.76388   0.08293   0.00000  Uiso   1.00
C837   C     0.18262   0.82890   0.08120   0.00000  Uiso   1.00
C838   C     0.32753   0.84217   0.23645   0.00000  Uiso   1.00
C839   C     0.00699   0.82542   0.26249   0.00000  Uiso   1.00
C840   C     0.09789   0.88491   0.42267   0.00000  Uiso   1.00
C841   C     0.18281   0.98982   0.24221   0.00000  Uiso   1.00
C842   C     0.15021   0.67962   0.26270   0.00000  Uiso   1.00
C843   C     0.15598   0.72306   0.25865   0.00000  Uiso   1.00
C844   C     0.17711   0.94453   0.24220   0.00000  Uiso   1.00
C845   C     0.18820   0.81161   0.14400   0.00000  Uiso   1.00
C846   C     0.14511   0.85479   0.35641   0.00000  Uiso   1.00
C847   C     0.13441   0.86411   0.40015   0.00000  Uiso   1.00
C848   C     0.19559   0.80228   0.10147   0.00000  Uiso   1.00
C849   C     0.08895   0.89265   0.46411   0.00000  Uiso   1.00
C850   C     0.09977   0.95140   0.05338   0.00000  Uiso   1.00
C851   C     0.16176   0.85247   0.41973   0.00000  Uiso   1.00
C852   C     0.06789   0.98209   0.07780   0.00000  Uiso   1.00
C853   C     0.09131   0.69228   0.08468   0.00000  Uiso   1.00
C854   C     0.22320   0.70890   0.02707   0.00000  Uiso   1.00
C855   C     0.03253   0.90072   0.21073   0.00000  Uiso   1.00
C856   C     0.06697   0.91662   0.17486   0.00000  Uiso   1.00
C857   C     0.07806   0.96385   0.18124   0.00000  Uiso   1.00
C858   C     0.25793   0.67066   0.22674   0.00000  Uiso   1.00
C859   C     0.27121   0.70988   0.25203   0.00000  Uiso   1.00
C860   C     0.31472   0.70740   0.25939   0.00000  Uiso   1.00
C861   C     0.10871   0.99819   0.29076   0.00000  Uiso   1.00
C862   C     0.14790   0.85265   0.46133   0.00000  Uiso   1.00
C863   C     0.20751   0.89768   0.09149   0.00000  Uiso   1.00
C864   C     0.19769   0.93791   0.11920   0.00000  Uiso   1.00
C865   C     0.23743   0.97033   0.11362   0.00000  Uiso   1.00
C866   C     0.27257   0.74947   0.44627   0.00000  Uiso   1.00
C867   C     0.28713   0.76287   0.40464   0.00000  Uiso   1.00
C868   C     0.00318   0.77006   0.38946   0.00000  Uiso   1.00
C869   C     0.01555   0.88339   0.49201   0.00000  Uiso   1.00
C870   C     0.31005   0.90459   0.49192   0.00000  Uiso   1.00
C871   C     0.27134   0.87251   0.49001   0.00000  Uiso   1.00
C872   C     0.06779   0.89869   0.40423   0.00000  Uiso   1.00
C873   C     0.11437   0.87723   0.48361   0.00000  Uiso   1.00
C874   C     0.23398   0.87789   0.40245   0.00000  Uiso   1.00
C875   C     0.24159   0.90597   0.36984   0.00000  Uiso   1.00
C876   C     0.27680   0.94205   0.37266   0.00000  Uiso   1.00
C877   C     0.16654   0.82906   0.48118   0.00000  Uiso   1.00
C878   C     0.15872   0.83707   0.02271   0.00000  Uiso   1.00
C879   C     0.12734   0.86406   0.04391   0.00000  Uiso   1.00
C880   C     0.10625   0.88470   0.02501   0.00000  Uiso   1.00
H881   H     0.31730   0.81358   0.28846   0.00000  Uiso   1.00
H882   H     0.06746   0.71370   0.10298   0.00000  Uiso   1.00
H883   H     0.10771   0.70475   0.05605   0.00000  Uiso   1.00
H884   H     0.20692   0.98579   0.49979   0.00000  Uiso   1.00
H885   H     0.04498   0.90963   0.23714   0.00000  Uiso   1.00
H886   H     0.00252   0.91589   0.21557   0.00000  Uiso   1.00
H887   H     0.09693   0.90128   0.16932   0.00000  Uiso   1.00
H888   H     0.05478   0.90843   0.14835   0.00000  Uiso   1.00
H889   H     0.04849   0.97989   0.18742   0.00000  Uiso   1.00
H890   H     0.10193   0.97455   0.15426   0.00000  Uiso   1.00
H891   H     0.09258   0.97249   0.20625   0.00000  Uiso   1.00
H892   H     0.21689   0.74289   0.09999   0.00000  Uiso   1.00
H893   H     0.28425   0.99974   0.19869   0.00000  Uiso   1.00
H894   H     0.25540   0.97631   0.24233   0.00000  Uiso   1.00
H895   H     0.27376   0.73779   0.23687   0.00000  Uiso   1.00
H896   H     0.24609   0.71327   0.28096   0.00000  Uiso   1.00
H897   H     0.31334   0.67905   0.27356   0.00000  Uiso   1.00
H898   H     0.32244   0.73522   0.27937   0.00000  Uiso   1.00
H899   H     0.00766   0.70658   0.23110   0.00000  Uiso   1.00
H900   H     0.07865   0.97504   0.34235   0.00000  Uiso   1.00
H901   H     0.21346   0.90457   0.06072   0.00000  Uiso   1.00
H902   H     0.23724   0.88708   0.09478   0.00000  Uiso   1.00
H903   H     0.11568   0.86751   0.07569   0.00000  Uiso   1.00
H904   H     0.17094   0.95096   0.11319   0.00000  Uiso   1.00
H905   H     0.18695   0.93099   0.15036   0.00000  Uiso   1.00
H906   H     0.26365   0.95897   0.12204   0.00000  Uiso   1.00
H907   H     0.22858   0.99984   0.13266   0.00000  Uiso   1.00
H908   H     0.24954   0.97674   0.08235   0.00000  Uiso   1.00
H909   H     0.28896   0.72177   0.44583   0.00000  Uiso   1.00
H910   H     0.28361   0.77447   0.46751   0.00000  Uiso   1.00
H911   H     0.27480   0.73829   0.38409   0.00000  Uiso   1.00
H912   H     0.27353   0.79221   0.40501   0.00000  Uiso   1.00
H913   H     0.01634   0.79382   0.41005   0.00000  Uiso   1.00
H914   H     0.19165   0.78452   0.43020   0.00000  Uiso   1.00
H915   H     0.01267   0.78131   0.35994   0.00000  Uiso   1.00
H916   H     0.01749   0.74046   0.38660   0.00000  Uiso   1.00
H917   H     0.00931   0.87220   0.02126   0.00000  Uiso   1.00
H918   H     0.01845   0.85539   0.46925   0.00000  Uiso   1.00
H919   H     0.30113   0.92704   0.01911   0.00000  Uiso   1.00
H920   H     0.31858   0.92213   0.46587   0.00000  Uiso   1.00
H921   H     0.27885   0.85156   0.46175   0.00000  Uiso   1.00
H922   H     0.24302   0.88870   0.49178   0.00000  Uiso   1.00
H923   H     0.26326   0.85352   0.01494   0.00000  Uiso   1.00
H924   H     0.02467   0.88230   0.37241   0.00000  Uiso   1.00
H925   H     0.11663   0.96311   0.02434   0.00000  Uiso   1.00
H926   H     0.26507   0.86572   0.39956   0.00000  Uiso   1.00
H927   H     0.22512   0.89669   0.43206   0.00000  Uiso   1.00
H928   H     0.25144   0.88720   0.34044   0.00000  Uiso   1.00
H929   H     0.21110   0.91917   0.37251   0.00000  Uiso   1.00
H930   H     0.26736   0.96154   0.40169   0.00000  Uiso   1.00
H931   H     0.28124   0.96192   0.34887   0.00000  Uiso   1.00
H932   H     0.30812   0.93000   0.36906   0.00000  Uiso   1.00
H933   H     0.12410   0.95009   0.06943   0.00000  Uiso   1.00
H934   H     0.04350   0.98388   0.06206   0.00000  Uiso   1.00
H935   H     0.05054   0.97079   0.10680   0.00000  Uiso   1.00
H936   H     0.11588   0.69129   0.10042   0.00000  Uiso   1.00
O937   O     0.16667   0.83333   0.25000   0.00000  Uiso   1.00
O938   O     0.15693   0.79060   0.16625   0.00000  Uiso   1.00
O939   O     0.12687   0.87313   0.33749   0.00000  Uiso   1.00
O940   O     0.21088   0.84159   0.15877   0.00000  Uiso   1.00
O941   O     0.17198   0.82802   0.33749   0.00000  Uiso   1.00
O942   O     0.07682   0.91161   0.04791   0.00000  Uiso   1.00
O943   O     0.25584   0.69773   0.03097   0.00000  Uiso   1.00
O944   O     0.19589   0.68086   0.00894   0.00000  Uiso   1.00
O945   O     0.02419   0.85691   0.20338   0.00000  Uiso   1.00
O946   O     0.21978   0.67537   0.21686   0.00000  Uiso   1.00
O947   O     0.07427   0.66784   0.28460   0.00000  Uiso   1.00
O948   O     0.17849   0.74768   0.27821   0.00000  Uiso   1.00
O949   O     0.10899   0.98348   0.32541   0.00000  Uiso   1.00
O950   O     0.17131   0.86741   0.10099   0.00000  Uiso   1.00
O951   O     0.22726   0.73726   0.45761   0.00000  Uiso   1.00
O952   O     0.05302   0.91282   0.48556   0.00000  Uiso   1.00
O953   O     0.06250   0.93563   0.40847   0.00000  Uiso   1.00
O954   O     0.04442   0.86922   0.38328   0.00000  Uiso   1.00
O955   O     0.20314   0.84312   0.39802   0.00000  Uiso   1.00
O956   O     0.14581   0.92803   0.26767   0.00000  Uiso   1.00
O957   O     0.07452   0.79917   0.23607   0.00000  Uiso   1.00
O958   O     0.26785   0.85845   0.21806   0.00000  Uiso   1.00
O959   O     0.06990   0.85627   0.27820   0.00000  Uiso   1.00
O960   O     0.25440   0.81944   0.26768   0.00000  Uiso   1.00
O961   O     0.13800   0.73570   0.23607   0.00000  Uiso   1.00
O962   O     0.20437   0.92193   0.21806   0.00000  Uiso   1.00
Zn963  Zn    0.19244   0.80756   0.28278   0.00000  Uiso   1.00
Zn964  Zn    0.13459   0.79044   0.22258   0.00000  Uiso   1.00
Zn965  Zn    0.21166   0.86331   0.21188   0.00000  Uiso   1.00
Zn966  Zn    0.12798   0.87202   0.28277   0.00000  Uiso   1.00
C967   C     0.38562   0.82648   0.25918   0.00000  Uiso   1.00
C968   C     0.52237   0.79485   0.46097   0.00000  Uiso   1.00
C969   C     0.53891   0.77016   0.48019   0.00000  Uiso   1.00
C970   C     0.61443   0.84024   0.24104   0.00000  Uiso   1.00
C971   C     0.53243   0.77846   0.02156   0.00000  Uiso   1.00
C972   C     0.51309   0.81525   0.04210   0.00000  Uiso   1.00
C973   C     0.54495   0.75165   0.04316   0.00000  Uiso   1.00
C974   C     0.54244   0.76388   0.08293   0.00000  Uiso   1.00
C975   C     0.51595   0.82890   0.08120   0.00000  Uiso   1.00
C976   C     0.66086   0.84217   0.23645   0.00000  Uiso   1.00
C977   C     0.34032   0.82542   0.26249   0.00000  Uiso   1.00
C978   C     0.43123   0.88491   0.42267   0.00000  Uiso   1.00
C979   C     0.51614   0.98982   0.24221   0.00000  Uiso   1.00
C980   C     0.48355   0.67962   0.26270   0.00000  Uiso   1.00
C981   C     0.48931   0.72306   0.25865   0.00000  Uiso   1.00
C982   C     0.51044   0.94453   0.24220   0.00000  Uiso   1.00
C983   C     0.52153   0.81161   0.14400   0.00000  Uiso   1.00
C984   C     0.47845   0.85479   0.35641   0.00000  Uiso   1.00
C985   C     0.46774   0.86411   0.40015   0.00000  Uiso   1.00
C986   C     0.52892   0.80228   0.10147   0.00000  Uiso   1.00
C987   C     0.42228   0.89265   0.46411   0.00000  Uiso   1.00
C988   C     0.43310   0.95140   0.05338   0.00000  Uiso   1.00
C989   C     0.49509   0.85247   0.41973   0.00000  Uiso   1.00
C990   C     0.40122   0.98209   0.07780   0.00000  Uiso   1.00
C991   C     0.42465   0.69228   0.08468   0.00000  Uiso   1.00
C992   C     0.55653   0.70890   0.02707   0.00000  Uiso   1.00
C993   C     0.36587   0.90072   0.21073   0.00000  Uiso   1.00
C994   C     0.40030   0.91662   0.17486   0.00000  Uiso   1.00
C995   C     0.41140   0.96385   0.18124   0.00000  Uiso   1.00
C996   C     0.59126   0.67066   0.22674   0.00000  Uiso   1.00
C997   C     0.60455   0.70988   0.25203   0.00000  Uiso   1.00
C998   C     0.64805   0.70740   0.25939   0.00000  Uiso   1.00
C999   C     0.44205   0.99819   0.29076   0.00000  Uiso   1.00
C1000  C     0.48123   0.85265   0.46133   0.00000  Uiso   1.00
C1001  C     0.54084   0.89768   0.09149   0.00000  Uiso   1.00
C1002  C     0.53102   0.93791   0.11920   0.00000  Uiso   1.00
C1003  C     0.57076   0.97033   0.11362   0.00000  Uiso   1.00
C1004  C     0.60591   0.74947   0.44627   0.00000  Uiso   1.00
C1005  C     0.62046   0.76287   0.40464   0.00000  Uiso   1.00
C1006  C     0.33651   0.77006   0.38946   0.00000  Uiso   1.00
C1007  C     0.34888   0.88339   0.49201   0.00000  Uiso   1.00
C1008  C     0.64338   0.90459   0.49192   0.00000  Uiso   1.00
C1009  C     0.60467   0.87251   0.49001   0.00000  Uiso   1.00
C1010  C     0.40112   0.89869   0.40423   0.00000  Uiso   1.00
C1011  C     0.44770   0.87723   0.48361   0.00000  Uiso   1.00
C1012  C     0.56731   0.87789   0.40245   0.00000  Uiso   1.00
C1013  C     0.57492   0.90597   0.36984   0.00000  Uiso   1.00
C1014  C     0.61013   0.94205   0.37266   0.00000  Uiso   1.00
C1015  C     0.49987   0.82906   0.48118   0.00000  Uiso   1.00
C1016  C     0.49205   0.83707   0.02271   0.00000  Uiso   1.00
C1017  C     0.46067   0.86406   0.04391   0.00000  Uiso   1.00
C1018  C     0.43958   0.88470   0.02501   0.00000  Uiso   1.00
H1019  H     0.65064   0.81358   0.28846   0.00000  Uiso   1.00
H1020  H     0.40079   0.71370   0.10298   0.00000  Uiso   1.00
H1021  H     0.44104   0.70475   0.05605   0.00000  Uiso   1.00
H1022  H     0.54026   0.98579   0.49979   0.00000  Uiso   1.00
H1023  H     0.37831   0.90963   0.23714   0.00000  Uiso   1.00
H1024  H     0.33586   0.91589   0.21557   0.00000  Uiso   1.00
H1025  H     0.43026   0.90128   0.16932   0.00000  Uiso   1.00
H1026  H     0.38812   0.90843   0.14835   0.00000  Uiso   1.00
H1027  H     0.38182   0.97989   0.18742   0.00000  Uiso   1.00
H1028  H     0.43526   0.97455   0.15426   0.00000  Uiso   1.00
H1029  H     0.42591   0.97249   0.20625   0.00000  Uiso   1.00
H1030  H     0.55023   0.74289   0.09999   0.00000  Uiso   1.00
H1031  H     0.61759   0.99974   0.19869   0.00000  Uiso   1.00
H1032  H     0.58873   0.97631   0.24233   0.00000  Uiso   1.00
H1033  H     0.60710   0.73779   0.23687   0.00000  Uiso   1.00
H1034  H     0.57942   0.71327   0.28096   0.00000  Uiso   1.00
H1035  H     0.64668   0.67905   0.27356   0.00000  Uiso   1.00
H1036  H     0.65578   0.73522   0.27937   0.00000  Uiso   1.00
H1037  H     0.34100   0.70658   0.23110   0.00000  Uiso   1.00
H1038  H     0.41199   0.97504   0.34235   0.00000  Uiso   1.00
H1039  H     0.54679   0.90457   0.06072   0.00000  Uiso   1.00
H1040  H     0.57057   0.88708   0.09478   0.00000  Uiso   1.00
H1041  H     0.44901   0.86751   0.07569   0.00000  Uiso   1.00
H1042  H     0.50427   0.95096   0.11319   0.00000  Uiso   1.00
H1043  H     0.52028   0.93099   0.15036   0.00000  Uiso   1.00
H1044  H     0.59698   0.95897   0.12204   0.00000  Uiso   1.00
H1045  H     0.56191   0.99984   0.13266   0.00000  Uiso   1.00
H1046  H     0.58288   0.97674   0.08235   0.00000  Uiso   1.00
H1047  H     0.62229   0.72177   0.44583   0.00000  Uiso   1.00
H1048  H     0.61694   0.77447   0.46751   0.00000  Uiso   1.00
H1049  H     0.60813   0.73829   0.38409   0.00000  Uiso   1.00
H1050  H     0.60686   0.79221   0.40501   0.00000  Uiso   1.00
H1051  H     0.34967   0.79382   0.41005   0.00000  Uiso   1.00
H1052  H     0.52498   0.78452   0.43020   0.00000  Uiso   1.00
H1053  H     0.34600   0.78131   0.35994   0.00000  Uiso   1.00
H1054  H     0.35082   0.74046   0.38660   0.00000  Uiso   1.00
H1055  H     0.34265   0.87220   0.02126   0.00000  Uiso   1.00
H1056  H     0.35178   0.85539   0.46925   0.00000  Uiso   1.00
H1057  H     0.63446   0.92704   0.01911   0.00000  Uiso   1.00
H1058  H     0.65192   0.92213   0.46587   0.00000  Uiso   1.00
H1059  H     0.61219   0.85156   0.46175   0.00000  Uiso   1.00
H1060  H     0.57636   0.88870   0.49178   0.00000  Uiso   1.00
H1061  H     0.59659   0.85352   0.01494   0.00000  Uiso   1.00
H1062  H     0.35801   0.88230   0.37241   0.00000  Uiso   1.00
H1063  H     0.44996   0.96311   0.02434   0.00000  Uiso   1.00
H1064  H     0.59840   0.86572   0.39956   0.00000  Uiso   1.00
H1065  H     0.55845   0.89669   0.43206   0.00000  Uiso   1.00
H1066  H     0.58477   0.88720   0.34044   0.00000  Uiso   1.00
H1067  H     0.54444   0.91917   0.37251   0.00000  Uiso   1.00
H1068  H     0.60069   0.96154   0.40169   0.00000  Uiso   1.00
H1069  H     0.61458   0.96192   0.34887   0.00000  Uiso   1.00
H1070  H     0.64146   0.93000   0.36906   0.00000  Uiso   1.00
H1071  H     0.45743   0.95009   0.06943   0.00000  Uiso   1.00
H1072  H     0.37683   0.98388   0.06206   0.00000  Uiso   1.00
H1073  H     0.38388   0.97079   0.10680   0.00000  Uiso   1.00
H1074  H     0.44921   0.69129   0.10042   0.00000  Uiso   1.00
O1075  O     0.50000   0.83333   0.25000   0.00000  Uiso   1.00
O1076  O     0.49027   0.79060   0.16625   0.00000  Uiso   1.00
O1077  O     0.46020   0.87313   0.33749   0.00000  Uiso   1.00
O1078  O     0.54421   0.84159   0.15877   0.00000  Uiso   1.00
O1079  O     0.50532   0.82802   0.33749   0.00000  Uiso   1.00
O1080  O     0.41015   0.91161   0.04791   0.00000  Uiso   1.00
O1081  O     0.58917   0.69773   0.03097   0.00000  Uiso   1.00
O1082  O     0.52923   0.68086   0.00894   0.00000  Uiso   1.00
O1083  O     0.35753   0.85691   0.20338   0.00000  Uiso   1.00
O1084  O     0.55312   0.67537   0.21686   0.00000  Uiso   1.00
O1085  O     0.40760   0.66784   0.28460   0.00000  Uiso   1.00
O1086  O     0.51182   0.74768   0.27821   0.00000  Uiso   1.00
O1087  O     0.44232   0.98348   0.32541   0.00000  Uiso   1.00
O1088  O     0.50464   0.86741   0.10099   0.00000  Uiso   1.00
O1089  O     0.56059   0.73726   0.45761   0.00000  Uiso   1.00
O1090  O     0.38635   0.91282   0.48556   0.00000  Uiso   1.00
O1091  O     0.39584   0.93563   0.40847   0.00000  Uiso   1.00
O1092  O     0.37776   0.86922   0.38328   0.00000  Uiso   1.00
O1093  O     0.53648   0.84312   0.39802   0.00000  Uiso   1.00
O1094  O     0.47914   0.92803   0.26767   0.00000  Uiso   1.00
O1095  O     0.40785   0.79917   0.23607   0.00000  Uiso   1.00
O1096  O     0.60119   0.85845   0.21806   0.00000  Uiso   1.00
O1097  O     0.40323   0.85627   0.27820   0.00000  Uiso   1.00
O1098  O     0.58773   0.81944   0.26768   0.00000  Uiso   1.00
O1099  O     0.47133   0.73570   0.23607   0.00000  Uiso   1.00
O1100  O     0.53771   0.92193   0.21806   0.00000  Uiso   1.00
Zn1101 Zn    0.52577   0.80756   0.28278   0.00000  Uiso   1.00
Zn1102 Zn    0.46792   0.79044   0.22258   0.00000  Uiso   1.00
Zn1103 Zn    0.54500   0.86331   0.21188   0.00000  Uiso   1.00
Zn1104 Zn    0.46131   0.87202   0.28277   0.00000  Uiso   1.00
C1105  C     0.71896   0.82648   0.25918   0.00000  Uiso   1.00
C1106  C     0.85570   0.79485   0.46097   0.00000  Uiso   1.00
C1107  C     0.87225   0.77016   0.48019   0.00000  Uiso   1.00
C1108  C     0.94776   0.84024   0.24104   0.00000  Uiso   1.00
C1109  C     0.86576   0.77846   0.02156   0.00000  Uiso   1.00
C1110  C     0.84643   0.81525   0.04210   0.00000  Uiso   1.00
C1111  C     0.87828   0.75165   0.04316   0.00000  Uiso   1.00
C1112  C     0.87577   0.76388   0.08293   0.00000  Uiso   1.00
C1113  C     0.84928   0.82890   0.08120   0.00000  Uiso   1.00
C1114  C     0.99419   0.84217   0.23645   0.00000  Uiso   1.00
C1115  C     0.67366   0.82542   0.26249   0.00000  Uiso   1.00
C1116  C     0.76456   0.88491   0.42267   0.00000  Uiso   1.00
C1117  C     0.84947   0.98982   0.24221   0.00000  Uiso   1.00
C1118  C     0.81688   0.67962   0.26270   0.00000  Uiso   1.00
C1119  C     0.82265   0.72306   0.25865   0.00000  Uiso   1.00
C1120  C     0.84377   0.94453   0.24220   0.00000  Uiso   1.00
C1121  C     0.85486   0.81161   0.14400   0.00000  Uiso   1.00
C1122  C     0.81178   0.85479   0.35641   0.00000  Uiso   1.00
C1123  C     0.80108   0.86411   0.40015   0.00000  Uiso   1.00
C1124  C     0.86226   0.80228   0.10147   0.00000  Uiso   1.00
C1125  C     0.75561   0.89265   0.46411   0.00000  Uiso   1.00
C1126  C     0.76643   0.95140   0.05338   0.00000  Uiso   1.00
C1127  C     0.82843   0.85247   0.41973   0.00000  Uiso   1.00
C1128  C     0.73456   0.98209   0.07780   0.00000  Uiso   1.00
C1129  C     0.75798   0.69228   0.08468   0.00000  Uiso   1.00
C1130  C     0.88987   0.70890   0.02707   0.00000  Uiso   1.00
C1131  C     0.69920   0.90072   0.21073   0.00000  Uiso   1.00
C1132  C     0.73364   0.91662   0.17486   0.00000  Uiso   1.00
C1133  C     0.74473   0.96385   0.18124   0.00000  Uiso   1.00
C1134  C     0.92459   0.67066   0.22674   0.00000  Uiso   1.00
C1135  C     0.93788   0.70988   0.25203   0.00000  Uiso   1.00
C1136  C     0.98139   0.70740   0.25939   0.00000  Uiso   1.00
C1137  C     0.77538   0.99819   0.29076   0.00000  Uiso   1.00
C1138  C     0.81457   0.85265   0.46133   0.00000  Uiso   1.00
C1139  C     0.87417   0.89768   0.09149   0.00000  Uiso   1.00
C1140  C     0.86435   0.93791   0.11920   0.00000  Uiso   1.00
C1141  C     0.90409   0.97033   0.11362   0.00000  Uiso   1.00
C1142  C     0.93924   0.74947   0.44627   0.00000  Uiso   1.00
C1143  C     0.95380   0.76287   0.40464   0.00000  Uiso   1.00
C1144  C     0.66984   0.77006   0.38946   0.00000  Uiso   1.00
C1145  C     0.68221   0.88339   0.49201   0.00000  Uiso   1.00
C1146  C     0.97671   0.90459   0.49192   0.00000  Uiso   1.00
C1147  C     0.93801   0.87251   0.49001   0.00000  Uiso   1.00
C1148  C     0.73446   0.89869   0.40423   0.00000  Uiso   1.00
C1149  C     0.78104   0.87723   0.48361   0.00000  Uiso   1.00
C1150  C     0.90064   0.87789   0.40245   0.00000  Uiso   1.00
C1151  C     0.90826   0.90597   0.36984   0.00000  Uiso   1.00
C1152  C     0.94347   0.94205   0.37266   0.00000  Uiso   1.00
C1153  C     0.83321   0.82906   0.48118   0.00000  Uiso   1.00
C1154  C     0.82538   0.83707   0.02271   0.00000  Uiso   1.00
C1155  C     0.79401   0.86406   0.04391   0.00000  Uiso   1.00
C1156  C     0.77291   0.88470   0.02501   0.00000  Uiso   1.00
H1157  H     0.98397   0.81358   0.28846   0.00000  Uiso   1.00
H1158  H     0.73412   0.71370   0.10298   0.00000  Uiso   1.00
H1159  H     0.77437   0.70475   0.05605   0.00000  Uiso   1.00
H1160  H     0.87359   0.98579   0.49979   0.00000  Uiso   1.00
H1161  H     0.71165   0.90963   0.23714   0.00000  Uiso   1.00
H1162  H     0.66919   0.91589   0.21557   0.00000  Uiso   1.00
H1163  H     0.76360   0.90128   0.16932   0.00000  Uiso   1.00
H1164  H     0.72145   0.90843   0.14835   0.00000  Uiso   1.00
H1165  H     0.71516   0.97989   0.18742   0.00000  Uiso   1.00
H1166  H     0.76860   0.97455   0.15426   0.00000  Uiso   1.00
H1167  H     0.75925   0.97249   0.20625   0.00000  Uiso   1.00
H1168  H     0.88356   0.74289   0.09999   0.00000  Uiso   1.00
H1169  H     0.95092   0.99974   0.19869   0.00000  Uiso   1.00
H1170  H     0.92206   0.97631   0.24233   0.00000  Uiso   1.00
H1171  H     0.94043   0.73779   0.23687   0.00000  Uiso   1.00
H1172  H     0.91275   0.71327   0.28096   0.00000  Uiso   1.00
H1173  H     0.98001   0.67905   0.27356   0.00000  Uiso   1.00
H1174  H     0.98911   0.73522   0.27937   0.00000  Uiso   1.00
H1175  H     0.67433   0.70658   0.23110   0.00000  Uiso   1.00
H1176  H     0.74532   0.97504   0.34235   0.00000  Uiso   1.00
H1177  H     0.88013   0.90457   0.06072   0.00000  Uiso   1.00
H1178  H     0.90391   0.88708   0.09478   0.00000  Uiso   1.00
H1179  H     0.78235   0.86751   0.07569   0.00000  Uiso   1.00
H1180  H     0.83761   0.95096   0.11319   0.00000  Uiso   1.00
H1181  H     0.85362   0.93099   0.15036   0.00000  Uiso   1.00
H1182  H     0.93032   0.95897   0.12204   0.00000  Uiso   1.00
H1183  H     0.89525   0.99984   0.13266   0.00000  Uiso   1.00
H1184  H     0.91621   0.97674   0.08235   0.00000  Uiso   1.00
H1185  H     0.95562   0.72177   0.44583   0.00000  Uiso   1.00
H1186  H     0.95028   0.77447   0.46751   0.00000  Uiso   1.00
H1187  H     0.94147   0.73829   0.38409   0.00000  Uiso   1.00
H1188  H     0.94019   0.79221   0.40501   0.00000  Uiso   1.00
H1189  H     0.68300   0.79382   0.41005   0.00000  Uiso   1.00
H1190  H     0.85832   0.78452   0.43020   0.00000  Uiso   1.00
H1191  H     0.67933   0.78131   0.35994   0.00000  Uiso   1.00
H1192  H     0.68415   0.74046   0.38660   0.00000  Uiso   1.00
H1193  H     0.67598   0.87220   0.02126   0.00000  Uiso   1.00
H1194  H     0.68511   0.85539   0.46925   0.00000  Uiso   1.00
H1195  H     0.96780   0.92704   0.01911   0.00000  Uiso   1.00
H1196  H     0.98525   0.92213   0.46587   0.00000  Uiso   1.00
H1197  H     0.94552   0.85156   0.46175   0.00000  Uiso   1.00
H1198  H     0.90969   0.88870   0.49178   0.00000  Uiso   1.00
H1199  H     0.92993   0.85352   0.01494   0.00000  Uiso   1.00
H1200  H     0.69134   0.88230   0.37241   0.00000  Uiso   1.00
H1201  H     0.78329   0.96311   0.02434   0.00000  Uiso   1.00
H1202  H     0.93174   0.86572   0.39956   0.00000  Uiso   1.00
H1203  H     0.89179   0.89669   0.43206   0.00000  Uiso   1.00
H1204  H     0.91810   0.88720   0.34044   0.00000  Uiso   1.00
H1205  H     0.87777   0.91917   0.37251   0.00000  Uiso   1.00
H1206  H     0.93403   0.96154   0.40169   0.00000  Uiso   1.00
H1207  H     0.94791   0.96192   0.34887   0.00000  Uiso   1.00
H1208  H     0.97479   0.93000   0.36906   0.00000  Uiso   1.00
H1209  H     0.79076   0.95009   0.06943   0.00000  Uiso   1.00
H1210  H     0.71016   0.98388   0.06206   0.00000  Uiso   1.00
H1211  H     0.71721   0.97079   0.10680   0.00000  Uiso   1.00
H1212  H     0.78255   0.69129   0.10042   0.00000  Uiso   1.00
O1213  O     0.83333   0.83333   0.25000   0.00000  Uiso   1.00
O1214  O     0.82360   0.79060   0.16625   0.00000  Uiso   1.00
O1215  O     0.79354   0.87313   0.33749   0.00000  Uiso   1.00
O1216  O     0.87755   0.84159   0.15877   0.00000  Uiso   1.00
O1217  O     0.83865   0.82802   0.33749   0.00000  Uiso   1.00
O1218  O     0.74348   0.91161   0.04791   0.00000  Uiso   1.00
O1219  O     0.92250   0.69773   0.03097   0.00000  Uiso   1.00
O1220  O     0.86256   0.68086   0.00894   0.00000  Uiso   1.00
O1221  O     0.69086   0.85691   0.20338   0.00000  Uiso   1.00
O1222  O     0.88645   0.67537   0.21686   0.00000  Uiso   1.00
O1223  O     0.74093   0.66784   0.28460   0.00000  Uiso   1.00
O1224  O     0.84515   0.74768   0.27821   0.00000  Uiso   1.00
O1225  O     0.77566   0.98348   0.32541   0.00000  Uiso   1.00
O1226  O     0.83797   0.86741   0.10099   0.00000  Uiso   1.00
O1227  O     0.89393   0.73726   0.45761   0.00000  Uiso   1.00
O1228  O     0.71969   0.91282   0.48556   0.00000  Uiso   1.00
O1229  O     0.72917   0.93563   0.40847   0.00000  Uiso   1.00
O1230  O     0.71109   0.86922   0.38328   0.00000  Uiso   1.00
O1231  O     0.86981   0.84312   0.39802   0.00000  Uiso   1.00
O1232  O     0.81247   0.92803   0.26767   0.00000  Uiso   1.00
O1233  O     0.74119   0.79917   0.23607   0.00000  Uiso   1.00
O1234  O     0.93452   0.85845   0.21806   0.00000  Uiso   1.00
O1235  O     0.73656   0.85627   0.27820   0.00000  Uiso   1.00
O1236  O     0.92106   0.81944   0.26768   0.00000  Uiso   1.00
O1237  O     0.80467   0.73570   0.23607   0.00000  Uiso   1.00
O1238  O     0.87104   0.92193   0.21806   0.00000  Uiso   1.00
Zn1239 Zn    0.85910   0.80756   0.28278   0.00000  Uiso   1.00
Zn1240 Zn    0.80125   0.79044   0.22258   0.00000  Uiso   1.00
Zn1241 Zn    0.87833   0.86331   0.21188   0.00000  Uiso   1.00
Zn1242 Zn    0.79465   0.87202   0.28277   0.00000  Uiso   1.00
C1243  C     0.05229   0.15982   0.75918   0.00000  Uiso   1.00
C1244  C     0.18904   0.12818   0.96097   0.00000  Uiso   1.00
C1245  C     0.20558   0.10350   0.98019   0.00000  Uiso   1.00
C1246  C     0.28109   0.17358   0.74104   0.00000  Uiso   1.00
C1247  C     0.19909   0.11179   0.52156   0.00000  Uiso   1.00
C1248  C     0.17976   0.14859   0.54210   0.00000  Uiso   1.00
C1249  C     0.21162   0.08498   0.54316   0.00000  Uiso   1.00
C1250  C     0.20911   0.09721   0.58293   0.00000  Uiso   1.00
C1251  C     0.18262   0.16224   0.58120   0.00000  Uiso   1.00
C1252  C     0.32753   0.17551   0.73645   0.00000  Uiso   1.00
C1253  C     0.00699   0.15876   0.76249   0.00000  Uiso   1.00
C1254  C     0.09789   0.21824   0.92267   0.00000  Uiso   1.00
C1255  C     0.18281   0.32316   0.74221   0.00000  Uiso   1.00
C1256  C     0.15021   0.01296   0.76270   0.00000  Uiso   1.00
C1257  C     0.15598   0.05639   0.75865   0.00000  Uiso   1.00
C1258  C     0.17711   0.27787   0.74220   0.00000  Uiso   1.00
C1259  C     0.18820   0.14494   0.64400   0.00000  Uiso   1.00
C1260  C     0.14511   0.18813   0.85641   0.00000  Uiso   1.00
C1261  C     0.13441   0.19744   0.90015   0.00000  Uiso   1.00
C1262  C     0.19559   0.13561   0.60147   0.00000  Uiso   1.00
C1263  C     0.08895   0.22598   0.96411   0.00000  Uiso   1.00
C1264  C     0.09977   0.28474   0.55338   0.00000  Uiso   1.00
C1265  C     0.16176   0.18581   0.91973   0.00000  Uiso   1.00
C1266  C     0.06789   0.31542   0.57780   0.00000  Uiso   1.00
C1267  C     0.09131   0.02562   0.58468   0.00000  Uiso   1.00
C1268  C     0.22320   0.04223   0.52707   0.00000  Uiso   1.00
C1269  C     0.03253   0.23405   0.71073   0.00000  Uiso   1.00
C1270  C     0.06697   0.24995   0.67486   0.00000  Uiso   1.00
C1271  C     0.07806   0.29718   0.68124   0.00000  Uiso   1.00
C1272  C     0.25793   0.00400   0.72674   0.00000  Uiso   1.00
C1273  C     0.27121   0.04321   0.75203   0.00000  Uiso   1.00
C1274  C     0.31472   0.04073   0.75939   0.00000  Uiso   1.00
C1275  C     0.10871   0.33152   0.79076   0.00000  Uiso   1.00
C1276  C     0.14790   0.18599   0.96133   0.00000  Uiso   1.00
C1277  C     0.20751   0.23101   0.59149   0.00000  Uiso   1.00
C1278  C     0.19769   0.27124   0.61920   0.00000  Uiso   1.00
C1279  C     0.23743   0.30366   0.61362   0.00000  Uiso   1.00
C1280  C     0.27257   0.08281   0.94627   0.00000  Uiso   1.00
C1281  C     0.28713   0.09621   0.90464   0.00000  Uiso   1.00
C1282  C     0.00318   0.10339   0.88946   0.00000  Uiso   1.00
C1283  C     0.01555   0.21673   0.99201   0.00000  Uiso   1.00
C1284  C     0.31005   0.23793   0.99192   0.00000  Uiso   1.00
C1285  C     0.27134   0.20584   0.99001   0.00000  Uiso   1.00
C1286  C     0.06779   0.23202   0.90423   0.00000  Uiso   1.00
C1287  C     0.11437   0.21057   0.98361   0.00000  Uiso   1.00
C1288  C     0.23398   0.21123   0.90245   0.00000  Uiso   1.00
C1289  C     0.24159   0.23931   0.86984   0.00000  Uiso   1.00
C1290  C     0.27680   0.27538   0.87266   0.00000  Uiso   1.00
C1291  C     0.16654   0.16239   0.98118   0.00000  Uiso   1.00
C1292  C     0.15872   0.17040   0.52271   0.00000  Uiso   1.00
C1293  C     0.12734   0.19739   0.54391   0.00000  Uiso   1.00
C1294  C     0.10625   0.21803   0.52501   0.00000  Uiso   1.00
H1295  H     0.31730   0.14691   0.78846   0.00000  Uiso   1.00
H1296  H     0.06746   0.04704   0.60298   0.00000  Uiso   1.00
H1297  H     0.10771   0.03809   0.55605   0.00000  Uiso   1.00
H1298  H     0.20692   0.31913   0.99979   0.00000  Uiso   1.00
H1299  H     0.04498   0.24296   0.73714   0.00000  Uiso   1.00
H1300  H     0.00252   0.24922   0.71557   0.00000  Uiso   1.00
H1301  H     0.09693   0.23461   0.66932   0.00000  Uiso   1.00
H1302  H     0.05478   0.24176   0.64835   0.00000  Uiso   1.00
H1303  H     0.04849   0.31322   0.68742   0.00000  Uiso   1.00
H1304  H     0.10193   0.30788   0.65426   0.00000  Uiso   1.00
H1305  H     0.09258   0.30582   0.70625   0.00000  Uiso   1.00
H1306  H     0.21689   0.07622   0.59999   0.00000  Uiso   1.00
H1307  H     0.28425   0.33307   0.69869   0.00000  Uiso   1.00
H1308  H     0.25540   0.30965   0.74233   0.00000  Uiso   1.00
H1309  H     0.27376   0.07112   0.73687   0.00000  Uiso   1.00
H1310  H     0.24609   0.04660   0.78096   0.00000  Uiso   1.00
H1311  H     0.31334   0.01239   0.77356   0.00000  Uiso   1.00
H1312  H     0.32244   0.06856   0.77937   0.00000  Uiso   1.00
H1313  H     0.00766   0.03991   0.73110   0.00000  Uiso   1.00
H1314  H     0.07865   0.30837   0.84235   0.00000  Uiso   1.00
H1315  H     0.21346   0.23791   0.56072   0.00000  Uiso   1.00
H1316  H     0.23724   0.22041   0.59478   0.00000  Uiso   1.00
H1317  H     0.11568   0.20085   0.57569   0.00000  Uiso   1.00
H1318  H     0.17094   0.28430   0.61319   0.00000  Uiso   1.00
H1319  H     0.18695   0.26433   0.65036   0.00000  Uiso   1.00
H1320  H     0.26365   0.29231   0.62204   0.00000  Uiso   1.00
H1321  H     0.22858   0.33317   0.63266   0.00000  Uiso   1.00
H1322  H     0.24954   0.31007   0.58235   0.00000  Uiso   1.00
H1323  H     0.28896   0.05511   0.94583   0.00000  Uiso   1.00
H1324  H     0.28361   0.10780   0.96751   0.00000  Uiso   1.00
H1325  H     0.27480   0.07162   0.88409   0.00000  Uiso   1.00
H1326  H     0.27353   0.12555   0.90501   0.00000  Uiso   1.00
H1327  H     0.01634   0.12716   0.91005   0.00000  Uiso   1.00
H1328  H     0.19165   0.11785   0.93020   0.00000  Uiso   1.00
H1329  H     0.01267   0.11464   0.85994   0.00000  Uiso   1.00
H1330  H     0.01749   0.07380   0.88660   0.00000  Uiso   1.00
H1331  H     0.00931   0.20554   0.52126   0.00000  Uiso   1.00
H1332  H     0.01845   0.18872   0.96925   0.00000  Uiso   1.00
H1333  H     0.30113   0.26038   0.51911   0.00000  Uiso   1.00
H1334  H     0.31858   0.25546   0.96587   0.00000  Uiso   1.00
H1335  H     0.27885   0.18490   0.96175   0.00000  Uiso   1.00
H1336  H     0.24302   0.22203   0.99178   0.00000  Uiso   1.00
H1337  H     0.26326   0.18686   0.51494   0.00000  Uiso   1.00
H1338  H     0.02467   0.21563   0.87241   0.00000  Uiso   1.00
H1339  H     0.11663   0.29644   0.52434   0.00000  Uiso   1.00
H1340  H     0.26507   0.19906   0.89956   0.00000  Uiso   1.00
H1341  H     0.22512   0.23002   0.93206   0.00000  Uiso   1.00
H1342  H     0.25144   0.22053   0.84044   0.00000  Uiso   1.00
H1343  H     0.21110   0.25250   0.87251   0.00000  Uiso   1.00
H1344  H     0.26736   0.29487   0.90169   0.00000  Uiso   1.00
H1345  H     0.28124   0.29525   0.84887   0.00000  Uiso   1.00
H1346  H     0.30812   0.26333   0.86906   0.00000  Uiso   1.00
H1347  H     0.12410   0.28343   0.56943   0.00000  Uiso   1.00
H1348  H     0.04350   0.31721   0.56206   0.00000  Uiso   1.00
H1349  H     0.05054   0.30413   0.60680   0.00000  Uiso   1.00
H1350  H     0.11588   0.02462   0.60042   0.00000  Uiso   1.00
O1351  O     0.16667   0.16667   0.75000   0.00000  Uiso   1.00
O1352  O     0.15693   0.12393   0.66625   0.00000  Uiso   1.00
O1353  O     0.12687   0.20646   0.83749   0.00000  Uiso   1.00
O1354  O     0.21088   0.17493   0.65877   0.00000  Uiso   1.00
O1355  O     0.17198   0.16135   0.83749   0.00000  Uiso   1.00
O1356  O     0.07682   0.24494   0.54791   0.00000  Uiso   1.00
O1357  O     0.25584   0.03106   0.53097   0.00000  Uiso   1.00
O1358  O     0.19589   0.01419   0.50894   0.00000  Uiso   1.00
O1359  O     0.02419   0.19025   0.70338   0.00000  Uiso   1.00
O1360  O     0.21978   0.00870   0.71686   0.00000  Uiso   1.00
O1361  O     0.07427   0.00118   0.78460   0.00000  Uiso   1.00
O1362  O     0.17849   0.08101   0.77821   0.00000  Uiso   1.00
O1363  O     0.10899   0.31682   0.82541   0.00000  Uiso   1.00
O1364  O     0.17131   0.20075   0.60099   0.00000  Uiso   1.00
O1365  O     0.22726   0.07059   0.95761   0.00000  Uiso   1.00
O1366  O     0.05302   0.24616   0.98556   0.00000  Uiso   1.00
O1367  O     0.06250   0.26897   0.90847   0.00000  Uiso   1.00
O1368  O     0.04442   0.20255   0.88328   0.00000  Uiso   1.00
O1369  O     0.20314   0.17646   0.89802   0.00000  Uiso   1.00
O1370  O     0.14581   0.26136   0.76767   0.00000  Uiso   1.00
O1371  O     0.07452   0.13251   0.73607   0.00000  Uiso   1.00
O1372  O     0.26785   0.19179   0.71806   0.00000  Uiso   1.00
O1373  O     0.06990   0.18960   0.77820   0.00000  Uiso   1.00
O1374  O     0.25440   0.15277   0.76768   0.00000  Uiso   1.00
O1375  O     0.13800   0.06903   0.73607   0.00000  Uiso   1.00
O1376  O     0.20437   0.25527   0.71806   0.00000  Uiso   1.00
Zn1377 Zn    0.19244   0.14090   0.78278   0.00000  Uiso   1.00
Zn1378 Zn    0.13459   0.12378   0.72258   0.00000  Uiso   1.00
Zn1379 Zn    0.21166   0.19664   0.71188   0.00000  Uiso   1.00
Zn1380 Zn    0.12798   0.20535   0.78277   0.00000  Uiso   1.00
C1381  C     0.38562   0.15982   0.75918   0.00000  Uiso   1.00
C1382  C     0.52237   0.12818   0.96097   0.00000  Uiso   1.00
C1383  C     0.53891   0.10350   0.98019   0.00000  Uiso   1.00
C1384  C     0.61443   0.17358   0.74104   0.00000  Uiso   1.00
C1385  C     0.53243   0.11179   0.52156   0.00000  Uiso   1.00
C1386  C     0.51309   0.14859   0.54210   0.00000  Uiso   1.00
C1387  C     0.54495   0.08498   0.54316   0.00000  Uiso   1.00
C1388  C     0.54244   0.09721   0.58293   0.00000  Uiso   1.00
C1389  C     0.51595   0.16224   0.58120   0.00000  Uiso   1.00
C1390  C     0.66086   0.17551   0.73645   0.00000  Uiso   1.00
C1391  C     0.34032   0.15876   0.76249   0.00000  Uiso   1.00
C1392  C     0.43123   0.21824   0.92267   0.00000  Uiso   1.00
C1393  C     0.51614   0.32316   0.74221   0.00000  Uiso   1.00
C1394  C     0.48355   0.01296   0.76270   0.00000  Uiso   1.00
C1395  C     0.48931   0.05639   0.75865   0.00000  Uiso   1.00
C1396  C     0.51044   0.27787   0.74220   0.00000  Uiso   1.00
C1397  C     0.52153   0.14494   0.64400   0.00000  Uiso   1.00
C1398  C     0.47845   0.18813   0.85641   0.00000  Uiso   1.00
C1399  C     0.46774   0.19744   0.90015   0.00000  Uiso   1.00
C1400  C     0.52892   0.13561   0.60147   0.00000  Uiso   1.00
C1401  C     0.42228   0.22598   0.96411   0.00000  Uiso   1.00
C1402  C     0.43310   0.28474   0.55338   0.00000  Uiso   1.00
C1403  C     0.49509   0.18581   0.91973   0.00000  Uiso   1.00
C1404  C     0.40122   0.31542   0.57780   0.00000  Uiso   1.00
C1405  C     0.42465   0.02562   0.58468   0.00000  Uiso   1.00
C1406  C     0.55653   0.04223   0.52707   0.00000  Uiso   1.00
C1407  C     0.36587   0.23405   0.71073   0.00000  Uiso   1.00
C1408  C     0.40030   0.24995   0.67486   0.00000  Uiso   1.00
C1409  C     0.41140   0.29718   0.68124   0.00000  Uiso   1.00
C1410  C     0.59126   0.00400   0.72674   0.00000  Uiso   1.00
C1411  C     0.60455   0.04321   0.75203   0.00000  Uiso   1.00
C1412  C     0.64805   0.04073   0.75939   0.00000  Uiso   1.00
C1413  C     0.44205   0.33152   0.79076   0.00000  Uiso   1.00
C1414  C     0.48123   0.18599   0.96133   0.00000  Uiso   1.00
C1415  C     0.54084   0.23101   0.59149   0.00000  Uiso   1.00
C1416  C     0.53102   0.27124   0.61920   0.00000  Uiso   1.00
C1417  C     0.57076   0.30366   0.61362   0.00000  Uiso   1.00
C1418  C     0.60591   0.08281   0.94627   0.00000  Uiso   1.00
C1419  C     0.62046   0.09621   0.90464   0.00000  Uiso   1.00
C1420  C     0.33651   0.10339   0.88946   0.00000  Uiso   1.00
C1421  C     0.34888   0.21673   0.99201   0.00000  Uiso   1.00
C1422  C     0.64338   0.23793   0.99192   0.00000  Uiso   1.00
C1423  C     0.60467   0.20584   0.99001   0.00000  Uiso   1.00
C1424  C     0.40112   0.23202   0.90423   0.00000  Uiso   1.00
C1425  C     0.44770   0.21057   0.98361   0.00000  Uiso   1.00
C1426  C     0.56731   0.21123   0.90245   0.00000  Uiso   1.00
C1427  C     0.57492   0.23931   0.86984   0.00000  Uiso   1.00
C1428  C     0.61013   0.27538   0.87266   0.00000  Uiso   1.00
C1429  C     0.49987   0.16239   0.98118   0.00000  Uiso   1.00
C1430  C     0.49205   0.17040   0.52271   0.00000  Uiso   1.00
C1431  C     0.46067   0.19739   0.54391   0.00000  Uiso   1.00
C1432  C     0.43958   0.21803   0.52501   0.00000  Uiso   1.00
H1433  H     0.65064   0.14691   0.78846   0.00000  Uiso   1.00
H1434  H     0.40079   0.04704   0.60298   0.00000  Uiso   1.00
H1435  H     0.44104   0.03809   0.55605   0.00000  Uiso   1.00
H1436  H     0.54026   0.31913   0.99979   0.00000  Uiso   1.00
H1437  H     0.37831   0.24296   0.73714   0.00000  Uiso   1.00
H1438  H     0.33586   0.24922   0.71557   0.00000  Uiso   1.00
H1439  H     0.43026   0.23461   0.66932   0.00000  Uiso   1.00
H1440  H     0.38812   0.24176   0.64835   0.00000  Uiso   1.00
H1441  H     0.38182   0.31322   0.68742   0.00000  Uiso   1.00
H1442  H     0.43526   0.30788   0.65426   0.00000  Uiso   1.00
H1443  H     0.42591   0.30582   0.70625   0.00000  Uiso   1.00
H1444  H     0.55023   0.07622   0.59999   0.00000  Uiso   1.00
H1445  H     0.61759   0.33307   0.69869   0.00000  Uiso   1.00
H1446  H     0.58873   0.30965   0.74233   0.00000  Uiso   1.00
H1447  H     0.60710   0.07112   0.73687   0.00000  Uiso   1.00
H1448  H     0.57942   0.04660   0.78096   0.00000  Uiso   1.00
H1449  H     0.64668   0.01239   0.77356   0.00000  Uiso   1.00
H1450  H     0.65578   0.06856   0.77937   0.00000  Uiso   1.00
H1451  H     0.34100   0.03991   0.73110   0.00000  Uiso   1.00
H1452  H     0.41199   0.30837   0.84235   0.00000  Uiso   1.00
H1453  H     0.54679   0.23791   0.56072   0.00000  Uiso   1.00
H1454  H     0.57057   0.22041   0.59478   0.00000  Uiso   1.00
H1455  H     0.44901   0.20085   0.57569   0.00000  Uiso   1.00
H1456  H     0.50427   0.28430   0.61319   0.00000  Uiso   1.00
H1457  H     0.52028   0.26433   0.65036   0.00000  Uiso   1.00
H1458  H     0.59698   0.29231   0.62204   0.00000  Uiso   1.00
H1459  H     0.56191   0.33317   0.63266   0.00000  Uiso   1.00
H1460  H     0.58288   0.31007   0.58235   0.00000  Uiso   1.00
H1461  H     0.62229   0.05511   0.94583   0.00000  Uiso   1.00
H1462  H     0.61694   0.10780   0.96751   0.00000  Uiso   1.00
H1463  H     0.60813   0.07162   0.88409   0.00000  Uiso   1.00
H1464  H     0.60686   0.12555   0.90501   0.00000  Uiso   1.00
H1465  H     0.34967   0.12716   0.91005   0.00000  Uiso   1.00
H1466  H     0.52498   0.11785   0.93020   0.00000  Uiso   1.00
H1467  H     0.34600   0.11464   0.85994   0.00000  Uiso   1.00
H1468  H     0.35082   0.07380   0.88660   0.00000  Uiso   1.00
H1469  H     0.34265   0.20554   0.52126   0.00000  Uiso   1.00
H1470  H     0.35178   0.18872   0.96925   0.00000  Uiso   1.00
H1471  H     0.63446   0.26038   0.51911   0.00000  Uiso   1.00
H1472  H     0.65192   0.25546   0.96587   0.00000  Uiso   1.00
H1473  H     0.61219   0.18490   0.96175   0.00000  Uiso   1.00
H1474  H     0.57636   0.22203   0.99178   0.00000  Uiso   1.00
H1475  H     0.59659   0.18686   0.51494   0.00000  Uiso   1.00
H1476  H     0.35801   0.21563   0.87241   0.00000  Uiso   1.00
H1477  H     0.44996   0.29644   0.52434   0.00000  Uiso   1.00
H1478  H     0.59840   0.19906   0.89956   0.00000  Uiso   1.00
H1479  H     0.55845   0.23002   0.93206   0.00000  Uiso   1.00
H1480  H     0.58477   0.22053   0.84044   0.00000  Uiso   1.00
H1481  H     0.54444   0.25250   0.87251   0.00000  Uiso   1.00
H1482  H     0.60069   0.29487   0.90169   0.00000  Uiso   1.00
H1483  H     0.61458   0.29525   0.84887   0.00000  Uiso   1.00
H1484  H     0.64146   0.26333   0.86906   0.00000  Uiso   1.00
H1485  H     0.45743   0.28343   0.56943   0.00000  Uiso   1.00
H1486  H     0.37683   0.31721   0.56206   0.00000  Uiso   1.00
H1487  H     0.38388   0.30413   0.60680   0.00000  Uiso   1.00
H1488  H     0.44921   0.02462   0.60042   0.00000  Uiso   1.00
O1489  O     0.50000   0.16667   0.75000   0.00000  Uiso   1.00
O1490  O     0.49027   0.12393   0.66625   0.00000  Uiso   1.00
O1491  O     0.46020   0.20646   0.83749   0.00000  Uiso   1.00
O1492  O     0.54421   0.17493   0.65877   0.00000  Uiso   1.00
O1493  O     0.50532   0.16135   0.83749   0.00000  Uiso   1.00
O1494  O     0.41015   0.24494   0.54791   0.00000  Uiso   1.00
O1495  O     0.58917   0.03106   0.53097   0.00000  Uiso   1.00
O1496  O     0.52923   0.01419   0.50894   0.00000  Uiso   1.00
O1497  O     0.35753   0.19025   0.70338   0.00000  Uiso   1.00
O1498  O     0.55312   0.00870   0.71686   0.00000  Uiso   1.00
O1499  O     0.40760   0.00118   0.78460   0.00000  Uiso   1.00
O1500  O     0.51182   0.08101   0.77821   0.00000  Uiso   1.00
O1501  O     0.44232   0.31682   0.82541   0.00000  Uiso   1.00
O1502  O     0.50464   0.20075   0.60099   0.00000  Uiso   1.00
O1503  O     0.56059   0.07059   0.95761   0.00000  Uiso   1.00
O1504  O     0.38635   0.24616   0.98556   0.00000  Uiso   1.00
O1505  O     0.39584   0.26897   0.90847   0.00000  Uiso   1.00
O1506  O     0.37776   0.20255   0.88328   0.00000  Uiso   1.00
O1507  O     0.53648   0.17646   0.89802   0.00000  Uiso   1.00
O1508  O     0.47914   0.26136   0.76767   0.00000  Uiso   1.00
O1509  O     0.40785   0.13251   0.73607   0.00000  Uiso   1.00
O1510  O     0.60119   0.19179   0.71806   0.00000  Uiso   1.00
O1511  O     0.40323   0.18960   0.77820   0.00000  Uiso   1.00
O1512  O     0.58773   0.15277   0.76768   0.00000  Uiso   1.00
O1513  O     0.47133   0.06903   0.73607   0.00000  Uiso   1.00
O1514  O     0.53771   0.25527   0.71806   0.00000  Uiso   1.00
Zn1515 Zn    0.52577   0.14090   0.78278   0.00000  Uiso   1.00
Zn1516 Zn    0.46792   0.12378   0.72258   0.00000  Uiso   1.00
Zn1517 Zn    0.54500   0.19664   0.71188   0.00000  Uiso   1.00
Zn1518 Zn    0.46131   0.20535   0.78277   0.00000  Uiso   1.00
C1519  C     0.71896   0.15982   0.75918   0.00000  Uiso   1.00
C1520  C     0.85570   0.12818   0.96097   0.00000  Uiso   1.00
C1521  C     0.87225   0.10350   0.98019   0.00000  Uiso   1.00
C1522  C     0.94776   0.17358   0.74104   0.00000  Uiso   1.00
C1523  C     0.86576   0.11179   0.52156   0.00000  Uiso   1.00
C1524  C     0.84643   0.14859   0.54210   0.00000  Uiso   1.00
C1525  C     0.87828   0.08498   0.54316   0.00000  Uiso   1.00
C1526  C     0.87577   0.09721   0.58293   0.00000  Uiso   1.00
C1527  C     0.84928   0.16224   0.58120   0.00000  Uiso   1.00
C1528  C     0.99419   0.17551   0.73645   0.00000  Uiso   1.00
C1529  C     0.67366   0.15876   0.76249   0.00000  Uiso   1.00
C1530  C     0.76456   0.21824   0.92267   0.00000  Uiso   1.00
C1531  C     0.84947   0.32316   0.74221   0.00000  Uiso   1.00
C1532  C     0.81688   0.01296   0.76270   0.00000  Uiso   1.00
C1533  C     0.82265   0.05639   0.75865   0.00000  Uiso   1.00
C1534  C     0.84377   0.27787   0.74220   0.00000  Uiso   1.00
C1535  C     0.85486   0.14494   0.64400   0.00000  Uiso   1.00
C1536  C     0.81178   0.18813   0.85641   0.00000  Uiso   1.00
C1537  C     0.80108   0.19744   0.90015   0.00000  Uiso   1.00
C1538  C     0.86226   0.13561   0.60147   0.00000  Uiso   1.00
C1539  C     0.75561   0.22598   0.96411   0.00000  Uiso   1.00
C1540  C     0.76643   0.28474   0.55338   0.00000  Uiso   1.00
C1541  C     0.82843   0.18581   0.91973   0.00000  Uiso   1.00
C1542  C     0.73456   0.31542   0.57780   0.00000  Uiso   1.00
C1543  C     0.75798   0.02562   0.58468   0.00000  Uiso   1.00
C1544  C     0.88987   0.04223   0.52707   0.00000  Uiso   1.00
C1545  C     0.69920   0.23405   0.71073   0.00000  Uiso   1.00
C1546  C     0.73364   0.24995   0.67486   0.00000  Uiso   1.00
C1547  C     0.74473   0.29718   0.68124   0.00000  Uiso   1.00
C1548  C     0.92459   0.00400   0.72674   0.00000  Uiso   1.00
C1549  C     0.93788   0.04321   0.75203   0.00000  Uiso   1.00
C1550  C     0.98139   0.04073   0.75939   0.00000  Uiso   1.00
C1551  C     0.77538   0.33152   0.79076   0.00000  Uiso   1.00
C1552  C     0.81457   0.18599   0.96133   0.00000  Uiso   1.00
C1553  C     0.87417   0.23101   0.59149   0.00000  Uiso   1.00
C1554  C     0.86435   0.27124   0.61920   0.00000  Uiso   1.00
C1555  C     0.90409   0.30366   0.61362   0.00000  Uiso   1.00
C1556  C     0.93924   0.08281   0.94627   0.00000  Uiso   1.00
C1557  C     0.95380   0.09621   0.90464   0.00000  Uiso   1.00
C1558  C     0.66984   0.10339   0.88946   0.00000  Uiso   1.00
C1559  C     0.68221   0.21673   0.99201   0.00000  Uiso   1.00
C1560  C     0.97671   0.23793   0.99192   0.00000  Uiso   1.00
C1561  C     0.93801   0.20584   0.99001   0.00000  Uiso   1.00
C1562  C     0.73446   0.23202   0.90423   0.00000  Uiso   1.00
C1563  C     0.78104   0.21057   0.98361   0.00000  Uiso   1.00
C1564  C     0.90064   0.21123   0.90245   0.00000  Uiso   1.00
C1565  C     0.90826   0.23931   0.86984   0.00000  Uiso   1.00
C1566  C     0.94347   0.27538   0.87266   0.00000  Uiso   1.00
C1567  C     0.83321   0.16239   0.98118   0.00000  Uiso   1.00
C1568  C     0.82538   0.17040   0.52271   0.00000  Uiso   1.00
C1569  C     0.79401   0.19739   0.54391   0.00000  Uiso   1.00
C1570  C     0.77291   0.21803   0.52501   0.00000  Uiso   1.00
H1571  H     0.98397   0.14691   0.78846   0.00000  Uiso   1.00
H1572  H     0.73412   0.04704   0.60298   0.00000  Uiso   1.00
H1573  H     0.77437   0.03809   0.55605   0.00000  Uiso   1.00
H1574  H     0.87359   0.31913   0.99979   0.00000  Uiso   1.00
H1575  H     0.71165   0.24296   0.73714   0.00000  Uiso   1.00
H1576  H     0.66919   0.24922   0.71557   0.00000  Uiso   1.00
H1577  H     0.76360   0.23461   0.66932   0.00000  Uiso   1.00
H1578  H     0.72145   0.24176   0.64835   0.00000  Uiso   1.00
H1579  H     0.71516   0.31322   0.68742   0.00000  Uiso   1.00
H1580  H     0.76860   0.30788   0.65426   0.00000  Uiso   1.00
H1581  H     0.75925   0.30582   0.70625   0.00000  Uiso   1.00
H1582  H     0.88356   0.07622   0.59999   0.00000  Uiso   1.00
H1583  H     0.95092   0.33307   0.69869   0.00000  Uiso   1.00
H1584  H     0.92206   0.30965   0.74233   0.00000  Uiso   1.00
H1585  H     0.94043   0.07112   0.73687   0.00000  Uiso   1.00
H1586  H     0.91275   0.04660   0.78096   0.00000  Uiso   1.00
H1587  H     0.98001   0.01239   0.77356   0.00000  Uiso   1.00
H1588  H     0.98911   0.06856   0.77937   0.00000  Uiso   1.00
H1589  H     0.67433   0.03991   0.73110   0.00000  Uiso   1.00
H1590  H     0.74532   0.30837   0.84235   0.00000  Uiso   1.00
H1591  H     0.88013   0.23791   0.56072   0.00000  Uiso   1.00
H1592  H     0.90391   0.22041   0.59478   0.00000  Uiso   1.00
H1593  H     0.78235   0.20085   0.57569   0.00000  Uiso   1.00
H1594  H     0.83761   0.28430   0.61319   0.00000  Uiso   1.00
H1595  H     0.85362   0.26433   0.65036   0.00000  Uiso   1.00
H1596  H     0.93032   0.29231   0.62204   0.00000  Uiso   1.00
H1597  H     0.89525   0.33317   0.63266   0.00000  Uiso   1.00
H1598  H     0.91621   0.31007   0.58235   0.00000  Uiso   1.00
H1599  H     0.95562   0.05511   0.94583   0.00000  Uiso   1.00
H1600  H     0.95028   0.10780   0.96751   0.00000  Uiso   1.00
H1601  H     0.94147   0.07162   0.88409   0.00000  Uiso   1.00
H1602  H     0.94019   0.12555   0.90501   0.00000  Uiso   1.00
H1603  H     0.68300   0.12716   0.91005   0.00000  Uiso   1.00
H1604  H     0.85832   0.11785   0.93020   0.00000  Uiso   1.00
H1605  H     0.67933   0.11464   0.85994   0.00000  Uiso   1.00
H1606  H     0.68415   0.07380   0.88660   0.00000  Uiso   1.00
H1607  H     0.67598   0.20554   0.52126   0.00000  Uiso   1.00
H1608  H     0.68511   0.18872   0.96925   0.00000  Uiso   1.00
H1609  H     0.96780   0.26038   0.51911   0.00000  Uiso   1.00
H1610  H     0.98525   0.25546   0.96587   0.00000  Uiso   1.00
H1611  H     0.94552   0.18490   0.96175   0.00000  Uiso   1.00
H1612  H     0.90969   0.22203   0.99178   0.00000  Uiso   1.00
H1613  H     0.92993   0.18686   0.51494   0.00000  Uiso   1.00
H1614  H     0.69134   0.21563   0.87241   0.00000  Uiso   1.00
H1615  H     0.78329   0.29644   0.52434   0.00000  Uiso   1.00
H1616  H     0.93174   0.19906   0.89956   0.00000  Uiso   1.00
H1617  H     0.89179   0.23002   0.93206   0.00000  Uiso   1.00
H1618  H     0.91810   0.22053   0.84044   0.00000  Uiso   1.00
H1619  H     0.87777   0.25250   0.87251   0.00000  Uiso   1.00
H1620  H     0.93403   0.29487   0.90169   0.00000  Uiso   1.00
H1621  H     0.94791   0.29525   0.84887   0.00000  Uiso   1.00
H1622  H     0.97479   0.26333   0.86906   0.00000  Uiso   1.00
H1623  H     0.79076   0.28343   0.56943   0.00000  Uiso   1.00
H1624  H     0.71016   0.31721   0.56206   0.00000  Uiso   1.00
H1625  H     0.71721   0.30413   0.60680   0.00000  Uiso   1.00
H1626  H     0.78255   0.02462   0.60042   0.00000  Uiso   1.00
O1627  O     0.83333   0.16667   0.75000   0.00000  Uiso   1.00
O1628  O     0.82360   0.12393   0.66625   0.00000  Uiso   1.00
O1629  O     0.79354   0.20646   0.83749   0.00000  Uiso   1.00
O1630  O     0.87755   0.17493   0.65877   0.00000  Uiso   1.00
O1631  O     0.83865   0.16135   0.83749   0.00000  Uiso   1.00
O1632  O     0.74348   0.24494   0.54791   0.00000  Uiso   1.00
O1633  O     0.92250   0.03106   0.53097   0.00000  Uiso   1.00
O1634  O     0.86256   0.01419   0.50894   0.00000  Uiso   1.00
O1635  O     0.69086   0.19025   0.70338   0.00000  Uiso   1.00
O1636  O     0.88645   0.00870   0.71686   0.00000  Uiso   1.00
O1637  O     0.74093   0.00118   0.78460   0.00000  Uiso   1.00
O1638  O     0.84515   0.08101   0.77821   0.00000  Uiso   1.00
O1639  O     0.77566   0.31682   0.82541   0.00000  Uiso   1.00
O1640  O     0.83797   0.20075   0.60099   0.00000  Uiso   1.00
O1641  O     0.89393   0.07059   0.95761   0.00000  Uiso   1.00
O1642  O     0.71969   0.24616   0.98556   0.00000  Uiso   1.00
O1643  O     0.72917   0.26897   0.90847   0.00000  Uiso   1.00
O1644  O     0.71109   0.20255   0.88328   0.00000  Uiso   1.00
O1645  O     0.86981   0.17646   0.89802   0.00000  Uiso   1.00
O1646  O     0.81247   0.26136   0.76767   0.00000  Uiso   1.00
O1647  O     0.74119   0.13251   0.73607   0.00000  Uiso   1.00
O1648  O     0.93452   0.19179   0.71806   0.00000  Uiso   1.00
O1649  O     0.73656   0.18960   0.77820   0.00000  Uiso   1.00
O1650  O     0.92106   0.15277   0.76768   0.00000  Uiso   1.00
O1651  O     0.80467   0.06903   0.73607   0.00000  Uiso   1.00
O1652  O     0.87104   0.25527   0.71806   0.00000  Uiso   1.00
Zn1653 Zn    0.85910   0.14090   0.78278   0.00000  Uiso   1.00
Zn1654 Zn    0.80125   0.12378   0.72258   0.00000  Uiso   1.00
Zn1655 Zn    0.87833   0.19664   0.71188   0.00000  Uiso   1.00
Zn1656 Zn    0.79465   0.20535   0.78277   0.00000  Uiso   1.00
C1657  C     0.05229   0.49315   0.75918   0.00000  Uiso   1.00
C1658  C     0.18904   0.46152   0.96097   0.00000  Uiso   1.00
C1659  C     0.20558   0.43683   0.98019   0.00000  Uiso   1.00
C1660  C     0.28109   0.50691   0.74104   0.00000  Uiso   1.00
C1661  C     0.19909   0.44512   0.52156   0.00000  Uiso   1.00
C1662  C     0.17976   0.48192   0.54210   0.00000  Uiso   1.00
C1663  C     0.21162   0.41831   0.54316   0.00000  Uiso   1.00
C1664  C     0.20911   0.43054   0.58293   0.00000  Uiso   1.00
C1665  C     0.18262   0.49557   0.58120   0.00000  Uiso   1.00
C1666  C     0.32753   0.50884   0.73645   0.00000  Uiso   1.00
C1667  C     0.00699   0.49209   0.76249   0.00000  Uiso   1.00
C1668  C     0.09789   0.55158   0.92267   0.00000  Uiso   1.00
C1669  C     0.18281   0.65649   0.74221   0.00000  Uiso   1.00
C1670  C     0.15021   0.34629   0.76270   0.00000  Uiso   1.00
C1671  C     0.15598   0.38972   0.75865   0.00000  Uiso   1.00
C1672  C     0.17711   0.61120   0.74220   0.00000  Uiso   1.00
C1673  C     0.18820   0.47828   0.64400   0.00000  Uiso   1.00
C1674  C     0.14511   0.52146   0.85641   0.00000  Uiso   1.00
C1675  C     0.13441   0.53077   0.90015   0.00000  Uiso   1.00
C1676  C     0.19559   0.46895   0.60147   0.00000  Uiso   1.00
C1677  C     0.08895   0.55931   0.96411   0.00000  Uiso   1.00
C1678  C     0.09977   0.61807   0.55338   0.00000  Uiso   1.00
C1679  C     0.16176   0.51914   0.91973   0.00000  Uiso   1.00
C1680  C     0.06789   0.64876   0.57780   0.00000  Uiso   1.00
C1681  C     0.09131   0.35895   0.58468   0.00000  Uiso   1.00
C1682  C     0.22320   0.37556   0.52707   0.00000  Uiso   1.00
C1683  C     0.03253   0.56739   0.71073   0.00000  Uiso   1.00
C1684  C     0.06697   0.58329   0.67486   0.00000  Uiso   1.00
C1685  C     0.07806   0.63051   0.68124   0.00000  Uiso   1.00
C1686  C     0.25793   0.33733   0.72674   0.00000  Uiso   1.00
C1687  C     0.27121   0.37654   0.75203   0.00000  Uiso   1.00
C1688  C     0.31472   0.37406   0.75939   0.00000  Uiso   1.00
C1689  C     0.10871   0.66486   0.79076   0.00000  Uiso   1.00
C1690  C     0.14790   0.51932   0.96133   0.00000  Uiso   1.00
C1691  C     0.20751   0.56434   0.59149   0.00000  Uiso   1.00
C1692  C     0.19769   0.60457   0.61920   0.00000  Uiso   1.00
C1693  C     0.23743   0.63699   0.61362   0.00000  Uiso   1.00
C1694  C     0.27257   0.41614   0.94627   0.00000  Uiso   1.00
C1695  C     0.28713   0.42954   0.90464   0.00000  Uiso   1.00
C1696  C     0.00318   0.43672   0.88946   0.00000  Uiso   1.00
C1697  C     0.01555   0.55006   0.99201   0.00000  Uiso   1.00
C1698  C     0.31005   0.57126   0.99192   0.00000  Uiso   1.00
C1699  C     0.27134   0.53917   0.99001   0.00000  Uiso   1.00
C1700  C     0.06779   0.56536   0.90423   0.00000  Uiso   1.00
C1701  C     0.11437   0.54390   0.98361   0.00000  Uiso   1.00
C1702  C     0.23398   0.54456   0.90245   0.00000  Uiso   1.00
C1703  C     0.24159   0.57264   0.86984   0.00000  Uiso   1.00
C1704  C     0.27680   0.60872   0.87266   0.00000  Uiso   1.00
C1705  C     0.16654   0.49573   0.98118   0.00000  Uiso   1.00
C1706  C     0.15872   0.50374   0.52271   0.00000  Uiso   1.00
C1707  C     0.12734   0.53072   0.54391   0.00000  Uiso   1.00
C1708  C     0.10625   0.55137   0.52501   0.00000  Uiso   1.00
H1709  H     0.31730   0.48025   0.78846   0.00000  Uiso   1.00
H1710  H     0.06746   0.38037   0.60298   0.00000  Uiso   1.00
H1711  H     0.10771   0.37142   0.55605   0.00000  Uiso   1.00
H1712  H     0.20692   0.65246   0.99979   0.00000  Uiso   1.00
H1713  H     0.04498   0.57629   0.73714   0.00000  Uiso   1.00
H1714  H     0.00252   0.58256   0.71557   0.00000  Uiso   1.00
H1715  H     0.09693   0.56794   0.66932   0.00000  Uiso   1.00
H1716  H     0.05478   0.57509   0.64835   0.00000  Uiso   1.00
H1717  H     0.04849   0.64655   0.68742   0.00000  Uiso   1.00
H1718  H     0.10193   0.64121   0.65426   0.00000  Uiso   1.00
H1719  H     0.09258   0.63916   0.70625   0.00000  Uiso   1.00
H1720  H     0.21689   0.40955   0.59999   0.00000  Uiso   1.00
H1721  H     0.28425   0.66641   0.69869   0.00000  Uiso   1.00
H1722  H     0.25540   0.64298   0.74233   0.00000  Uiso   1.00
H1723  H     0.27376   0.40446   0.73687   0.00000  Uiso   1.00
H1724  H     0.24609   0.37994   0.78096   0.00000  Uiso   1.00
H1725  H     0.31334   0.34572   0.77356   0.00000  Uiso   1.00
H1726  H     0.32244   0.40189   0.77937   0.00000  Uiso   1.00
H1727  H     0.00766   0.37324   0.73110   0.00000  Uiso   1.00
H1728  H     0.07865   0.64171   0.84235   0.00000  Uiso   1.00
H1729  H     0.21346   0.57124   0.56072   0.00000  Uiso   1.00
H1730  H     0.23724   0.55374   0.59478   0.00000  Uiso   1.00
H1731  H     0.11568   0.53418   0.57569   0.00000  Uiso   1.00
H1732  H     0.17094   0.61763   0.61319   0.00000  Uiso   1.00
H1733  H     0.18695   0.59766   0.65036   0.00000  Uiso   1.00
H1734  H     0.26365   0.62564   0.62204   0.00000  Uiso   1.00
H1735  H     0.22858   0.66650   0.63266   0.00000  Uiso   1.00
H1736  H     0.24954   0.64341   0.58235   0.00000  Uiso   1.00
H1737  H     0.28896   0.38844   0.94583   0.00000  Uiso   1.00
H1738  H     0.28361   0.44113   0.96751   0.00000  Uiso   1.00
H1739  H     0.27480   0.40496   0.88409   0.00000  Uiso   1.00
H1740  H     0.27353   0.45888   0.90501   0.00000  Uiso   1.00
H1741  H     0.01634   0.46049   0.91005   0.00000  Uiso   1.00
H1742  H     0.19165   0.45119   0.93020   0.00000  Uiso   1.00
H1743  H     0.01267   0.44797   0.85994   0.00000  Uiso   1.00
H1744  H     0.01749   0.40713   0.88660   0.00000  Uiso   1.00
H1745  H     0.00931   0.53887   0.52126   0.00000  Uiso   1.00
H1746  H     0.01845   0.52206   0.96925   0.00000  Uiso   1.00
H1747  H     0.30113   0.59371   0.51911   0.00000  Uiso   1.00
H1748  H     0.31858   0.58879   0.96587   0.00000  Uiso   1.00
H1749  H     0.27885   0.51823   0.96175   0.00000  Uiso   1.00
H1750  H     0.24302   0.55537   0.99178   0.00000  Uiso   1.00
H1751  H     0.26326   0.52019   0.51494   0.00000  Uiso   1.00
H1752  H     0.02467   0.54896   0.87241   0.00000  Uiso   1.00
H1753  H     0.11663   0.62978   0.52434   0.00000  Uiso   1.00
H1754  H     0.26507   0.53239   0.89956   0.00000  Uiso   1.00
H1755  H     0.22512   0.56336   0.93206   0.00000  Uiso   1.00
H1756  H     0.25144   0.55387   0.84044   0.00000  Uiso   1.00
H1757  H     0.21110   0.58583   0.87251   0.00000  Uiso   1.00
H1758  H     0.26736   0.62821   0.90169   0.00000  Uiso   1.00
H1759  H     0.28124   0.62858   0.84887   0.00000  Uiso   1.00
H1760  H     0.30812   0.59667   0.86906   0.00000  Uiso   1.00
H1761  H     0.12410   0.61676   0.56943   0.00000  Uiso   1.00
H1762  H     0.04350   0.65055   0.56206   0.00000  Uiso   1.00
H1763  H     0.05054   0.63746   0.60680   0.00000  Uiso   1.00
H1764  H     0.11588   0.35795   0.60042   0.00000  Uiso   1.00
O1765  O     0.16667   0.50000   0.75000   0.00000  Uiso   1.00
O1766  O     0.15693   0.45726   0.66625   0.00000  Uiso   1.00
O1767  O     0.12687   0.53979   0.83749   0.00000  Uiso   1.00
O1768  O     0.21088   0.50826   0.65877   0.00000  Uiso   1.00
O1769  O     0.17198   0.49468   0.83749   0.00000  Uiso   1.00
O1770  O     0.07682   0.57827   0.54791   0.00000  Uiso   1.00
O1771  O     0.25584   0.36439   0.53097   0.00000  Uiso   1.00
O1772  O     0.19589   0.34753   0.50894   0.00000  Uiso   1.00
O1773  O     0.02419   0.52358   0.70338   0.00000  Uiso   1.00
O1774  O     0.21978   0.34204   0.71686   0.00000  Uiso   1.00
O1775  O     0.07427   0.33451   0.78460   0.00000  Uiso   1.00
O1776  O     0.17849   0.41434   0.77821   0.00000  Uiso   1.00
O1777  O     0.10899   0.65015   0.82541   0.00000  Uiso   1.00
O1778  O     0.17131   0.53408   0.60099   0.00000  Uiso   1.00
O1779  O     0.22726   0.40392   0.95761   0.00000  Uiso   1.00
O1780  O     0.05302   0.57949   0.98556   0.00000  Uiso   1.00
O1781  O     0.06250   0.60230   0.90847   0.00000  Uiso   1.00
O1782  O     0.04442   0.53589   0.88328   0.00000  Uiso   1.00
O1783  O     0.20314   0.50979   0.89802   0.00000  Uiso   1.00
O1784  O     0.14581   0.59469   0.76767   0.00000  Uiso   1.00
O1785  O     0.07452   0.46584   0.73607   0.00000  Uiso   1.00
O1786  O     0.26785   0.52512   0.71806   0.00000  Uiso   1.00
O1787  O     0.06990   0.52293   0.77820   0.00000  Uiso   1.00
O1788  O     0.25440   0.48610   0.76768   0.00000  Uiso   1.00
O1789  O     0.13800   0.40236   0.73607   0.00000  Uiso   1.00
O1790  O     0.20437   0.58860   0.71806   0.00000  Uiso   1.00
Zn1791 Zn    0.19244   0.47423   0.78278   0.00000  Uiso   1.00
Zn1792 Zn    0.13459   0.45711   0.72258   0.00000  Uiso   1.00
Zn1793 Zn    0.21166   0.52997   0.71188   0.00000  Uiso   1.00
Zn1794 Zn    0.12798   0.53868   0.78277   0.00000  Uiso   1.00
C1795  C     0.38562   0.49315   0.75918   0.00000  Uiso   1.00
C1796  C     0.52237   0.46152   0.96097   0.00000  Uiso   1.00
C1797  C     0.53891   0.43683   0.98019   0.00000  Uiso   1.00
C1798  C     0.61443   0.50691   0.74104   0.00000  Uiso   1.00
C1799  C     0.53243   0.44512   0.52156   0.00000  Uiso   1.00
C1800  C     0.51309   0.48192   0.54210   0.00000  Uiso   1.00
C1801  C     0.54495   0.41831   0.54316   0.00000  Uiso   1.00
C1802  C     0.54244   0.43054   0.58293   0.00000  Uiso   1.00
C1803  C     0.51595   0.49557   0.58120   0.00000  Uiso   1.00
C1804  C     0.66086   0.50884   0.73645   0.00000  Uiso   1.00
C1805  C     0.34032   0.49209   0.76249   0.00000  Uiso   1.00
C1806  C     0.43123   0.55158   0.92267   0.00000  Uiso   1.00
C1807  C     0.51614   0.65649   0.74221   0.00000  Uiso   1.00
C1808  C     0.48355   0.34629   0.76270   0.00000  Uiso   1.00
C1809  C     0.48931   0.38972   0.75865   0.00000  Uiso   1.00
C1810  C     0.51044   0.61120   0.74220   0.00000  Uiso   1.00
C1811  C     0.52153   0.47828   0.64400   0.00000  Uiso   1.00
C1812  C     0.47845   0.52146   0.85641   0.00000  Uiso   1.00
C1813  C     0.46774   0.53077   0.90015   0.00000  Uiso   1.00
C1814  C     0.52892   0.46895   0.60147   0.00000  Uiso   1.00
C1815  C     0.42228   0.55931   0.96411   0.00000  Uiso   1.00
C1816  C     0.43310   0.61807   0.55338   0.00000  Uiso   1.00
C1817  C     0.49509   0.51914   0.91973   0.00000  Uiso   1.00
C1818  C     0.40122   0.64876   0.57780   0.00000  Uiso   1.00
C1819  C     0.42465   0.35895   0.58468   0.00000  Uiso   1.00
C1820  C     0.55653   0.37556   0.52707   0.00000  Uiso   1.00
C1821  C     0.36587   0.56739   0.71073   0.00000  Uiso   1.00
C1822  C     0.40030   0.58329   0.67486   0.00000  Uiso   1.00
C1823  C     0.41140   0.63051   0.68124   0.00000  Uiso   1.00
C1824  C     0.59126   0.33733   0.72674   0.00000  Uiso   1.00
C1825  C     0.60455   0.37654   0.75203   0.00000  Uiso   1.00
C1826  C     0.64805   0.37406   0.75939   0.00000  Uiso   1.00
C1827  C     0.44205   0.66486   0.79076   0.00000  Uiso   1.00
C1828  C     0.48123   0.51932   0.96133   0.00000  Uiso   1.00
C1829  C     0.54084   0.56434   0.59149   0.00000  Uiso   1.00
C1830  C     0.53102   0.60457   0.61920   0.00000  Uiso   1.00
C1831  C     0.57076   0.63699   0.61362   0.00000  Uiso   1.00
C1832  C     0.60591   0.41614   0.94627   0.00000  Uiso   1.00
C1833  C     0.62046   0.42954   0.90464   0.00000  Uiso   1.00
C1834  C     0.33651   0.43672   0.88946   0.00000  Uiso   1.00
C1835  C     0.34888   0.55006   0.99201   0.00000  Uiso   1.00
C1836  C     0.64338   0.57126   0.99192   0.00000  Uiso   1.00
C1837  C     0.60467   0.53917   0.99001   0.00000  Uiso   1.00
C1838  C     0.40112   0.56536   0.90423   0.00000  Uiso   1.00
C1839  C     0.44770   0.54390   0.98361   0.00000  Uiso   1.00
C1840  C     0.56731   0.54456   0.90245   0.00000  Uiso   1.00
C1841  C     0.57492   0.57264   0.86984   0.00000  Uiso   1.00
C1842  C     0.61013   0.60872   0.87266   0.00000  Uiso   1.00
C1843  C     0.49987   0.49573   0.98118   0.00000  Uiso   1.00
C1844  C     0.49205   0.50374   0.52271   0.00000  Uiso   1.00
C1845  C     0.46067   0.53072   0.54391   0.00000  Uiso   1.00
C1846  C     0.43958   0.55137   0.52501   0.00000  Uiso   1.00
H1847  H     0.65064   0.48025   0.78846   0.00000  Uiso   1.00
H1848  H     0.40079   0.38037   0.60298   0.00000  Uiso   1.00
H1849  H     0.44104   0.37142   0.55605   0.00000  Uiso   1.00
H1850  H     0.54026   0.65246   0.99979   0.00000  Uiso   1.00
H1851  H     0.37831   0.57629   0.73714   0.00000  Uiso   1.00
H1852  H     0.33586   0.58256   0.71557   0.00000  Uiso   1.00
H1853  H     0.43026   0.56794   0.66932   0.00000  Uiso   1.00
H1854  H     0.38812   0.57509   0.64835   0.00000  Uiso   1.00
H1855  H     0.38182   0.64655   0.68742   0.00000  Uiso   1.00
H1856  H     0.43526   0.64121   0.65426   0.00000  Uiso   1.00
H1857  H     0.42591   0.63916   0.70625   0.00000  Uiso   1.00
H1858  H     0.55023   0.40955   0.59999   0.00000  Uiso   1.00
H1859  H     0.61759   0.66641   0.69869   0.00000  Uiso   1.00
H1860  H     0.58873   0.64298   0.74233   0.00000  Uiso   1.00
H1861  H     0.60710   0.40446   0.73687   0.00000  Uiso   1.00
H1862  H     0.57942   0.37994   0.78096   0.00000  Uiso   1.00
H1863  H     0.64668   0.34572   0.77356   0.00000  Uiso   1.00
H1864  H     0.65578   0.40189   0.77937   0.00000  Uiso   1.00
H1865  H     0.34100   0.37324   0.73110   0.00000  Uiso   1.00
H1866  H     0.41199   0.64171   0.84235   0.00000  Uiso   1.00
H1867  H     0.54679   0.57124   0.56072   0.00000  Uiso   1.00
H1868  H     0.57057   0.55374   0.59478   0.00000  Uiso   1.00
H1869  H     0.44901   0.53418   0.57569   0.00000  Uiso   1.00
H1870  H     0.50427   0.61763   0.61319   0.00000  Uiso   1.00
H1871  H     0.52028   0.59766   0.65036   0.00000  Uiso   1.00
H1872  H     0.59698   0.62564   0.62204   0.00000  Uiso   1.00
H1873  H     0.56191   0.66650   0.63266   0.00000  Uiso   1.00
H1874  H     0.58288   0.64341   0.58235   0.00000  Uiso   1.00
H1875  H     0.62229   0.38844   0.94583   0.00000  Uiso   1.00
H1876  H     0.61694   0.44113   0.96751   0.00000  Uiso   1.00
H1877  H     0.60813   0.40496   0.88409   0.00000  Uiso   1.00
H1878  H     0.60686   0.45888   0.90501   0.00000  Uiso   1.00
H1879  H     0.34967   0.46049   0.91005   0.00000  Uiso   1.00
H1880  H     0.52498   0.45119   0.93020   0.00000  Uiso   1.00
H1881  H     0.34600   0.44797   0.85994   0.00000  Uiso   1.00
H1882  H     0.35082   0.40713   0.88660   0.00000  Uiso   1.00
H1883  H     0.34265   0.53887   0.52126   0.00000  Uiso   1.00
H1884  H     0.35178   0.52206   0.96925   0.00000  Uiso   1.00
H1885  H     0.63446   0.59371   0.51911   0.00000  Uiso   1.00
H1886  H     0.65192   0.58879   0.96587   0.00000  Uiso   1.00
H1887  H     0.61219   0.51823   0.96175   0.00000  Uiso   1.00
H1888  H     0.57636   0.55537   0.99178   0.00000  Uiso   1.00
H1889  H     0.59659   0.52019   0.51494   0.00000  Uiso   1.00
H1890  H     0.35801   0.54896   0.87241   0.00000  Uiso   1.00
H1891  H     0.44996   0.62978   0.52434   0.00000  Uiso   1.00
H1892  H     0.59840   0.53239   0.89956   0.00000  Uiso   1.00
H1893  H     0.55845   0.56336   0.93206   0.00000  Uiso   1.00
H1894  H     0.58477   0.55387   0.84044   0.00000  Uiso   1.00
H1895  H     0.54444   0.58583   0.87251   0.00000  Uiso   1.00
H1896  H     0.60069   0.62821   0.90169   0.00000  Uiso   1.00
H1897  H     0.61458   0.62858   0.84887   0.00000  Uiso   1.00
H1898  H     0.64146   0.59667   0.86906   0.00000  Uiso   1.00
H1899  H     0.45743   0.61676   0.56943   0.00000  Uiso   1.00
H1900  H     0.37683   0.65055   0.56206   0.00000  Uiso   1.00
H1901  H     0.38388   0.63746   0.60680   0.00000  Uiso   1.00
H1902  H     0.44921   0.35795   0.60042   0.00000  Uiso   1.00
O1903  O     0.50000   0.50000   0.75000   0.00000  Uiso   1.00
O1904  O     0.49027   0.45726   0.66625   0.00000  Uiso   1.00
O1905  O     0.46020   0.53979   0.83749   0.00000  Uiso   1.00
O1906  O     0.54421   0.50826   0.65877   0.00000  Uiso   1.00
O1907  O     0.50532   0.49468   0.83749   0.00000  Uiso   1.00
O1908  O     0.41015   0.57827   0.54791   0.00000  Uiso   1.00
O1909  O     0.58917   0.36439   0.53097   0.00000  Uiso   1.00
O1910  O     0.52923   0.34753   0.50894   0.00000  Uiso   1.00
O1911  O     0.35753   0.52358   0.70338   0.00000  Uiso   1.00
O1912  O     0.55312   0.34204   0.71686   0.00000  Uiso   1.00
O1913  O     0.40760   0.33451   0.78460   0.00000  Uiso   1.00
O1914  O     0.51182   0.41434   0.77821   0.00000  Uiso   1.00
O1915  O     0.44232   0.65015   0.82541   0.00000  Uiso   1.00
O1916  O     0.50464   0.53408   0.60099   0.00000  Uiso   1.00
O1917  O     0.56059   0.40392   0.95761   0.00000  Uiso   1.00
O1918  O     0.38635   0.57949   0.98556   0.00000  Uiso   1.00
O1919  O     0.39584   0.60230   0.90847   0.00000  Uiso   1.00
O1920  O     0.37776   0.53589   0.88328   0.00000  Uiso   1.00
O1921  O     0.53648   0.50979   0.89802   0.00000  Uiso   1.00
O1922  O     0.47914   0.59469   0.76767   0.00000  Uiso   1.00
O1923  O     0.40785   0.46584   0.73607   0.00000  Uiso   1.00
O1924  O     0.60119   0.52512   0.71806   0.00000  Uiso   1.00
O1925  O     0.40323   0.52293   0.77820   0.00000  Uiso   1.00
O1926  O     0.58773   0.48610   0.76768   0.00000  Uiso   1.00
O1927  O     0.47133   0.40236   0.73607   0.00000  Uiso   1.00
O1928  O     0.53771   0.58860   0.71806   0.00000  Uiso   1.00
Zn1929 Zn    0.52577   0.47423   0.78278   0.00000  Uiso   1.00
Zn1930 Zn    0.46792   0.45711   0.72258   0.00000  Uiso   1.00
Zn1931 Zn    0.54500   0.52997   0.71188   0.00000  Uiso   1.00
Zn1932 Zn    0.46131   0.53868   0.78277   0.00000  Uiso   1.00
C1933  C     0.71896   0.49315   0.75918   0.00000  Uiso   1.00
C1934  C     0.85570   0.46152   0.96097   0.00000  Uiso   1.00
C1935  C     0.87225   0.43683   0.98019   0.00000  Uiso   1.00
C1936  C     0.94776   0.50691   0.74104   0.00000  Uiso   1.00
C1937  C     0.86576   0.44512   0.52156   0.00000  Uiso   1.00
C1938  C     0.84643   0.48192   0.54210   0.00000  Uiso   1.00
C1939  C     0.87828   0.41831   0.54316   0.00000  Uiso   1.00
C1940  C     0.87577   0.43054   0.58293   0.00000  Uiso   1.00
C1941  C     0.84928   0.49557   0.58120   0.00000  Uiso   1.00
C1942  C     0.99419   0.50884   0.73645   0.00000  Uiso   1.00
C1943  C     0.67366   0.49209   0.76249   0.00000  Uiso   1.00
C1944  C     0.76456   0.55158   0.92267   0.00000  Uiso   1.00
C1945  C     0.84947   0.65649   0.74221   0.00000  Uiso   1.00
C1946  C     0.81688   0.34629   0.76270   0.00000  Uiso   1.00
C1947  C     0.82265   0.38972   0.75865   0.00000  Uiso   1.00
C1948  C     0.84377   0.61120   0.74220   0.00000  Uiso   1.00
C1949  C     0.85486   0.47828   0.64400   0.00000  Uiso   1.00
C1950  C     0.81178   0.52146   0.85641   0.00000  Uiso   1.00
C1951  C     0.80108   0.53077   0.90015   0.00000  Uiso   1.00
C1952  C     0.86226   0.46895   0.60147   0.00000  Uiso   1.00
C1953  C     0.75561   0.55931   0.96411   0.00000  Uiso   1.00
C1954  C     0.76643   0.61807   0.55338   0.00000  Uiso   1.00
C1955  C     0.82843   0.51914   0.91973   0.00000  Uiso   1.00
C1956  C     0.73456   0.64876   0.57780   0.00000  Uiso   1.00
C1957  C     0.75798   0.35895   0.58468   0.00000  Uiso   1.00
C1958  C     0.88987   0.37556   0.52707   0.00000  Uiso   1.00
C1959  C     0.69920   0.56739   0.71073   0.00000  Uiso   1.00
C1960  C     0.73364   0.58329   0.67486   0.00000  Uiso   1.00
C1961  C     0.74473   0.63051   0.68124   0.00000  Uiso   1.00
C1962  C     0.92459   0.33733   0.72674   0.00000  Uiso   1.00
C1963  C     0.93788   0.37654   0.75203   0.00000  Uiso   1.00
C1964  C     0.98139   0.37406   0.75939   0.00000  Uiso   1.00
C1965  C     0.77538   0.66486   0.79076   0.00000  Uiso   1.00
C1966  C     0.81457   0.51932   0.96133   0.00000  Uiso   1.00
C1967  C     0.87417   0.56434   0.59149   0.00000  Uiso   1.00
C1968  C     0.86435   0.60457   0.61920   0.00000  Uiso   1.00
C1969  C     0.90409   0.63699   0.61362   0.00000  Uiso   1.00
C1970  C     0.93924   0.41614   0.94627   0.00000  Uiso   1.00
C1971  C     0.95380   0.42954   0.90464   0.00000  Uiso   1.00
C1972  C     0.66984   0.43672   0.88946   0.00000  Uiso   1.00
C1973  C     0.68221   0.55006   0.99201   0.00000  Uiso   1.00
C1974  C     0.97671   0.57126   0.99192   0.00000  Uiso   1.00
C1975  C     0.93801   0.53917   0.99001   0.00000  Uiso   1.00
C1976  C     0.73446   0.56536   0.90423   0.00000  Uiso   1.00
C1977  C     0.78104   0.54390   0.98361   0.00000  Uiso   1.00
C1978  C     0.90064   0.54456   0.90245   0.00000  Uiso   1.00
C1979  C     0.90826   0.57264   0.86984   0.00000  Uiso   1.00
C1980  C     0.94347   0.60872   0.87266   0.00000  Uiso   1.00
C1981  C     0.83321   0.49573   0.98118   0.00000  Uiso   1.00
C1982  C     0.82538   0.50374   0.52271   0.00000  Uiso   1.00
C1983  C     0.79401   0.53072   0.54391   0.00000  Uiso   1.00
C1984  C     0.77291   0.55137   0.52501   0.00000  Uiso   1.00
H1985  H     0.98397   0.48025   0.78846   0.00000  Uiso   1.00
H1986  H     0.73412   0.38037   0.60298   0.00000  Uiso   1.00
H1987  H     0.77437   0.37142   0.55605   0.00000  Uiso   1.00
H1988  H     0.87359   0.65246   0.99979   0.00000  Uiso   1.00
H1989  H     0.71165   0.57629   0.73714   0.00000  Uiso   1.00
H1990  H     0.66919   0.58256   0.71557   0.00000  Uiso   1.00
H1991  H     0.76360   0.56794   0.66932   0.00000  Uiso   1.00
H1992  H     0.72145   0.57509   0.64835   0.00000  Uiso   1.00
H1993  H     0.71516   0.64655   0.68742   0.00000  Uiso   1.00
H1994  H     0.76860   0.64121   0.65426   0.00000  Uiso   1.00
H1995  H     0.75925   0.63916   0.70625   0.00000  Uiso   1.00
H1996  H     0.88356   0.40955   0.59999   0.00000  Uiso   1.00
H1997  H     0.95092   0.66641   0.69869   0.00000  Uiso   1.00
H1998  H     0.92206   0.64298   0.74233   0.00000  Uiso   1.00
H1999  H     0.94043   0.40446   0.73687   0.00000  Uiso   1.00
H2000  H     0.91275   0.37994   0.78096   0.00000  Uiso   1.00
H2001  H     0.98001   0.34572   0.77356   0.00000  Uiso   1.00
H2002  H     0.98911   0.40189   0.77937   0.00000  Uiso   1.00
H2003  H     0.67433   0.37324   0.73110   0.00000  Uiso   1.00
H2004  H     0.74532   0.64171   0.84235   0.00000  Uiso   1.00
H2005  H     0.88013   0.57124   0.56072   0.00000  Uiso   1.00
H2006  H     0.90391   0.55374   0.59478   0.00000  Uiso   1.00
H2007  H     0.78235   0.53418   0.57569   0.00000  Uiso   1.00
H2008  H     0.83761   0.61763   0.61319   0.00000  Uiso   1.00
H2009  H     0.85362   0.59766   0.65036   0.00000  Uiso   1.00
H2010  H     0.93032   0.62564   0.62204   0.00000  Uiso   1.00
H2011  H     0.89525   0.66650   0.63266   0.00000  Uiso   1.00
H2012  H     0.91621   0.64341   0.58235   0.00000  Uiso   1.00
H2013  H     0.95562   0.38844   0.94583   0.00000  Uiso   1.00
H2014  H     0.95028   0.44113   0.96751   0.00000  Uiso   1.00
H2015  H     0.94147   0.40496   0.88409   0.00000  Uiso   1.00
H2016  H     0.94019   0.45888   0.90501   0.00000  Uiso   1.00
H2017  H     0.68300   0.46049   0.91005   0.00000  Uiso   1.00
H2018  H     0.85832   0.45119   0.93020   0.00000  Uiso   1.00
H2019  H     0.67933   0.44797   0.85994   0.00000  Uiso   1.00
H2020  H     0.68415   0.40713   0.88660   0.00000  Uiso   1.00
H2021  H     0.67598   0.53887   0.52126   0.00000  Uiso   1.00
H2022  H     0.68511   0.52206   0.96925   0.00000  Uiso   1.00
H2023  H     0.96780   0.59371   0.51911   0.00000  Uiso   1.00
H2024  H     0.98525   0.58879   0.96587   0.00000  Uiso   1.00
H2025  H     0.94552   0.51823   0.96175   0.00000  Uiso   1.00
H2026  H     0.90969   0.55537   0.99178   0.00000  Uiso   1.00
H2027  H     0.92993   0.52019   0.51494   0.00000  Uiso   1.00
H2028  H     0.69134   0.54896   0.87241   0.00000  Uiso   1.00
H2029  H     0.78329   0.62978   0.52434   0.00000  Uiso   1.00
H2030  H     0.93174   0.53239   0.89956   0.00000  Uiso   1.00
H2031  H     0.89179   0.56336   0.93206   0.00000  Uiso   1.00
H2032  H     0.91810   0.55387   0.84044   0.00000  Uiso   1.00
H2033  H     0.87777   0.58583   0.87251   0.00000  Uiso   1.00
H2034  H     0.93403   0.62821   0.90169   0.00000  Uiso   1.00
H2035  H     0.94791   0.62858   0.84887   0.00000  Uiso   1.00
H2036  H     0.97479   0.59667   0.86906   0.00000  Uiso   1.00
H2037  H     0.79076   0.61676   0.56943   0.00000  Uiso   1.00
H2038  H     0.71016   0.65055   0.56206   0.00000  Uiso   1.00
H2039  H     0.71721   0.63746   0.60680   0.00000  Uiso   1.00
H2040  H     0.78255   0.35795   0.60042   0.00000  Uiso   1.00
O2041  O     0.83333   0.50000   0.75000   0.00000  Uiso   1.00
O2042  O     0.82360   0.45726   0.66625   0.00000  Uiso   1.00
O2043  O     0.79354   0.53979   0.83749   0.00000  Uiso   1.00
O2044  O     0.87755   0.50826   0.65877   0.00000  Uiso   1.00
O2045  O     0.83865   0.49468   0.83749   0.00000  Uiso   1.00
O2046  O     0.74348   0.57827   0.54791   0.00000  Uiso   1.00
O2047  O     0.92250   0.36439   0.53097   0.00000  Uiso   1.00
O2048  O     0.86256   0.34753   0.50894   0.00000  Uiso   1.00
O2049  O     0.69086   0.52358   0.70338   0.00000  Uiso   1.00
O2050  O     0.88645   0.34204   0.71686   0.00000  Uiso   1.00
O2051  O     0.74093   0.33451   0.78460   0.00000  Uiso   1.00
O2052  O     0.84515   0.41434   0.77821   0.00000  Uiso   1.00
O2053  O     0.77566   0.65015   0.82541   0.00000  Uiso   1.00
O2054  O     0.83797   0.53408   0.60099   0.00000  Uiso   1.00
O2055  O     0.89393   0.40392   0.95761   0.00000  Uiso   1.00
O2056  O     0.71969   0.57949   0.98556   0.00000  Uiso   1.00
O2057  O     0.72917   0.60230   0.90847   0.00000  Uiso   1.00
O2058  O     0.71109   0.53589   0.88328   0.00000  Uiso   1.00
O2059  O     0.86981   0.50979   0.89802   0.00000  Uiso   1.00
O2060  O     0.81247   0.59469   0.76767   0.00000  Uiso   1.00
O2061  O     0.74119   0.46584   0.73607   0.00000  Uiso   1.00
O2062  O     0.93452   0.52512   0.71806   0.00000  Uiso   1.00
O2063  O     0.73656   0.52293   0.77820   0.00000  Uiso   1.00
O2064  O     0.92106   0.48610   0.76768   0.00000  Uiso   1.00
O2065  O     0.80467   0.40236   0.73607   0.00000  Uiso   1.00
O2066  O     0.87104   0.58860   0.71806   0.00000  Uiso   1.00
Zn2067 Zn    0.85910   0.47423   0.78278   0.00000  Uiso   1.00
Zn2068 Zn    0.80125   0.45711   0.72258   0.00000  Uiso   1.00
Zn2069 Zn    0.87833   0.52997   0.71188   0.00000  Uiso   1.00
Zn2070 Zn    0.79465   0.53868   0.78277   0.00000  Uiso   1.00
C2071  C     0.05229   0.82648   0.75918   0.00000  Uiso   1.00
C2072  C     0.18904   0.79485   0.96097   0.00000  Uiso   1.00
C2073  C     0.20558   0.77016   0.98019   0.00000  Uiso   1.00
C2074  C     0.28109   0.84024   0.74104   0.00000  Uiso   1.00
C2075  C     0.19909   0.77846   0.52156   0.00000  Uiso   1.00
C2076  C     0.17976   0.81525   0.54210   0.00000  Uiso   1.00
C2077  C     0.21162   0.75165   0.54316   0.00000  Uiso   1.00
C2078  C     0.20911   0.76388   0.58293   0.00000  Uiso   1.00
C2079  C     0.18262   0.82890   0.58120   0.00000  Uiso   1.00
C2080  C     0.32753   0.84217   0.73645   0.00000  Uiso   1.00
C2081  C     0.00699   0.82542   0.76249   0.00000  Uiso   1.00
C2082  C     0.09789   0.88491   0.92267   0.00000  Uiso   1.00
C2083  C     0.18281   0.98982   0.74221   0.00000  Uiso   1.00
C2084  C     0.15021   0.67962   0.76270   0.00000  Uiso   1.00
C2085  C     0.15598   0.72306   0.75865   0.00000  Uiso   1.00
C2086  C     0.17711   0.94453   0.74220   0.00000  Uiso   1.00
C2087  C     0.18820   0.81161   0.64400   0.00000  Uiso   1.00
C2088  C     0.14511   0.85479   0.85641   0.00000  Uiso   1.00
C2089  C     0.13441   0.86411   0.90015   0.00000  Uiso   1.00
C2090  C     0.19559   0.80228   0.60147   0.00000  Uiso   1.00
C2091  C     0.08895   0.89265   0.96411   0.00000  Uiso   1.00
C2092  C     0.09977   0.95140   0.55338   0.00000  Uiso   1.00
C2093  C     0.16176   0.85247   0.91973   0.00000  Uiso   1.00
C2094  C     0.06789   0.98209   0.57780   0.00000  Uiso   1.00
C2095  C     0.09131   0.69228   0.58468   0.00000  Uiso   1.00
C2096  C     0.22320   0.70890   0.52707   0.00000  Uiso   1.00
C2097  C     0.03253   0.90072   0.71073   0.00000  Uiso   1.00
C2098  C     0.06697   0.91662   0.67486   0.00000  Uiso   1.00
C2099  C     0.07806   0.96385   0.68124   0.00000  Uiso   1.00
C2100  C     0.25793   0.67066   0.72674   0.00000  Uiso   1.00
C2101  C     0.27121   0.70988   0.75203   0.00000  Uiso   1.00
C2102  C     0.31472   0.70740   0.75939   0.00000  Uiso   1.00
C2103  C     0.10871   0.99819   0.79076   0.00000  Uiso   1.00
C2104  C     0.14790   0.85265   0.96133   0.00000  Uiso   1.00
C2105  C     0.20751   0.89768   0.59149   0.00000  Uiso   1.00
C2106  C     0.19769   0.93791   0.61920   0.00000  Uiso   1.00
C2107  C     0.23743   0.97033   0.61362   0.00000  Uiso   1.00
C2108  C     0.27257   0.74947   0.94627   0.00000  Uiso   1.00
C2109  C     0.28713   0.76287   0.90464   0.00000  Uiso   1.00
C2110  C     0.00318   0.77006   0.88946   0.00000  Uiso   1.00
C2111  C     0.01555   0.88339   0.99201   0.00000  Uiso   1.00
C2112  C     0.31005   0.90459   0.99192   0.00000  Uiso   1.00
C2113  C     0.27134   0.87251   0.99001   0.00000  Uiso   1.00
C2114  C     0.06779   0.89869   0.90423   0.00000  Uiso   1.00
C2115  C     0.11437   0.87723   0.98361   0.00000  Uiso   1.00
C2116  C     0.23398   0.87789   0.90245   0.00000  Uiso   1.00
C2117  C     0.24159   0.90597   0.86984   0.00000  Uiso   1.00
C2118  C     0.27680   0.94205   0.87266   0.00000  Uiso   1.00
C2119  C     0.16654   0.82906   0.98118   0.00000  Uiso   1.00
C2120  C     0.15872   0.83707   0.52271   0.00000  Uiso   1.00
C2121  C     0.12734   0.86406   0.54391   0.00000  Uiso   1.00
C2122  C     0.10625   0.88470   0.52501   0.00000  Uiso   1.00
H2123  H     0.31730   0.81358   0.78846   0.00000  Uiso   1.00
H2124  H     0.06746   0.71370   0.60298   0.00000  Uiso   1.00
H2125  H     0.10771   0.70475   0.55605   0.00000  Uiso   1.00
H2126  H     0.20692   0.98579   0.99979   0.00000  Uiso   1.00
H2127  H     0.04498   0.90963   0.73714   0.00000  Uiso   1.00
H2128  H     0.00252   0.91589   0.71557   0.00000  Uiso   1.00
H2129  H     0.09693   0.90128   0.66932   0.00000  Uiso   1.00
H2130  H     0.05478   0.90843   0.64835   0.00000  Uiso   1.00
H2131  H     0.04849   0.97989   0.68742   0.00000  Uiso   1.00
H2132  H     0.10193   0.97455   0.65426   0.00000  Uiso   1.00
H2133  H     0.09258   0.97249   0.70625   0.00000  Uiso   1.00
H2134  H     0.21689   0.74289   0.59999   0.00000  Uiso   1.00
H2135  H     0.28425   0.99974   0.69869   0.00000  Uiso   1.00
H2136  H     0.25540   0.97631   0.74233   0.00000  Uiso   1.00
H2137  H     0.27376   0.73779   0.73687   0.00000  Uiso   1.00
H2138  H     0.24609   0.71327   0.78096   0.00000  Uiso   1.00
H2139  H     0.31334   0.67905   0.77356   0.00000  Uiso   1.00
H2140  H     0.32244   0.73522   0.77937   0.00000  Uiso   1.00
H2141  H     0.00766   0.70658   0.73110   0.00000  Uiso   1.00
H2142  H     0.07865   0.97504   0.84235   0.00000  Uiso   1.00
H2143  H     0.21346   0.90457   0.56072   0.00000  Uiso   1.00
H2144  H     0.23724   0.88708   0.59478   0.00000  Uiso   1.00
H2145  H     0.11568   0.86751   0.57569   0.00000  Uiso   1.00
H2146  H     0.17094   0.95096   0.61319   0.00000  Uiso   1.00
H2147  H     0.18695   0.93099   0.65036   0.00000  Uiso   1.00
H2148  H     0.26365   0.95897   0.62204   0.00000  Uiso   1.00
H2149  H     0.22858   0.99984   0.63266   0.00000  Uiso   1.00
H2150  H     0.24954   0.97674   0.58235   0.00000  Uiso   1.00
H2151  H     0.28896   0.72177   0.94583   0.00000  Uiso   1.00
H2152  H     0.28361   0.77447   0.96751   0.00000  Uiso   1.00
H2153  H     0.27480   0.73829   0.88409   0.00000  Uiso   1.00
H2154  H     0.27353   0.79221   0.90501   0.00000  Uiso   1.00
H2155  H     0.01634   0.79382   0.91005   0.00000  Uiso   1.00
H2156  H     0.19165   0.78452   0.93020   0.00000  Uiso   1.00
H2157  H     0.01267   0.78131   0.85994   0.00000  Uiso   1.00
H2158  H     0.01749   0.74046   0.88660   0.00000  Uiso   1.00
H2159  H     0.00931   0.87220   0.52126   0.00000  Uiso   1.00
H2160  H     0.01845   0.85539   0.96925   0.00000  Uiso   1.00
H2161  H     0.30113   0.92704   0.51911   0.00000  Uiso   1.00
H2162  H     0.31858   0.92213   0.96587   0.00000  Uiso   1.00
H2163  H     0.27885   0.85156   0.96175   0.00000  Uiso   1.00
H2164  H     0.24302   0.88870   0.99178   0.00000  Uiso   1.00
H2165  H     0.26326   0.85352   0.51494   0.00000  Uiso   1.00
H2166  H     0.02467   0.88230   0.87241   0.00000  Uiso   1.00
H2167  H     0.11663   0.96311   0.52434   0.00000  Uiso   1.00
H2168  H     0.26507   0.86572   0.89956   0.00000  Uiso   1.00
H2169  H     0.22512   0.89669   0.93206   0.00000  Uiso   1.00
H2170  H     0.25144   0.88720   0.84044   0.00000  Uiso   1.00
H2171  H     0.21110   0.91917   0.87251   0.00000  Uiso   1.00
H2172  H     0.26736   0.96154   0.90169   0.00000  Uiso   1.00
H2173  H     0.28124   0.96192   0.84887   0.00000  Uiso   1.00
H2174  H     0.30812   0.93000   0.86906   0.00000  Uiso   1.00
H2175  H     0.12410   0.95009   0.56943   0.00000  Uiso   1.00
H2176  H     0.04350   0.98388   0.56206   0.00000  Uiso   1.00
H2177  H     0.05054   0.97079   0.60680   0.00000  Uiso   1.00
H2178  H     0.11588   0.69129   0.60042   0.00000  Uiso   1.00
O2179  O     0.16667   0.83333   0.75000   0.00000  Uiso   1.00
O2180  O     0.15693   0.79060   0.66625   0.00000  Uiso   1.00
O2181  O     0.12687   0.87313   0.83749   0.00000  Uiso   1.00
O2182  O     0.21088   0.84159   0.65877   0.00000  Uiso   1.00
O2183  O     0.17198   0.82802   0.83749   0.00000  Uiso   1.00
O2184  O     0.07682   0.91161   0.54791   0.00000  Uiso   1.00
O2185  O     0.25584   0.69773   0.53097   0.00000  Uiso   1.00
O2186  O     0.19589   0.68086   0.50894   0.00000  Uiso   1.00
O2187  O     0.02419   0.85691   0.70338   0.00000  Uiso   1.00
O2188  O     0.21978   0.67537   0.71686   0.00000  Uiso   1.00
O2189  O     0.07427   0.66784   0.78460   0.00000  Uiso   1.00
O2190  O     0.17849   0.74768   0.77821   0.00000  Uiso   1.00
O2191  O     0.10899   0.98348   0.82541   0.00000  Uiso   1.00
O2192  O     0.17131   0.86741   0.60099   0.00000  Uiso   1.00
O2193  O     0.22726   0.73726   0.95761   0.00000  Uiso   1.00
O2194  O     0.05302   0.91282   0.98556   0.00000  Uiso   1.00
O2195  O     0.06250   0.93563   0.90847   0.00000  Uiso   1.00
O2196  O     0.04442   0.86922   0.88328   0.00000  Uiso   1.00
O2197  O     0.20314   0.84312   0.89802   0.00000  Uiso   1.00
O2198  O     0.14581   0.92803   0.76767   0.00000  Uiso   1.00
O2199  O     0.07452   0.79917   0.73607   0.00000  Uiso   1.00
O2200  O     0.26785   0.85845   0.71806   0.00000  Uiso   1.00
O2201  O     0.06990   0.85627   0.77820   0.00000  Uiso   1.00
O2202  O     0.25440   0.81944   0.76768   0.00000  Uiso   1.00
O2203  O     0.13800   0.73570   0.73607   0.00000  Uiso   1.00
O2204  O     0.20437   0.92193   0.71806   0.00000  Uiso   1.00
Zn2205 Zn    0.19244   0.80756   0.78278   0.00000  Uiso   1.00
Zn2206 Zn    0.13459   0.79044   0.72258   0.00000  Uiso   1.00
Zn2207 Zn    0.21166   0.86331   0.71188   0.00000  Uiso   1.00
Zn2208 Zn    0.12798   0.87202   0.78277   0.00000  Uiso   1.00
C2209  C     0.38562   0.82648   0.75918   0.00000  Uiso   1.00
C2210  C     0.52237   0.79485   0.96097   0.00000  Uiso   1.00
C2211  C     0.53891   0.77016   0.98019   0.00000  Uiso   1.00
C2212  C     0.61443   0.84024   0.74104   0.00000  Uiso   1.00
C2213  C     0.53243   0.77846   0.52156   0.00000  Uiso   1.00
C2214  C     0.51309   0.81525   0.54210   0.00000  Uiso   1.00
C2215  C     0.54495   0.75165   0.54316   0.00000  Uiso   1.00
C2216  C     0.54244   0.76388   0.58293   0.00000  Uiso   1.00
C2217  C     0.51595   0.82890   0.58120   0.00000  Uiso   1.00
C2218  C     0.66086   0.84217   0.73645   0.00000  Uiso   1.00
C2219  C     0.34032   0.82542   0.76249   0.00000  Uiso   1.00
C2220  C     0.43123   0.88491   0.92267   0.00000  Uiso   1.00
C2221  C     0.51614   0.98982   0.74221   0.00000  Uiso   1.00
C2222  C     0.48355   0.67962   0.76270   0.00000  Uiso   1.00
C2223  C     0.48931   0.72306   0.75865   0.00000  Uiso   1.00
C2224  C     0.51044   0.94453   0.74220   0.00000  Uiso   1.00
C2225  C     0.52153   0.81161   0.64400   0.00000  Uiso   1.00
C2226  C     0.47845   0.85479   0.85641   0.00000  Uiso   1.00
C2227  C     0.46774   0.86411   0.90015   0.00000  Uiso   1.00
C2228  C     0.52892   0.80228   0.60147   0.00000  Uiso   1.00
C2229  C     0.42228   0.89265   0.96411   0.00000  Uiso   1.00
C2230  C     0.43310   0.95140   0.55338   0.00000  Uiso   1.00
C2231  C     0.49509   0.85247   0.91973   0.00000  Uiso   1.00
C2232  C     0.40122   0.98209   0.57780   0.00000  Uiso   1.00
C2233  C     0.42465   0.69228   0.58468   0.00000  Uiso   1.00
C2234  C     0.55653   0.70890   0.52707   0.00000  Uiso   1.00
C2235  C     0.36587   0.90072   0.71073   0.00000  Uiso   1.00
C2236  C     0.40030   0.91662   0.67486   0.00000  Uiso   1.00
C2237  C     0.41140   0.96385   0.68124   0.00000  Uiso   1.00
C2238  C     0.59126   0.67066   0.72674   0.00000  Uiso   1.00
C2239  C     0.60455   0.70988   0.75203   0.00000  Uiso   1.00
C2240  C     0.64805   0.70740   0.75939   0.00000  Uiso   1.00
C2241  C     0.44205   0.99819   0.79076   0.00000  Uiso   1.00
C2242  C     0.48123   0.85265   0.96133   0.00000  Uiso   1.00
C2243  C     0.54084   0.89768   0.59149   0.00000  Uiso   1.00
C2244  C     0.53102   0.93791   0.61920   0.00000  Uiso   1.00
C2245  C     0.57076   0.97033   0.61362   0.00000  Uiso   1.00
C2246  C     0.60591   0.74947   0.94627   0.00000  Uiso   1.00
C2247  C     0.62046   0.76287   0.90464   0.00000  Uiso   1.00
C2248  C     0.33651   0.77006   0.88946   0.00000  Uiso   1.00
C2249  C     0.34888   0.88339   0.99201   0.00000  Uiso   1.00
C2250  C     0.64338   0.90459   0.99192   0.00000  Uiso   1.00
C2251  C     0.60467   0.87251   0.99001   0.00000  Uiso   1.00
C2252  C     0.40112   0.89869   0.90423   0.00000  Uiso   1.00
C2253  C     0.44770   0.87723   0.98361   0.00000  Uiso   1.00
C2254  C     0.56731   0.87789   0.90245   0.00000  Uiso   1.00
C2255  C     0.57492   0.90597   0.86984   0.00000  Uiso   1.00
C2256  C     0.61013   0.94205   0.87266   0.00000  Uiso   1.00
C2257  C     0.49987   0.82906   0.98118   0.00000  Uiso   1.00
C2258  C     0.49205   0.83707   0.52271   0.00000  Uiso   1.00
C2259  C     0.46067   0.86406   0.54391   0.00000  Uiso   1.00
C2260  C     0.43958   0.88470   0.52501   0.00000  Uiso   1.00
H2261  H     0.65064   0.81358   0.78846   0.00000  Uiso   1.00
H2262  H     0.40079   0.71370   0.60298   0.00000  Uiso   1.00
H2263  H     0.44104   0.70475   0.55605   0.00000  Uiso   1.00
H2264  H     0.54026   0.98579   0.99979   0.00000  Uiso   1.00
H2265  H     0.37831   0.90963   0.73714   0.00000  Uiso   1.00
H2266  H     0.33586   0.91589   0.71557   0.00000  Uiso   1.00
H2267  H     0.43026   0.90128   0.66932   0.00000  Uiso   1.00
H2268  H     0.38812   0.90843   0.64835   0.00000  Uiso   1.00
H2269  H     0.38182   0.97989   0.68742   0.00000  Uiso   1.00
H2270  H     0.43526   0.97455   0.65426   0.00000  Uiso   1.00
H2271  H     0.42591   0.97249   0.70625   0.00000  Uiso   1.00
H2272  H     0.55023   0.74289   0.59999   0.00000  Uiso   1.00
H2273  H     0.61759   0.99974   0.69869   0.00000  Uiso   1.00
H2274  H     0.58873   0.97631   0.74233   0.00000  Uiso   1.00
H2275  H     0.60710   0.73779   0.73687   0.00000  Uiso   1.00
H2276  H     0.57942   0.71327   0.78096   0.00000  Uiso   1.00
H2277  H     0.64668   0.67905   0.77356   0.00000  Uiso   1.00
H2278  H     0.65578   0.73522   0.77937   0.00000  Uiso   1.00
H2279  H     0.34100   0.70658   0.73110   0.00000  Uiso   1.00
H2280  H     0.41199   0.97504   0.84235   0.00000  Uiso   1.00
H2281  H     0.54679   0.90457   0.56072   0.00000  Uiso   1.00
H2282  H     0.57057   0.88708   0.59478   0.00000  Uiso   1.00
H2283  H     0.44901   0.86751   0.57569   0.00000  Uiso   1.00
H2284  H     0.50427   0.95096   0.61319   0.00000  Uiso   1.00
H2285  H     0.52028   0.93099   0.65036   0.00000  Uiso   1.00
H2286  H     0.59698   0.95897   0.62204   0.00000  Uiso   1.00
H2287  H     0.56191   0.99984   0.63266   0.00000  Uiso   1.00
H2288  H     0.58288   0.97674   0.58235   0.00000  Uiso   1.00
H2289  H     0.62229   0.72177   0.94583   0.00000  Uiso   1.00
H2290  H     0.61694   0.77447   0.96751   0.00000  Uiso   1.00
H2291  H     0.60813   0.73829   0.88409   0.00000  Uiso   1.00
H2292  H     0.60686   0.79221   0.90501   0.00000  Uiso   1.00
H2293  H     0.34967   0.79382   0.91005   0.00000  Uiso   1.00
H2294  H     0.52498   0.78452   0.93020   0.00000  Uiso   1.00
H2295  H     0.34600   0.78131   0.85994   0.00000  Uiso   1.00
H2296  H     0.35082   0.74046   0.88660   0.00000  Uiso   1.00
H2297  H     0.34265   0.87220   0.52126   0.00000  Uiso   1.00
H2298  H     0.35178   0.85539   0.96925   0.00000  Uiso   1.00
H2299  H     0.63446   0.92704   0.51911   0.00000  Uiso   1.00
H2300  H     0.65192   0.92213   0.96587   0.00000  Uiso   1.00
H2301  H     0.61219   0.85156   0.96175   0.00000  Uiso   1.00
H2302  H     0.57636   0.88870   0.99178   0.00000  Uiso   1.00
H2303  H     0.59659   0.85352   0.51494   0.00000  Uiso   1.00
H2304  H     0.35801   0.88230   0.87241   0.00000  Uiso   1.00
H2305  H     0.44996   0.96311   0.52434   0.00000  Uiso   1.00
H2306  H     0.59840   0.86572   0.89956   0.00000  Uiso   1.00
H2307  H     0.55845   0.89669   0.93206   0.00000  Uiso   1.00
H2308  H     0.58477   0.88720   0.84044   0.00000  Uiso   1.00
H2309  H     0.54444   0.91917   0.87251   0.00000  Uiso   1.00
H2310  H     0.60069   0.96154   0.90169   0.00000  Uiso   1.00
H2311  H     0.61458   0.96192   0.84887   0.00000  Uiso   1.00
H2312  H     0.64146   0.93000   0.86906   0.00000  Uiso   1.00
H2313  H     0.45743   0.95009   0.56943   0.00000  Uiso   1.00
H2314  H     0.37683   0.98388   0.56206   0.00000  Uiso   1.00
H2315  H     0.38388   0.97079   0.60680   0.00000  Uiso   1.00
H2316  H     0.44921   0.69129   0.60042   0.00000  Uiso   1.00
O2317  O     0.50000   0.83333   0.75000   0.00000  Uiso   1.00
O2318  O     0.49027   0.79060   0.66625   0.00000  Uiso   1.00
O2319  O     0.46020   0.87313   0.83749   0.00000  Uiso   1.00
O2320  O     0.54421   0.84159   0.65877   0.00000  Uiso   1.00
O2321  O     0.50532   0.82802   0.83749   0.00000  Uiso   1.00
O2322  O     0.41015   0.91161   0.54791   0.00000  Uiso   1.00
O2323  O     0.58917   0.69773   0.53097   0.00000  Uiso   1.00
O2324  O     0.52923   0.68086   0.50894   0.00000  Uiso   1.00
O2325  O     0.35753   0.85691   0.70338   0.00000  Uiso   1.00
O2326  O     0.55312   0.67537   0.71686   0.00000  Uiso   1.00
O2327  O     0.40760   0.66784   0.78460   0.00000  Uiso   1.00
O2328  O     0.51182   0.74768   0.77821   0.00000  Uiso   1.00
O2329  O     0.44232   0.98348   0.82541   0.00000  Uiso   1.00
O2330  O     0.50464   0.86741   0.60099   0.00000  Uiso   1.00
O2331  O     0.56059   0.73726   0.95761   0.00000  Uiso   1.00
O2332  O     0.38635   0.91282   0.98556   0.00000  Uiso   1.00
O2333  O     0.39584   0.93563   0.90847   0.00000  Uiso   1.00
O2334  O     0.37776   0.86922   0.88328   0.00000  Uiso   1.00
O2335  O     0.53648   0.84312   0.89802   0.00000  Uiso   1.00
O2336  O     0.47914   0.92803   0.76767   0.00000  Uiso   1.00
O2337  O     0.40785   0.79917   0.73607   0.00000  Uiso   1.00
O2338  O     0.60119   0.85845   0.71806   0.00000  Uiso   1.00
O2339  O     0.40323   0.85627   0.77820   0.00000  Uiso   1.00
O2340  O     0.58773   0.81944   0.76768   0.00000  Uiso   1.00
O2341  O     0.47133   0.73570   0.73607   0.00000  Uiso   1.00
O2342  O     0.53771   0.92193   0.71806   0.00000  Uiso   1.00
Zn2343 Zn    0.52577   0.80756   0.78278   0.00000  Uiso   1.00
Zn2344 Zn    0.46792   0.79044   0.72258   0.00000  Uiso   1.00
Zn2345 Zn    0.54500   0.86331   0.71188   0.00000  Uiso   1.00
Zn2346 Zn    0.46131   0.87202   0.78277   0.00000  Uiso   1.00
C2347  C     0.71896   0.82648   0.75918   0.00000  Uiso   1.00
C2348  C     0.85570   0.79485   0.96097   0.00000  Uiso   1.00
C2349  C     0.87225   0.77016   0.98019   0.00000  Uiso   1.00
C2350  C     0.94776   0.84024   0.74104   0.00000  Uiso   1.00
C2351  C     0.86576   0.77846   0.52156   0.00000  Uiso   1.00
C2352  C     0.84643   0.81525   0.54210   0.00000  Uiso   1.00
C2353  C     0.87828   0.75165   0.54316   0.00000  Uiso   1.00
C2354  C     0.87577   0.76388   0.58293   0.00000  Uiso   1.00
C2355  C     0.84928   0.82890   0.58120   0.00000  Uiso   1.00
C2356  C     0.99419   0.84217   0.73645   0.00000  Uiso   1.00
C2357  C     0.67366   0.82542   0.76249   0.00000  Uiso   1.00
C2358  C     0.76456   0.88491   0.92267   0.00000  Uiso   1.00
C2359  C     0.84947   0.98982   0.74221   0.00000  Uiso   1.00
C2360  C     0.81688   0.67962   0.76270   0.00000  Uiso   1.00
C2361  C     0.82265   0.72306   0.75865   0.00000  Uiso   1.00
C2362  C     0.84377   0.94453   0.74220   0.00000  Uiso   1.00
C2363  C     0.85486   0.81161   0.64400   0.00000  Uiso   1.00
C2364  C     0.81178   0.85479   0.85641   0.00000  Uiso   1.00
C2365  C     0.80108   0.86411   0.90015   0.00000  Uiso   1.00
C2366  C     0.86226   0.80228   0.60147   0.00000  Uiso   1.00
C2367  C     0.75561   0.89265   0.96411   0.00000  Uiso   1.00
C2368  C     0.76643   0.95140   0.55338   0.00000  Uiso   1.00
C2369  C     0.82843   0.85247   0.91973   0.00000  Uiso   1.00
C2370  C     0.73456   0.98209   0.57780   0.00000  Uiso   1.00
C2371  C     0.75798   0.69228   0.58468   0.00000  Uiso   1.00
C2372  C     0.88987   0.70890   0.52707   0.00000  Uiso   1.00
C2373  C     0.69920   0.90072   0.71073   0.00000  Uiso   1.00
C2374  C     0.73364   0.91662   0.67486   0.00000  Uiso   1.00
C2375  C     0.74473   0.96385   0.68124   0.00000  Uiso   1.00
C2376  C     0.92459   0.67066   0.72674   0.00000  Uiso   1.00
C2377  C     0.93788   0.70988   0.75203   0.00000  Uiso   1.00
C2378  C     0.98139   0.70740   0.75939   0.00000  Uiso   1.00
C2379  C     0.77538   0.99819   0.79076   0.00000  Uiso   1.00
C2380  C     0.81457   0.85265   0.96133   0.00000  Uiso   1.00
C2381  C     0.87417   0.89768   0.59149   0.00000  Uiso   1.00
C2382  C     0.86435   0.93791   0.61920   0.00000  Uiso   1.00
C2383  C     0.90409   0.97033   0.61362   0.00000  Uiso   1.00
C2384  C     0.93924   0.74947   0.94627   0.00000  Uiso   1.00
C2385  C     0.95380   0.76287   0.90464   0.00000  Uiso   1.00
C2386  C     0.66984   0.77006   0.88946   0.00000  Uiso   1.00
C2387  C     0.68221   0.88339   0.99201   0.00000  Uiso   1.00
C2388  C     0.97671   0.90459   0.99192   0.00000  Uiso   1.00
C2389  C     0.93801   0.87251   0.99001   0.00000  Uiso   1.00
C2390  C     0.73446   0.89869   0.90423   0.00000  Uiso   1.00
C2391  C     0.78104   0.87723   0.98361   0.00000  Uiso   1.00
C2392  C     0.90064   0.87789   0.90245   0.00000  Uiso   1.00
C2393  C     0.90826   0.90597   0.86984   0.00000  Uiso   1.00
C2394  C     0.94347   0.94205   0.87266   0.00000  Uiso   1.00
C2395  C     0.83321   0.82906   0.98118   0.00000  Uiso   1.00
C2396  C     0.82538   0.83707   0.52271   0.00000  Uiso   1.00
C2397  C     0.79401   0.86406   0.54391   0.00000  Uiso   1.00
C2398  C     0.77291   0.88470   0.52501   0.00000  Uiso   1.00
H2399  H     0.98397   0.81358   0.78846   0.00000  Uiso   1.00
H2400  H     0.73412   0.71370   0.60298   0.00000  Uiso   1.00
H2401  H     0.77437   0.70475   0.55605   0.00000  Uiso   1.00
H2402  H     0.87359   0.98579   0.99979   0.00000  Uiso   1.00
H2403  H     0.71165   0.90963   0.73714   0.00000  Uiso   1.00
H2404  H     0.66919   0.91589   0.71557   0.00000  Uiso   1.00
H2405  H     0.76360   0.90128   0.66932   0.00000  Uiso   1.00
H2406  H     0.72145   0.90843   0.64835   0.00000  Uiso   1.00
H2407  H     0.71516   0.97989   0.68742   0.00000  Uiso   1.00
H2408  H     0.76860   0.97455   0.65426   0.00000  Uiso   1.00
H2409  H     0.75925   0.97249   0.70625   0.00000  Uiso   1.00
H2410  H     0.88356   0.74289   0.59999   0.00000  Uiso   1.00
H2411  H     0.95092   0.99974   0.69869   0.00000  Uiso   1.00
H2412  H     0.92206   0.97631   0.74233   0.00000  Uiso   1.00
H2413  H     0.94043   0.73779   0.73687   0.00000  Uiso   1.00
H2414  H     0.91275   0.71327   0.78096   0.00000  Uiso   1.00
H2415  H     0.98001   0.67905   0.77356   0.00000  Uiso   1.00
H2416  H     0.98911   0.73522   0.77937   0.00000  Uiso   1.00
H2417  H     0.67433   0.70658   0.73110   0.00000  Uiso   1.00
H2418  H     0.74532   0.97504   0.84235   0.00000  Uiso   1.00
H2419  H     0.88013   0.90457   0.56072   0.00000  Uiso   1.00
H2420  H     0.90391   0.88708   0.59478   0.00000  Uiso   1.00
H2421  H     0.78235   0.86751   0.57569   0.00000  Uiso   1.00
H2422  H     0.83761   0.95096   0.61319   0.00000  Uiso   1.00
H2423  H     0.85362   0.93099   0.65036   0.00000  Uiso   1.00
H2424  H     0.93032   0.95897   0.62204   0.00000  Uiso   1.00
H2425  H     0.89525   0.99984   0.63266   0.00000  Uiso   1.00
H2426  H     0.91621   0.97674   0.58235   0.00000  Uiso   1.00
H2427  H     0.95562   0.72177   0.94583   0.00000  Uiso   1.00
H2428  H     0.95028   0.77447   0.96751   0.00000  Uiso   1.00
H2429  H     0.94147   0.73829   0.88409   0.00000  Uiso   1.00
H2430  H     0.94019   0.79221   0.90501   0.00000  Uiso   1.00
H2431  H     0.68300   0.79382   0.91005   0.00000  Uiso   1.00
H2432  H     0.85832   0.78452   0.93020   0.00000  Uiso   1.00
H2433  H     0.67933   0.78131   0.85994   0.00000  Uiso   1.00
H2434  H     0.68415   0.74046   0.88660   0.00000  Uiso   1.00
H2435  H     0.67598   0.87220   0.52126   0.00000  Uiso   1.00
H2436  H     0.68511   0.85539   0.96925   0.00000  Uiso   1.00
H2437  H     0.96780   0.92704   0.51911   0.00000  Uiso   1.00
H2438  H     0.98525   0.92213   0.96587   0.00000  Uiso   1.00
H2439  H     0.94552   0.85156   0.96175   0.00000  Uiso   1.00
H2440  H     0.90969   0.88870   0.99178   0.00000  Uiso   1.00
H2441  H     0.92993   0.85352   0.51494   0.00000  Uiso   1.00
H2442  H     0.69134   0.88230   0.87241   0.00000  Uiso   1.00
H2443  H     0.78329   0.96311   0.52434   0.00000  Uiso   1.00
H2444  H     0.93174   0.86572   0.89956   0.00000  Uiso   1.00
H2445  H     0.89179   0.89669   0.93206   0.00000  Uiso   1.00
H2446  H     0.91810   0.88720   0.84044   0.00000  Uiso   1.00
H2447  H     0.87777   0.91917   0.87251   0.00000  Uiso   1.00
H2448  H     0.93403   0.96154   0.90169   0.00000  Uiso   1.00
H2449  H     0.94791   0.96192   0.84887   0.00000  Uiso   1.00
H2450  H     0.97479   0.93000   0.86906   0.00000  Uiso   1.00
H2451  H     0.79076   0.95009   0.56943   0.00000  Uiso   1.00
H2452  H     0.71016   0.98388   0.56206   0.00000  Uiso   1.00
H2453  H     0.71721   0.97079   0.60680   0.00000  Uiso   1.00
H2454  H     0.78255   0.69129   0.60042   0.00000  Uiso   1.00
O2455  O     0.83333   0.83333   0.75000   0.00000  Uiso   1.00
O2456  O     0.82360   0.79060   0.66625   0.00000  Uiso   1.00
O2457  O     0.79354   0.87313   0.83749   0.00000  Uiso   1.00
O2458  O     0.87755   0.84159   0.65877   0.00000  Uiso   1.00
O2459  O     0.83865   0.82802   0.83749   0.00000  Uiso   1.00
O2460  O     0.74348   0.91161   0.54791   0.00000  Uiso   1.00
O2461  O     0.92250   0.69773   0.53097   0.00000  Uiso   1.00
O2462  O     0.86256   0.68086   0.50894   0.00000  Uiso   1.00
O2463  O     0.69086   0.85691   0.70338   0.00000  Uiso   1.00
O2464  O     0.88645   0.67537   0.71686   0.00000  Uiso   1.00
O2465  O     0.74093   0.66784   0.78460   0.00000  Uiso   1.00
O2466  O     0.84515   0.74768   0.77821   0.00000  Uiso   1.00
O2467  O     0.77566   0.98348   0.82541   0.00000  Uiso   1.00
O2468  O     0.83797   0.86741   0.60099   0.00000  Uiso   1.00
O2469  O     0.89393   0.73726   0.95761   0.00000  Uiso   1.00
O2470  O     0.71969   0.91282   0.98556   0.00000  Uiso   1.00
O2471  O     0.72917   0.93563   0.90847   0.00000  Uiso   1.00
O2472  O     0.71109   0.86922   0.88328   0.00000  Uiso   1.00
O2473  O     0.86981   0.84312   0.89802   0.00000  Uiso   1.00
O2474  O     0.81247   0.92803   0.76767   0.00000  Uiso   1.00
O2475  O     0.74119   0.79917   0.73607   0.00000  Uiso   1.00
O2476  O     0.93452   0.85845   0.71806   0.00000  Uiso   1.00
O2477  O     0.73656   0.85627   0.77820   0.00000  Uiso   1.00
O2478  O     0.92106   0.81944   0.76768   0.00000  Uiso   1.00
O2479  O     0.80467   0.73570   0.73607   0.00000  Uiso   1.00
O2480  O     0.87104   0.92193   0.71806   0.00000  Uiso   1.00
Zn2481 Zn    0.85910   0.80756   0.78278   0.00000  Uiso   1.00
Zn2482 Zn    0.80125   0.79044   0.72258   0.00000  Uiso   1.00
Zn2483 Zn    0.87833   0.86331   0.71188   0.00000  Uiso   1.00
Zn2484 Zn    0.79465   0.87202   0.78277   0.00000  Uiso   1.00
loop_
_geom_bond_atom_site_label_1
_geom_bond_atom_site_label_2
_geom_bond_distance
_geom_bond_site_symmetry_2
_ccdc_geom_bond_type
C1     C11     1.436   .     S
C1     O129    1.266   .     A
C1     O131    1.261   .     A
C2     C49     1.406   .     A
C2     C3      1.390   .     A
C2     H86     1.079   .     S
C3     O123    1.384   .     S
C3     C1247   1.416   .     S
C4     O132    1.285   .     A
C4     O130    1.285   .     A
C4     C10     1.460   .     S
C5     C7      1.425   .     A
C5     C6      1.431   .     A
C5     C1245   1.416   1_554 S
C6     C50     1.427   .     A
C6     C9      1.423   .     A
C7     C8      1.395   .     A
C7     C26     1.481   .     S
C8     C20     1.390   .     A
C8     H64     1.085   .     S
C9     C20     1.394   .     A
C9     O122    1.385   .     S
C10    C149    1.339   .     S
C10    O255    1.388   .     S
C11    C286    1.339   1_455 S
C11    H329    1.086   1_455 S
C12    C21     1.409   .     A
C12    C44     1.483   .     S
C12    C19     1.420   .     A
C13    C16     1.461   .     S
C13    C428    1.353   .     S
C13    O532    1.395   .     S
C14    C15     1.426   .     S
C14    C841    1.353   1_545 S
C14    C861    1.484   1_545 S
C15    O120    1.272   .     A
C15    O133    1.272   .     A
C16    O134    1.270   .     A
C16    O128    1.260   .     A
C17    O110    1.270   .     A
C17    C20     1.454   .     S
C17    O112    1.277   .     A
C18    C19     1.487   .     S
C18    O113    1.293   .     A
C18    O111    1.279   .     A
C19    C23     1.406   .     A
C21    C45     1.413   .     A
C21    O124    1.386   .     S
C22    H97     1.115   .     S
C22    O114    1.413   .     S
C22    C24     1.527   .     S
C22    H105    1.114   .     S
C23    C34     1.417   .     A
C23    O127    1.388   .     S
C24    H107    1.111   .     S
C24    H106    1.112   .     S
C24    C439    1.528   .     S
C25    H54     1.110   .     S
C25    H55     1.111   .     S
C25    H108    1.111   .     S
C25    C852    1.528   1_545 S
C26    O115    1.223   .     D
C26    O116    1.398   .     S
C27    O117    1.412   .     S
C27    H57     1.115   .     S
C27    H58     1.114   .     S
C27    C28     1.530   .     S
C28    H60     1.112   .     S
C28    H59     1.112   .     S
C28    C29     1.526   .     S
C29    H63     1.109   .     S
C29    H61     1.110   .     S
C29    H62     1.109   .     S
C30    C31     1.530   .     S
C30    O118    1.420   .     S
C30    H893    1.111   1_545 S
C30    H894    1.114   1_545 S
C31    H67     1.111   .     S
C31    H68     1.111   .     S
C31    C32     1.527   .     S
C32    H70     1.110   .     S
C32    H69     1.111   .     S
C32    H209    1.110   .     S
C33    O121    1.398   .     S
C33    C428    1.484   .     S
C33    O533    1.223   .     S
C34    C45     1.417   .     A
C34    C49     1.424   .     A
C35    H74     1.116   .     S
C35    C36     1.528   .     S
C35    H73     1.110   .     S
C35    O122    1.411   .     S
C36    C37     1.526   .     S
C36    H77     1.111   .     S
C36    H76     1.110   .     S
C37    H79     1.110   .     S
C37    H80     1.110   .     S
C37    H78     1.111   .     S
C38    O123    1.417   .     S
C38    H82     1.117   .     S
C38    C39     1.532   .     S
C38    H81     1.111   .     S
C39    H84     1.110   .     S
C39    H83     1.112   .     S
C39    C178    1.526   .     S
C40    H87     1.111   .     S
C40    H85     1.111   .     S
C40    H88     1.111   .     S
C40    C315    1.526   1_455 S
C41    H90     1.119   .     S
C41    O124    1.417   .     S
C41    C318    1.527   1_455 S
C41    H1331   1.112   .     S
C42    C43     1.521   .     S
C42    H92     1.111   .     S
C42    C179    1.527   .     S
C42    H1333   1.112   .     S
C43    H94     1.109   .     S
C43    H93     1.110   .     S
C43    H1337   1.109   .     S
C44    O126    1.398   .     S
C44    O125    1.223   .     D
C45    C1294   1.410   .     S
C46    H99     1.116   .     S
C46    C47     1.533   .     S
C46    H98     1.110   .     S
C46    O127    1.418   .     S
C47    H101    1.110   .     S
C47    C48     1.527   .     S
C47    H100    1.112   .     S
C48    H104    1.110   .     S
C48    H103    1.111   .     S
C48    H102    1.111   .     S
C49    C1292   1.416   .     S
C50    C51     1.409   .     A
C50    C1291   1.416   1_554 S
C51    H75     1.077   .     S
C51    C52     1.391   .     A
C52    O114    1.383   .     S
C52    C1287   1.410   1_554 S
H53    C149    1.086   .     S
H56    O1772   1.014   .     S
H65    C444    1.111   .     S
H66    C444    1.114   .     S
H71    C308    1.110   1_455 S
H72    O121    1.014   .     S
H89    C1283   1.112   1_554 S
H91    C1284   1.112   1_554 S
H95    C1285   1.109   1_554 S
H96    O126    1.013   .     S
O109   Zn135   1.970   .     S
O109   Zn137   1.936   .     S
O109   Zn136   1.935   .     S
O109   Zn138   1.917   .     S
O110   Zn136   1.924   .     S
O111   Zn138   1.938   .     S
O112   Zn137   1.923   .     S
O113   Zn135   1.911   .     S
O116   H2126   1.014   1_544 S
O117   C286    1.388   1_455 S
O118   C841    1.395   1_545 S
O119   C861    1.223   1_545 S
O120   Zn135   1.931   .     S
O128   Zn138   1.942   .     S
O129   Zn136   1.918   .     S
O130   Zn137   1.934   .     S
O131   Zn138   1.927   .     S
O132   Zn135   1.917   .     S
O133   Zn136   1.948   .     S
O134   Zn137   1.933   .     S
C139   C149    1.436   .     S
C139   O267    1.266   .     A
C139   O269    1.261   .     A
C140   C187    1.406   .     A
C140   C141    1.390   .     A
C140   H224    1.079   .     S
C141   O261    1.384   .     S
C141   C1385   1.416   .     S
C142   O270    1.285   .     A
C142   O268    1.285   .     A
C142   C148    1.460   .     S
C143   C145    1.425   .     A
C143   C144    1.431   .     A
C143   C1383   1.416   1_554 S
C144   C188    1.427   .     A
C144   C147    1.423   .     A
C145   C146    1.395   .     A
C145   C164    1.481   .     S
C146   C158    1.390   .     A
C146   H202    1.085   .     S
C147   C158    1.394   .     A
C147   O260    1.385   .     S
C148   C287    1.339   .     S
C148   O393    1.388   .     S
C150   C159    1.409   .     A
C150   C182    1.483   .     S
C150   C157    1.420   .     A
C151   C154    1.461   .     S
C151   C566    1.353   .     S
C151   O670    1.395   .     S
C152   C153    1.426   .     S
C152   C979    1.353   1_545 S
C152   C999    1.484   1_545 S
C153   O258    1.272   .     A
C153   O271    1.272   .     A
C154   O272    1.270   .     A
C154   O266    1.260   .     A
C155   O248    1.270   .     A
C155   C158    1.454   .     S
C155   O250    1.277   .     A
C156   C157    1.487   .     S
C156   O251    1.293   .     A
C156   O249    1.279   .     A
C157   C161    1.406   .     A
C159   C183    1.413   .     A
C159   O262    1.386   .     S
C160   H235    1.115   .     S
C160   O252    1.413   .     S
C160   C162    1.527   .     S
C160   H243    1.114   .     S
C161   C172    1.417   .     A
C161   O265    1.388   .     S
C162   H245    1.111   .     S
C162   H244    1.112   .     S
C162   C577    1.528   .     S
C163   H192    1.110   .     S
C163   H193    1.111   .     S
C163   H246    1.111   .     S
C163   C990    1.528   1_545 S
C164   O253    1.223   .     D
C164   O254    1.398   .     S
C165   O255    1.412   .     S
C165   H195    1.115   .     S
C165   H196    1.114   .     S
C165   C166    1.530   .     S
C166   H198    1.112   .     S
C166   H197    1.112   .     S
C166   C167    1.526   .     S
C167   H201    1.109   .     S
C167   H199    1.110   .     S
C167   H200    1.109   .     S
C168   C169    1.530   .     S
C168   O256    1.420   .     S
C168   H1031   1.111   1_545 S
C168   H1032   1.114   1_545 S
C169   H205    1.111   .     S
C169   H206    1.111   .     S
C169   C170    1.527   .     S
C170   H208    1.110   .     S
C170   H207    1.111   .     S
C170   H347    1.110   .     S
C171   O259    1.398   .     S
C171   C566    1.484   .     S
C171   O671    1.223   .     S
C172   C183    1.417   .     A
C172   C187    1.424   .     A
C173   H212    1.116   .     S
C173   C174    1.528   .     S
C173   H211    1.110   .     S
C173   O260    1.411   .     S
C174   C175    1.526   .     S
C174   H215    1.111   .     S
C174   H214    1.110   .     S
C175   H217    1.110   .     S
C175   H218    1.110   .     S
C175   H216    1.111   .     S
C176   O261    1.417   .     S
C176   H220    1.117   .     S
C176   C177    1.532   .     S
C176   H219    1.111   .     S
C177   H222    1.110   .     S
C177   H221    1.112   .     S
C177   C316    1.526   .     S
C178   H225    1.111   .     S
C178   H223    1.111   .     S
C178   H226    1.111   .     S
C179   H228    1.119   .     S
C179   O262    1.417   .     S
C179   H1469   1.112   .     S
C180   C181    1.521   .     S
C180   H230    1.111   .     S
C180   C317    1.527   .     S
C180   H1471   1.112   .     S
C181   H232    1.109   .     S
C181   H231    1.110   .     S
C181   H1475   1.109   .     S
C182   O264    1.398   .     S
C182   O263    1.223   .     D
C183   C1432   1.410   .     S
C184   H237    1.116   .     S
C184   C185    1.533   .     S
C184   H236    1.110   .     S
C184   O265    1.418   .     S
C185   H239    1.110   .     S
C185   C186    1.527   .     S
C185   H238    1.112   .     S
C186   H242    1.110   .     S
C186   H241    1.111   .     S
C186   H240    1.111   .     S
C187   C1430   1.416   .     S
C188   C189    1.409   .     A
C188   C1429   1.416   1_554 S
C189   H213    1.077   .     S
C189   C190    1.391   .     A
C190   O252    1.383   .     S
C190   C1425   1.410   1_554 S
H191   C287    1.086   .     S
H194   O1910   1.014   .     S
H203   C582    1.111   .     S
H204   C582    1.114   .     S
H210   O259    1.014   .     S
H227   C1421   1.112   1_554 S
H229   C1422   1.112   1_554 S
H233   C1423   1.109   1_554 S
H234   O264    1.013   .     S
O247   Zn273   1.970   .     S
O247   Zn275   1.936   .     S
O247   Zn274   1.935   .     S
O247   Zn276   1.917   .     S
O248   Zn274   1.924   .     S
O249   Zn276   1.938   .     S
O250   Zn275   1.923   .     S
O251   Zn273   1.911   .     S
O254   H2264   1.014   1_544 S
O256   C979    1.395   1_545 S
O257   C999    1.223   1_545 S
O258   Zn273   1.931   .     S
O266   Zn276   1.942   .     S
O267   Zn274   1.918   .     S
O268   Zn275   1.934   .     S
O269   Zn276   1.927   .     S
O270   Zn273   1.917   .     S
O271   Zn274   1.948   .     S
O272   Zn275   1.933   .     S
C277   C287    1.436   .     S
C277   O405    1.266   .     A
C277   O407    1.261   .     A
C278   C325    1.406   .     A
C278   C279    1.390   .     A
C278   H362    1.079   .     S
C279   O399    1.384   .     S
C279   C1523   1.416   .     S
C280   O408    1.285   .     A
C280   O406    1.285   .     A
C280   C286    1.460   .     S
C281   C283    1.425   .     A
C281   C282    1.431   .     A
C281   C1521   1.416   1_554 S
C282   C326    1.427   .     A
C282   C285    1.423   .     A
C283   C284    1.395   .     A
C283   C302    1.481   .     S
C284   C296    1.390   .     A
C284   H340    1.085   .     S
C285   C296    1.394   .     A
C285   O398    1.385   .     S
C286   C11     1.339   1_655 S
C286   O117    1.388   1_655 S
C288   C297    1.409   .     A
C288   C320    1.483   .     S
C288   C295    1.420   .     A
C289   C292    1.461   .     S
C289   C704    1.353   .     S
C289   O808    1.395   .     S
C290   C291    1.426   .     S
C290   C1117   1.353   1_545 S
C290   C1137   1.484   1_545 S
C291   O396    1.272   .     A
C291   O409    1.272   .     A
C292   O410    1.270   .     A
C292   O404    1.260   .     A
C293   O386    1.270   .     A
C293   C296    1.454   .     S
C293   O388    1.277   .     A
C294   C295    1.487   .     S
C294   O389    1.293   .     A
C294   O387    1.279   .     A
C295   C299    1.406   .     A
C297   C321    1.413   .     A
C297   O400    1.386   .     S
C298   H373    1.115   .     S
C298   O390    1.413   .     S
C298   C300    1.527   .     S
C298   H381    1.114   .     S
C299   C310    1.417   .     A
C299   O403    1.388   .     S
C300   H383    1.111   .     S
C300   H382    1.112   .     S
C300   C715    1.528   .     S
C301   H330    1.110   .     S
C301   H331    1.111   .     S
C301   H384    1.111   .     S
C301   C1128   1.528   1_545 S
C302   O391    1.223   .     D
C302   O392    1.398   .     S
C303   O393    1.412   .     S
C303   H333    1.115   .     S
C303   H334    1.114   .     S
C303   C304    1.530   .     S
C304   H336    1.112   .     S
C304   H335    1.112   .     S
C304   C305    1.526   .     S
C305   H339    1.109   .     S
C305   H337    1.110   .     S
C305   H338    1.109   .     S
C306   C307    1.530   .     S
C306   O394    1.420   .     S
C306   H1169   1.111   1_545 S
C306   H1170   1.114   1_545 S
C307   H343    1.111   .     S
C307   H344    1.111   .     S
C307   C308    1.527   .     S
C308   H346    1.110   .     S
C308   H345    1.111   .     S
C308   H71     1.110   1_655 S
C309   O397    1.398   .     S
C309   C704    1.484   .     S
C309   O809    1.223   .     S
C310   C321    1.417   .     A
C310   C325    1.424   .     A
C311   H350    1.116   .     S
C311   C312    1.528   .     S
C311   H349    1.110   .     S
C311   O398    1.411   .     S
C312   C313    1.526   .     S
C312   H353    1.111   .     S
C312   H352    1.110   .     S
C313   H355    1.110   .     S
C313   H356    1.110   .     S
C313   H354    1.111   .     S
C314   O399    1.417   .     S
C314   H358    1.117   .     S
C314   C315    1.532   .     S
C314   H357    1.111   .     S
C315   H360    1.110   .     S
C315   H359    1.112   .     S
C315   C40     1.526   1_655 S
C316   H363    1.111   .     S
C316   H361    1.111   .     S
C316   H364    1.111   .     S
C317   H366    1.119   .     S
C317   O400    1.417   .     S
C317   H1607   1.112   .     S
C318   C319    1.521   .     S
C318   H368    1.111   .     S
C318   C41     1.527   1_655 S
C318   H1609   1.112   .     S
C319   H370    1.109   .     S
C319   H369    1.110   .     S
C319   H1613   1.109   .     S
C320   O402    1.398   .     S
C320   O401    1.223   .     D
C321   C1570   1.410   .     S
C322   H375    1.116   .     S
C322   C323    1.533   .     S
C322   H374    1.110   .     S
C322   O403    1.418   .     S
C323   H377    1.110   .     S
C323   C324    1.527   .     S
C323   H376    1.112   .     S
C324   H380    1.110   .     S
C324   H379    1.111   .     S
C324   H378    1.111   .     S
C325   C1568   1.416   .     S
C326   C327    1.409   .     A
C326   C1567   1.416   1_554 S
C327   H351    1.077   .     S
C327   C328    1.391   .     A
C328   O390    1.383   .     S
C328   C1563   1.410   1_554 S
H329   C11     1.086   1_655 S
H332   O2048   1.014   .     S
H341   C720    1.111   .     S
H342   C720    1.114   .     S
H348   O397    1.014   .     S
H365   C1559   1.112   1_554 S
H367   C1560   1.112   1_554 S
H371   C1561   1.109   1_554 S
H372   O402    1.013   .     S
O385   Zn411   1.970   .     S
O385   Zn413   1.936   .     S
O385   Zn412   1.935   .     S
O385   Zn414   1.917   .     S
O386   Zn412   1.924   .     S
O387   Zn414   1.938   .     S
O388   Zn413   1.923   .     S
O389   Zn411   1.911   .     S
O392   H2402   1.014   1_544 S
O394   C1117   1.395   1_545 S
O395   C1137   1.223   1_545 S
O396   Zn411   1.931   .     S
O404   Zn414   1.942   .     S
O405   Zn412   1.918   .     S
O406   Zn413   1.934   .     S
O407   Zn414   1.927   .     S
O408   Zn411   1.917   .     S
O409   Zn412   1.948   .     S
O410   Zn413   1.933   .     S
C415   C425    1.436   .     S
C415   O543    1.266   .     A
C415   O545    1.261   .     A
C416   C463    1.406   .     A
C416   C417    1.390   .     A
C416   H500    1.079   .     S
C417   O537    1.384   .     S
C417   C1661   1.416   .     S
C418   O546    1.285   .     A
C418   O544    1.285   .     A
C418   C424    1.460   .     S
C419   C421    1.425   .     A
C419   C420    1.431   .     A
C419   C1659   1.416   1_554 S
C420   C464    1.427   .     A
C420   C423    1.423   .     A
C421   C422    1.395   .     A
C421   C440    1.481   .     S
C422   C434    1.390   .     A
C422   H478    1.085   .     S
C423   C434    1.394   .     A
C423   O536    1.385   .     S
C424   C563    1.339   .     S
C424   O669    1.388   .     S
C425   C700    1.339   1_455 S
C425   H743    1.086   1_455 S
C426   C435    1.409   .     A
C426   C458    1.483   .     S
C426   C433    1.420   .     A
C427   C430    1.461   .     S
C427   C842    1.353   .     S
C427   O946    1.395   .     S
C428   C429    1.426   .     S
C429   O534    1.272   .     A
C429   O547    1.272   .     A
C430   O548    1.270   .     A
C430   O542    1.260   .     A
C431   O524    1.270   .     A
C431   C434    1.454   .     S
C431   O526    1.277   .     A
C432   C433    1.487   .     S
C432   O527    1.293   .     A
C432   O525    1.279   .     A
C433   C437    1.406   .     A
C435   C459    1.413   .     A
C435   O538    1.386   .     S
C436   H511    1.115   .     S
C436   O528    1.413   .     S
C436   C438    1.527   .     S
C436   H519    1.114   .     S
C437   C448    1.417   .     A
C437   O541    1.388   .     S
C438   H521    1.111   .     S
C438   H520    1.112   .     S
C438   C853    1.528   .     S
C439   H468    1.110   .     S
C439   H469    1.111   .     S
C439   H522    1.111   .     S
C440   O529    1.223   .     D
C440   O530    1.398   .     S
C441   O531    1.412   .     S
C441   H471    1.115   .     S
C441   H472    1.114   .     S
C441   C442    1.530   .     S
C442   H474    1.112   .     S
C442   H473    1.112   .     S
C442   C443    1.526   .     S
C443   H477    1.109   .     S
C443   H475    1.110   .     S
C443   H476    1.109   .     S
C444   C445    1.530   .     S
C444   O532    1.420   .     S
C445   H481    1.111   .     S
C445   H482    1.111   .     S
C445   C446    1.527   .     S
C446   H484    1.110   .     S
C446   H483    1.111   .     S
C446   H623    1.110   .     S
C447   O535    1.398   .     S
C447   C842    1.484   .     S
C447   O947    1.223   .     S
C448   C459    1.417   .     A
C448   C463    1.424   .     A
C449   H488    1.116   .     S
C449   C450    1.528   .     S
C449   H487    1.110   .     S
C449   O536    1.411   .     S
C450   C451    1.526   .     S
C450   H491    1.111   .     S
C450   H490    1.110   .     S
C451   H493    1.110   .     S
C451   H494    1.110   .     S
C451   H492    1.111   .     S
C452   O537    1.417   .     S
C452   H496    1.117   .     S
C452   C453    1.532   .     S
C452   H495    1.111   .     S
C453   H498    1.110   .     S
C453   H497    1.112   .     S
C453   C592    1.526   .     S
C454   H501    1.111   .     S
C454   H499    1.111   .     S
C454   H502    1.111   .     S
C454   C729    1.526   1_455 S
C455   H504    1.119   .     S
C455   O538    1.417   .     S
C455   C732    1.527   1_455 S
C455   H1745   1.112   .     S
C456   C457    1.521   .     S
C456   H506    1.111   .     S
C456   C593    1.527   .     S
C456   H1747   1.112   .     S
C457   H508    1.109   .     S
C457   H507    1.110   .     S
C457   H1751   1.109   .     S
C458   O540    1.398   .     S
C458   O539    1.223   .     D
C459   C1708   1.410   .     S
C460   H513    1.116   .     S
C460   C461    1.533   .     S
C460   H512    1.110   .     S
C460   O541    1.418   .     S
C461   H515    1.110   .     S
C461   C462    1.527   .     S
C461   H514    1.112   .     S
C462   H518    1.110   .     S
C462   H517    1.111   .     S
C462   H516    1.111   .     S
C463   C1706   1.416   .     S
C464   C465    1.409   .     A
C464   C1705   1.416   1_554 S
C465   H489    1.077   .     S
C465   C466    1.391   .     A
C466   O528    1.383   .     S
C466   C1701   1.410   1_554 S
H467   C563    1.086   .     S
H470   O2186   1.014   .     S
H479   C858    1.111   .     S
H480   C858    1.114   .     S
H485   C722    1.110   1_455 S
H486   O535    1.014   .     S
H503   C1697   1.112   1_554 S
H505   C1698   1.112   1_554 S
H509   C1699   1.109   1_554 S
H510   O540    1.013   .     S
O523   Zn549   1.970   .     S
O523   Zn551   1.936   .     S
O523   Zn550   1.935   .     S
O523   Zn552   1.917   .     S
O524   Zn550   1.924   .     S
O525   Zn552   1.938   .     S
O526   Zn551   1.923   .     S
O527   Zn549   1.911   .     S
O530   H1298   1.014   1_554 S
O531   C700    1.388   1_455 S
O534   Zn549   1.931   .     S
O542   Zn552   1.942   .     S
O543   Zn550   1.918   .     S
O544   Zn551   1.934   .     S
O545   Zn552   1.927   .     S
O546   Zn549   1.917   .     S
O547   Zn550   1.948   .     S
O548   Zn551   1.933   .     S
C553   C563    1.436   .     S
C553   O681    1.266   .     A
C553   O683    1.261   .     A
C554   C601    1.406   .     A
C554   C555    1.390   .     A
C554   H638    1.079   .     S
C555   O675    1.384   .     S
C555   C1799   1.416   .     S
C556   O684    1.285   .     A
C556   O682    1.285   .     A
C556   C562    1.460   .     S
C557   C559    1.425   .     A
C557   C558    1.431   .     A
C557   C1797   1.416   1_554 S
C558   C602    1.427   .     A
C558   C561    1.423   .     A
C559   C560    1.395   .     A
C559   C578    1.481   .     S
C560   C572    1.390   .     A
C560   H616    1.085   .     S
C561   C572    1.394   .     A
C561   O674    1.385   .     S
C562   C701    1.339   .     S
C562   O807    1.388   .     S
C564   C573    1.409   .     A
C564   C596    1.483   .     S
C564   C571    1.420   .     A
C565   C568    1.461   .     S
C565   C980    1.353   .     S
C565   O1084   1.395   .     S
C566   C567    1.426   .     S
C567   O672    1.272   .     A
C567   O685    1.272   .     A
C568   O686    1.270   .     A
C568   O680    1.260   .     A
C569   O662    1.270   .     A
C569   C572    1.454   .     S
C569   O664    1.277   .     A
C570   C571    1.487   .     S
C570   O665    1.293   .     A
C570   O663    1.279   .     A
C571   C575    1.406   .     A
C573   C597    1.413   .     A
C573   O676    1.386   .     S
C574   H649    1.115   .     S
C574   O666    1.413   .     S
C574   C576    1.527   .     S
C574   H657    1.114   .     S
C575   C586    1.417   .     A
C575   O679    1.388   .     S
C576   H659    1.111   .     S
C576   H658    1.112   .     S
C576   C991    1.528   .     S
C577   H606    1.110   .     S
C577   H607    1.111   .     S
C577   H660    1.111   .     S
C578   O667    1.223   .     D
C578   O668    1.398   .     S
C579   O669    1.412   .     S
C579   H609    1.115   .     S
C579   H610    1.114   .     S
C579   C580    1.530   .     S
C580   H612    1.112   .     S
C580   H611    1.112   .     S
C580   C581    1.526   .     S
C581   H615    1.109   .     S
C581   H613    1.110   .     S
C581   H614    1.109   .     S
C582   C583    1.530   .     S
C582   O670    1.420   .     S
C583   H619    1.111   .     S
C583   H620    1.111   .     S
C583   C584    1.527   .     S
C584   H622    1.110   .     S
C584   H621    1.111   .     S
C584   H761    1.110   .     S
C585   O673    1.398   .     S
C585   C980    1.484   .     S
C585   O1085   1.223   .     S
C586   C597    1.417   .     A
C586   C601    1.424   .     A
C587   H626    1.116   .     S
C587   C588    1.528   .     S
C587   H625    1.110   .     S
C587   O674    1.411   .     S
C588   C589    1.526   .     S
C588   H629    1.111   .     S
C588   H628    1.110   .     S
C589   H631    1.110   .     S
C589   H632    1.110   .     S
C589   H630    1.111   .     S
C590   O675    1.417   .     S
C590   H634    1.117   .     S
C590   C591    1.532   .     S
C590   H633    1.111   .     S
C591   H636    1.110   .     S
C591   H635    1.112   .     S
C591   C730    1.526   .     S
C592   H639    1.111   .     S
C592   H637    1.111   .     S
C592   H640    1.111   .     S
C593   H642    1.119   .     S
C593   O676    1.417   .     S
C593   H1883   1.112   .     S
C594   C595    1.521   .     S
C594   H644    1.111   .     S
C594   C731    1.527   .     S
C594   H1885   1.112   .     S
C595   H646    1.109   .     S
C595   H645    1.110   .     S
C595   H1889   1.109   .     S
C596   O678    1.398   .     S
C596   O677    1.223   .     D
C597   C1846   1.410   .     S
C598   H651    1.116   .     S
C598   C599    1.533   .     S
C598   H650    1.110   .     S
C598   O679    1.418   .     S
C599   H653    1.110   .     S
C599   C600    1.527   .     S
C599   H652    1.112   .     S
C600   H656    1.110   .     S
C600   H655    1.111   .     S
C600   H654    1.111   .     S
C601   C1844   1.416   .     S
C602   C603    1.409   .     A
C602   C1843   1.416   1_554 S
C603   H627    1.077   .     S
C603   C604    1.391   .     A
C604   O666    1.383   .     S
C604   C1839   1.410   1_554 S
H605   C701    1.086   .     S
H608   O2324   1.014   .     S
H617   C996    1.111   .     S
H618   C996    1.114   .     S
H624   O673    1.014   .     S
H641   C1835   1.112   1_554 S
H643   C1836   1.112   1_554 S
H647   C1837   1.109   1_554 S
H648   O678    1.013   .     S
O661   Zn687   1.970   .     S
O661   Zn689   1.936   .     S
O661   Zn688   1.935   .     S
O661   Zn690   1.917   .     S
O662   Zn688   1.924   .     S
O663   Zn690   1.938   .     S
O664   Zn689   1.923   .     S
O665   Zn687   1.911   .     S
O668   H1436   1.014   1_554 S
O672   Zn687   1.931   .     S
O680   Zn690   1.942   .     S
O681   Zn688   1.918   .     S
O682   Zn689   1.934   .     S
O683   Zn690   1.927   .     S
O684   Zn687   1.917   .     S
O685   Zn688   1.948   .     S
O686   Zn689   1.933   .     S
C691   C701    1.436   .     S
C691   O819    1.266   .     A
C691   O821    1.261   .     A
C692   C739    1.406   .     A
C692   C693    1.390   .     A
C692   H776    1.079   .     S
C693   O813    1.384   .     S
C693   C1937   1.416   .     S
C694   O822    1.285   .     A
C694   O820    1.285   .     A
C694   C700    1.460   .     S
C695   C697    1.425   .     A
C695   C696    1.431   .     A
C695   C1935   1.416   1_554 S
C696   C740    1.427   .     A
C696   C699    1.423   .     A
C697   C698    1.395   .     A
C697   C716    1.481   .     S
C698   C710    1.390   .     A
C698   H754    1.085   .     S
C699   C710    1.394   .     A
C699   O812    1.385   .     S
C700   C425    1.339   1_655 S
C700   O531    1.388   1_655 S
C702   C711    1.409   .     A
C702   C734    1.483   .     S
C702   C709    1.420   .     A
C703   C706    1.461   .     S
C703   C1118   1.353   .     S
C703   O1222   1.395   .     S
C704   C705    1.426   .     S
C705   O810    1.272   .     A
C705   O823    1.272   .     A
C706   O824    1.270   .     A
C706   O818    1.260   .     A
C707   O800    1.270   .     A
C707   C710    1.454   .     S
C707   O802    1.277   .     A
C708   C709    1.487   .     S
C708   O803    1.293   .     A
C708   O801    1.279   .     A
C709   C713    1.406   .     A
C711   C735    1.413   .     A
C711   O814    1.386   .     S
C712   H787    1.115   .     S
C712   O804    1.413   .     S
C712   C714    1.527   .     S
C712   H795    1.114   .     S
C713   C724    1.417   .     A
C713   O817    1.388   .     S
C714   H797    1.111   .     S
C714   H796    1.112   .     S
C714   C1129   1.528   .     S
C715   H744    1.110   .     S
C715   H745    1.111   .     S
C715   H798    1.111   .     S
C716   O805    1.223   .     D
C716   O806    1.398   .     S
C717   O807    1.412   .     S
C717   H747    1.115   .     S
C717   H748    1.114   .     S
C717   C718    1.530   .     S
C718   H750    1.112   .     S
C718   H749    1.112   .     S
C718   C719    1.526   .     S
C719   H753    1.109   .     S
C719   H751    1.110   .     S
C719   H752    1.109   .     S
C720   C721    1.530   .     S
C720   O808    1.420   .     S
C721   H757    1.111   .     S
C721   H758    1.111   .     S
C721   C722    1.527   .     S
C722   H760    1.110   .     S
C722   H759    1.111   .     S
C722   H485    1.110   1_655 S
C723   O811    1.398   .     S
C723   C1118   1.484   .     S
C723   O1223   1.223   .     S
C724   C735    1.417   .     A
C724   C739    1.424   .     A
C725   H764    1.116   .     S
C725   C726    1.528   .     S
C725   H763    1.110   .     S
C725   O812    1.411   .     S
C726   C727    1.526   .     S
C726   H767    1.111   .     S
C726   H766    1.110   .     S
C727   H769    1.110   .     S
C727   H770    1.110   .     S
C727   H768    1.111   .     S
C728   O813    1.417   .     S
C728   H772    1.117   .     S
C728   C729    1.532   .     S
C728   H771    1.111   .     S
C729   H774    1.110   .     S
C729   H773    1.112   .     S
C729   C454    1.526   1_655 S
C730   H777    1.111   .     S
C730   H775    1.111   .     S
C730   H778    1.111   .     S
C731   H780    1.119   .     S
C731   O814    1.417   .     S
C731   H2021   1.112   .     S
C732   C733    1.521   .     S
C732   H782    1.111   .     S
C732   C455    1.527   1_655 S
C732   H2023   1.112   .     S
C733   H784    1.109   .     S
C733   H783    1.110   .     S
C733   H2027   1.109   .     S
C734   O816    1.398   .     S
C734   O815    1.223   .     D
C735   C1984   1.410   .     S
C736   H789    1.116   .     S
C736   C737    1.533   .     S
C736   H788    1.110   .     S
C736   O817    1.418   .     S
C737   H791    1.110   .     S
C737   C738    1.527   .     S
C737   H790    1.112   .     S
C738   H794    1.110   .     S
C738   H793    1.111   .     S
C738   H792    1.111   .     S
C739   C1982   1.416   .     S
C740   C741    1.409   .     A
C740   C1981   1.416   1_554 S
C741   H765    1.077   .     S
C741   C742    1.391   .     A
C742   O804    1.383   .     S
C742   C1977   1.410   1_554 S
H743   C425    1.086   1_655 S
H746   O2462   1.014   .     S
H755   C1134   1.111   .     S
H756   C1134   1.114   .     S
H762   O811    1.014   .     S
H779   C1973   1.112   1_554 S
H781   C1974   1.112   1_554 S
H785   C1975   1.109   1_554 S
H786   O816    1.013   .     S
O799   Zn825   1.970   .     S
O799   Zn827   1.936   .     S
O799   Zn826   1.935   .     S
O799   Zn828   1.917   .     S
O800   Zn826   1.924   .     S
O801   Zn828   1.938   .     S
O802   Zn827   1.923   .     S
O803   Zn825   1.911   .     S
O806   H1574   1.014   1_554 S
O810   Zn825   1.931   .     S
O818   Zn828   1.942   .     S
O819   Zn826   1.918   .     S
O820   Zn827   1.934   .     S
O821   Zn828   1.927   .     S
O822   Zn825   1.917   .     S
O823   Zn826   1.948   .     S
O824   Zn827   1.933   .     S
C829   C839    1.436   .     S
C829   O957    1.266   .     A
C829   O959    1.261   .     A
C830   C877    1.406   .     A
C830   C831    1.390   .     A
C830   H914    1.079   .     S
C831   O951    1.384   .     S
C831   C2075   1.416   .     S
C832   O960    1.285   .     A
C832   O958    1.285   .     A
C832   C838    1.460   .     S
C833   C835    1.425   .     A
C833   C834    1.431   .     A
C833   C2073   1.416   1_554 S
C834   C878    1.427   .     A
C834   C837    1.423   .     A
C835   C836    1.395   .     A
C835   C854    1.481   .     S
C836   C848    1.390   .     A
C836   H892    1.085   .     S
C837   C848    1.394   .     A
C837   O950    1.385   .     S
C838   C977    1.339   .     S
C838   O1083   1.388   .     S
C839   C1114   1.339   1_455 S
C839   H1157   1.086   1_455 S
C840   C849    1.409   .     A
C840   C872    1.483   .     S
C840   C847    1.420   .     A
C841   C844    1.461   .     S
C841   C14     1.353   1_565 S
C841   O118    1.395   1_565 S
C842   C843    1.426   .     S
C843   O948    1.272   .     A
C843   O961    1.272   .     A
C844   O962    1.270   .     A
C844   O956    1.260   .     A
C845   O938    1.270   .     A
C845   C848    1.454   .     S
C845   O940    1.277   .     A
C846   C847    1.487   .     S
C846   O941    1.293   .     A
C846   O939    1.279   .     A
C847   C851    1.406   .     A
C849   C873    1.413   .     A
C849   O952    1.386   .     S
C850   H925    1.115   .     S
C850   O942    1.413   .     S
C850   C852    1.527   .     S
C850   H933    1.114   .     S
C851   C862    1.417   .     A
C851   O955    1.388   .     S
C852   H935    1.111   .     S
C852   H934    1.112   .     S
C852   C25     1.528   1_565 S
C853   H882    1.110   .     S
C853   H883    1.111   .     S
C853   H936    1.111   .     S
C854   O943    1.223   .     D
C854   O944    1.398   .     S
C855   O945    1.412   .     S
C855   H885    1.115   .     S
C855   H886    1.114   .     S
C855   C856    1.530   .     S
C856   H888    1.112   .     S
C856   H887    1.112   .     S
C856   C857    1.526   .     S
C857   H891    1.109   .     S
C857   H889    1.110   .     S
C857   H890    1.109   .     S
C858   C859    1.530   .     S
C858   O946    1.420   .     S
C859   H895    1.111   .     S
C859   H896    1.111   .     S
C859   C860    1.527   .     S
C860   H898    1.110   .     S
C860   H897    1.111   .     S
C860   H1037   1.110   .     S
C861   O949    1.398   .     S
C861   C14     1.484   1_565 S
C861   O119    1.223   1_565 S
C862   C873    1.417   .     A
C862   C877    1.424   .     A
C863   H902    1.116   .     S
C863   C864    1.528   .     S
C863   H901    1.110   .     S
C863   O950    1.411   .     S
C864   C865    1.526   .     S
C864   H905    1.111   .     S
C864   H904    1.110   .     S
C865   H907    1.110   .     S
C865   H908    1.110   .     S
C865   H906    1.111   .     S
C866   O951    1.417   .     S
C866   H910    1.117   .     S
C866   C867    1.532   .     S
C866   H909    1.111   .     S
C867   H912    1.110   .     S
C867   H911    1.112   .     S
C867   C1006   1.526   .     S
C868   H915    1.111   .     S
C868   H913    1.111   .     S
C868   H916    1.111   .     S
C868   C1143   1.526   1_455 S
C869   H918    1.119   .     S
C869   O952    1.417   .     S
C869   C1146   1.527   1_455 S
C869   H2159   1.112   .     S
C870   C871    1.521   .     S
C870   H920    1.111   .     S
C870   C1007   1.527   .     S
C870   H2161   1.112   .     S
C871   H922    1.109   .     S
C871   H921    1.110   .     S
C871   H2165   1.109   .     S
C872   O954    1.398   .     S
C872   O953    1.223   .     D
C873   C2122   1.410   .     S
C874   H927    1.116   .     S
C874   C875    1.533   .     S
C874   H926    1.110   .     S
C874   O955    1.418   .     S
C875   H929    1.110   .     S
C875   C876    1.527   .     S
C875   H928    1.112   .     S
C876   H932    1.110   .     S
C876   H931    1.111   .     S
C876   H930    1.111   .     S
C877   C2120   1.416   .     S
C878   C879    1.409   .     A
C878   C2119   1.416   1_554 S
C879   H903    1.077   .     S
C879   C880    1.391   .     A
C880   O942    1.383   .     S
C880   C2115   1.410   1_554 S
H881   C977    1.086   .     S
H884   O1358   1.014   1_565 S
H893   C30     1.111   1_565 S
H894   C30     1.114   1_565 S
H899   C1136   1.110   1_455 S
H900   O949    1.014   .     S
H917   C2111   1.112   1_554 S
H919   C2112   1.112   1_554 S
H923   C2113   1.109   1_554 S
H924   O954    1.013   .     S
O937   Zn963   1.970   .     S
O937   Zn965   1.936   .     S
O937   Zn964   1.935   .     S
O937   Zn966   1.917   .     S
O938   Zn964   1.924   .     S
O939   Zn966   1.938   .     S
O940   Zn965   1.923   .     S
O941   Zn963   1.911   .     S
O944   H1712   1.014   1_554 S
O945   C1114   1.388   1_455 S
O948   Zn963   1.931   .     S
O956   Zn966   1.942   .     S
O957   Zn964   1.918   .     S
O958   Zn965   1.934   .     S
O959   Zn966   1.927   .     S
O960   Zn963   1.917   .     S
O961   Zn964   1.948   .     S
O962   Zn965   1.933   .     S
C967   C977    1.436   .     S
C967   O1095   1.266   .     A
C967   O1097   1.261   .     A
C968   C1015   1.406   .     A
C968   C969    1.390   .     A
C968   H1052   1.079   .     S
C969   O1089   1.384   .     S
C969   C2213   1.416   .     S
C970   O1098   1.285   .     A
C970   O1096   1.285   .     A
C970   C976    1.460   .     S
C971   C973    1.425   .     A
C971   C972    1.431   .     A
C971   C2211   1.416   1_554 S
C972   C1016   1.427   .     A
C972   C975    1.423   .     A
C973   C974    1.395   .     A
C973   C992    1.481   .     S
C974   C986    1.390   .     A
C974   H1030   1.085   .     S
C975   C986    1.394   .     A
C975   O1088   1.385   .     S
C976   C1115   1.339   .     S
C976   O1221   1.388   .     S
C978   C987    1.409   .     A
C978   C1010   1.483   .     S
C978   C985    1.420   .     A
C979   C982    1.461   .     S
C979   C152    1.353   1_565 S
C979   O256    1.395   1_565 S
C980   C981    1.426   .     S
C981   O1086   1.272   .     A
C981   O1099   1.272   .     A
C982   O1100   1.270   .     A
C982   O1094   1.260   .     A
C983   O1076   1.270   .     A
C983   C986    1.454   .     S
C983   O1078   1.277   .     A
C984   C985    1.487   .     S
C984   O1079   1.293   .     A
C984   O1077   1.279   .     A
C985   C989    1.406   .     A
C987   C1011   1.413   .     A
C987   O1090   1.386   .     S
C988   H1063   1.115   .     S
C988   O1080   1.413   .     S
C988   C990    1.527   .     S
C988   H1071   1.114   .     S
C989   C1000   1.417   .     A
C989   O1093   1.388   .     S
C990   H1073   1.111   .     S
C990   H1072   1.112   .     S
C990   C163    1.528   1_565 S
C991   H1020   1.110   .     S
C991   H1021   1.111   .     S
C991   H1074   1.111   .     S
C992   O1081   1.223   .     D
C992   O1082   1.398   .     S
C993   O1083   1.412   .     S
C993   H1023   1.115   .     S
C993   H1024   1.114   .     S
C993   C994    1.530   .     S
C994   H1026   1.112   .     S
C994   H1025   1.112   .     S
C994   C995    1.526   .     S
C995   H1029   1.109   .     S
C995   H1027   1.110   .     S
C995   H1028   1.109   .     S
C996   C997    1.530   .     S
C996   O1084   1.420   .     S
C997   H1033   1.111   .     S
C997   H1034   1.111   .     S
C997   C998    1.527   .     S
C998   H1036   1.110   .     S
C998   H1035   1.111   .     S
C998   H1175   1.110   .     S
C999   O1087   1.398   .     S
C999   C152    1.484   1_565 S
C999   O257    1.223   1_565 S
C1000  C1011   1.417   .     A
C1000  C1015   1.424   .     A
C1001  H1040   1.116   .     S
C1001  C1002   1.528   .     S
C1001  H1039   1.110   .     S
C1001  O1088   1.411   .     S
C1002  C1003   1.526   .     S
C1002  H1043   1.111   .     S
C1002  H1042   1.110   .     S
C1003  H1045   1.110   .     S
C1003  H1046   1.110   .     S
C1003  H1044   1.111   .     S
C1004  O1089   1.417   .     S
C1004  H1048   1.117   .     S
C1004  C1005   1.532   .     S
C1004  H1047   1.111   .     S
C1005  H1050   1.110   .     S
C1005  H1049   1.112   .     S
C1005  C1144   1.526   .     S
C1006  H1053   1.111   .     S
C1006  H1051   1.111   .     S
C1006  H1054   1.111   .     S
C1007  H1056   1.119   .     S
C1007  O1090   1.417   .     S
C1007  H2297   1.112   .     S
C1008  C1009   1.521   .     S
C1008  H1058   1.111   .     S
C1008  C1145   1.527   .     S
C1008  H2299   1.112   .     S
C1009  H1060   1.109   .     S
C1009  H1059   1.110   .     S
C1009  H2303   1.109   .     S
C1010  O1092   1.398   .     S
C1010  O1091   1.223   .     D
C1011  C2260   1.410   .     S
C1012  H1065   1.116   .     S
C1012  C1013   1.533   .     S
C1012  H1064   1.110   .     S
C1012  O1093   1.418   .     S
C1013  H1067   1.110   .     S
C1013  C1014   1.527   .     S
C1013  H1066   1.112   .     S
C1014  H1070   1.110   .     S
C1014  H1069   1.111   .     S
C1014  H1068   1.111   .     S
C1015  C2258   1.416   .     S
C1016  C1017   1.409   .     A
C1016  C2257   1.416   1_554 S
C1017  H1041   1.077   .     S
C1017  C1018   1.391   .     A
C1018  O1080   1.383   .     S
C1018  C2253   1.410   1_554 S
H1019  C1115   1.086   .     S
H1022  O1496   1.014   1_565 S
H1031  C168    1.111   1_565 S
H1032  C168    1.114   1_565 S
H1038  O1087   1.014   .     S
H1055  C2249   1.112   1_554 S
H1057  C2250   1.112   1_554 S
H1061  C2251   1.109   1_554 S
H1062  O1092   1.013   .     S
O1075  Zn1101  1.970   .     S
O1075  Zn1103  1.936   .     S
O1075  Zn1102  1.935   .     S
O1075  Zn1104  1.917   .     S
O1076  Zn1102  1.924   .     S
O1077  Zn1104  1.938   .     S
O1078  Zn1103  1.923   .     S
O1079  Zn1101  1.911   .     S
O1082  H1850   1.014   1_554 S
O1086  Zn1101  1.931   .     S
O1094  Zn1104  1.942   .     S
O1095  Zn1102  1.918   .     S
O1096  Zn1103  1.934   .     S
O1097  Zn1104  1.927   .     S
O1098  Zn1101  1.917   .     S
O1099  Zn1102  1.948   .     S
O1100  Zn1103  1.933   .     S
C1105  C1115   1.436   .     S
C1105  O1233   1.266   .     A
C1105  O1235   1.261   .     A
C1106  C1153   1.406   .     A
C1106  C1107   1.390   .     A
C1106  H1190   1.079   .     S
C1107  O1227   1.384   .     S
C1107  C2351   1.416   .     S
C1108  O1236   1.285   .     A
C1108  O1234   1.285   .     A
C1108  C1114   1.460   .     S
C1109  C1111   1.425   .     A
C1109  C1110   1.431   .     A
C1109  C2349   1.416   1_554 S
C1110  C1154   1.427   .     A
C1110  C1113   1.423   .     A
C1111  C1112   1.395   .     A
C1111  C1130   1.481   .     S
C1112  C1124   1.390   .     A
C1112  H1168   1.085   .     S
C1113  C1124   1.394   .     A
C1113  O1226   1.385   .     S
C1114  C839    1.339   1_655 S
C1114  O945    1.388   1_655 S
C1116  C1125   1.409   .     A
C1116  C1148   1.483   .     S
C1116  C1123   1.420   .     A
C1117  C1120   1.461   .     S
C1117  C290    1.353   1_565 S
C1117  O394    1.395   1_565 S
C1118  C1119   1.426   .     S
C1119  O1224   1.272   .     A
C1119  O1237   1.272   .     A
C1120  O1238   1.270   .     A
C1120  O1232   1.260   .     A
C1121  O1214   1.270   .     A
C1121  C1124   1.454   .     S
C1121  O1216   1.277   .     A
C1122  C1123   1.487   .     S
C1122  O1217   1.293   .     A
C1122  O1215   1.279   .     A
C1123  C1127   1.406   .     A
C1125  C1149   1.413   .     A
C1125  O1228   1.386   .     S
C1126  H1201   1.115   .     S
C1126  O1218   1.413   .     S
C1126  C1128   1.527   .     S
C1126  H1209   1.114   .     S
C1127  C1138   1.417   .     A
C1127  O1231   1.388   .     S
C1128  H1211   1.111   .     S
C1128  H1210   1.112   .     S
C1128  C301    1.528   1_565 S
C1129  H1158   1.110   .     S
C1129  H1159   1.111   .     S
C1129  H1212   1.111   .     S
C1130  O1219   1.223   .     D
C1130  O1220   1.398   .     S
C1131  O1221   1.412   .     S
C1131  H1161   1.115   .     S
C1131  H1162   1.114   .     S
C1131  C1132   1.530   .     S
C1132  H1164   1.112   .     S
C1132  H1163   1.112   .     S
C1132  C1133   1.526   .     S
C1133  H1167   1.109   .     S
C1133  H1165   1.110   .     S
C1133  H1166   1.109   .     S
C1134  C1135   1.530   .     S
C1134  O1222   1.420   .     S
C1135  H1171   1.111   .     S
C1135  H1172   1.111   .     S
C1135  C1136   1.527   .     S
C1136  H1174   1.110   .     S
C1136  H1173   1.111   .     S
C1136  H899    1.110   1_655 S
C1137  O1225   1.398   .     S
C1137  C290    1.484   1_565 S
C1137  O395    1.223   1_565 S
C1138  C1149   1.417   .     A
C1138  C1153   1.424   .     A
C1139  H1178   1.116   .     S
C1139  C1140   1.528   .     S
C1139  H1177   1.110   .     S
C1139  O1226   1.411   .     S
C1140  C1141   1.526   .     S
C1140  H1181   1.111   .     S
C1140  H1180   1.110   .     S
C1141  H1183   1.110   .     S
C1141  H1184   1.110   .     S
C1141  H1182   1.111   .     S
C1142  O1227   1.417   .     S
C1142  H1186   1.117   .     S
C1142  C1143   1.532   .     S
C1142  H1185   1.111   .     S
C1143  H1188   1.110   .     S
C1143  H1187   1.112   .     S
C1143  C868    1.526   1_655 S
C1144  H1191   1.111   .     S
C1144  H1189   1.111   .     S
C1144  H1192   1.111   .     S
C1145  H1194   1.119   .     S
C1145  O1228   1.417   .     S
C1145  H2435   1.112   .     S
C1146  C1147   1.521   .     S
C1146  H1196   1.111   .     S
C1146  C869    1.527   1_655 S
C1146  H2437   1.112   .     S
C1147  H1198   1.109   .     S
C1147  H1197   1.110   .     S
C1147  H2441   1.109   .     S
C1148  O1230   1.398   .     S
C1148  O1229   1.223   .     D
C1149  C2398   1.410   .     S
C1150  H1203   1.116   .     S
C1150  C1151   1.533   .     S
C1150  H1202   1.110   .     S
C1150  O1231   1.418   .     S
C1151  H1205   1.110   .     S
C1151  C1152   1.527   .     S
C1151  H1204   1.112   .     S
C1152  H1208   1.110   .     S
C1152  H1207   1.111   .     S
C1152  H1206   1.111   .     S
C1153  C2396   1.416   .     S
C1154  C1155   1.409   .     A
C1154  C2395   1.416   1_554 S
C1155  H1179   1.077   .     S
C1155  C1156   1.391   .     A
C1156  O1218   1.383   .     S
C1156  C2391   1.410   1_554 S
H1157  C839    1.086   1_655 S
H1160  O1634   1.014   1_565 S
H1169  C306    1.111   1_565 S
H1170  C306    1.114   1_565 S
H1176  O1225   1.014   .     S
H1193  C2387   1.112   1_554 S
H1195  C2388   1.112   1_554 S
H1199  C2389   1.109   1_554 S
H1200  O1230   1.013   .     S
O1213  Zn1239  1.970   .     S
O1213  Zn1241  1.936   .     S
O1213  Zn1240  1.935   .     S
O1213  Zn1242  1.917   .     S
O1214  Zn1240  1.924   .     S
O1215  Zn1242  1.938   .     S
O1216  Zn1241  1.923   .     S
O1217  Zn1239  1.911   .     S
O1220  H1988   1.014   1_554 S
O1224  Zn1239  1.931   .     S
O1232  Zn1242  1.942   .     S
O1233  Zn1240  1.918   .     S
O1234  Zn1241  1.934   .     S
O1235  Zn1242  1.927   .     S
O1236  Zn1239  1.917   .     S
O1237  Zn1240  1.948   .     S
O1238  Zn1241  1.933   .     S
C1243  C1253   1.436   .     S
C1243  O1371   1.266   .     A
C1243  O1373   1.261   .     A
C1244  C1291   1.406   .     A
C1244  C1245   1.390   .     A
C1244  H1328   1.079   .     S
C1245  O1365   1.384   .     S
C1245  C5      1.416   1_556 S
C1246  O1374   1.285   .     A
C1246  O1372   1.285   .     A
C1246  C1252   1.460   .     S
C1247  C1249   1.425   .     A
C1247  C1248   1.431   .     A
C1248  C1292   1.427   .     A
C1248  C1251   1.423   .     A
C1249  C1250   1.395   .     A
C1249  C1268   1.481   .     S
C1250  C1262   1.390   .     A
C1250  H1306   1.085   .     S
C1251  C1262   1.394   .     A
C1251  O1364   1.385   .     S
C1252  C1391   1.339   .     S
C1252  O1497   1.388   .     S
C1253  C1528   1.339   1_455 S
C1253  H1571   1.086   1_455 S
C1254  C1263   1.409   .     A
C1254  C1286   1.483   .     S
C1254  C1261   1.420   .     A
C1255  C1258   1.461   .     S
C1255  C1670   1.353   .     S
C1255  O1774   1.395   .     S
C1256  C1257   1.426   .     S
C1256  C2083   1.353   1_545 S
C1256  C2103   1.484   1_545 S
C1257  O1362   1.272   .     A
C1257  O1375   1.272   .     A
C1258  O1376   1.270   .     A
C1258  O1370   1.260   .     A
C1259  O1352   1.270   .     A
C1259  C1262   1.454   .     S
C1259  O1354   1.277   .     A
C1260  C1261   1.487   .     S
C1260  O1355   1.293   .     A
C1260  O1353   1.279   .     A
C1261  C1265   1.406   .     A
C1263  C1287   1.413   .     A
C1263  O1366   1.386   .     S
C1264  H1339   1.115   .     S
C1264  O1356   1.413   .     S
C1264  C1266   1.527   .     S
C1264  H1347   1.114   .     S
C1265  C1276   1.417   .     A
C1265  O1369   1.388   .     S
C1266  H1349   1.111   .     S
C1266  H1348   1.112   .     S
C1266  C1681   1.528   .     S
C1267  H1296   1.110   .     S
C1267  H1297   1.111   .     S
C1267  H1350   1.111   .     S
C1267  C2094   1.528   1_545 S
C1268  O1357   1.223   .     D
C1268  O1358   1.398   .     S
C1269  O1359   1.412   .     S
C1269  H1299   1.115   .     S
C1269  H1300   1.114   .     S
C1269  C1270   1.530   .     S
C1270  H1302   1.112   .     S
C1270  H1301   1.112   .     S
C1270  C1271   1.526   .     S
C1271  H1305   1.109   .     S
C1271  H1303   1.110   .     S
C1271  H1304   1.109   .     S
C1272  C1273   1.530   .     S
C1272  O1360   1.420   .     S
C1272  H2135   1.111   1_545 S
C1272  H2136   1.114   1_545 S
C1273  H1309   1.111   .     S
C1273  H1310   1.111   .     S
C1273  C1274   1.527   .     S
C1274  H1312   1.110   .     S
C1274  H1311   1.111   .     S
C1274  H1451   1.110   .     S
C1275  O1363   1.398   .     S
C1275  C1670   1.484   .     S
C1275  O1775   1.223   .     S
C1276  C1287   1.417   .     A
C1276  C1291   1.424   .     A
C1277  H1316   1.116   .     S
C1277  C1278   1.528   .     S
C1277  H1315   1.110   .     S
C1277  O1364   1.411   .     S
C1278  C1279   1.526   .     S
C1278  H1319   1.111   .     S
C1278  H1318   1.110   .     S
C1279  H1321   1.110   .     S
C1279  H1322   1.110   .     S
C1279  H1320   1.111   .     S
C1280  O1365   1.417   .     S
C1280  H1324   1.117   .     S
C1280  C1281   1.532   .     S
C1280  H1323   1.111   .     S
C1281  H1326   1.110   .     S
C1281  H1325   1.112   .     S
C1281  C1420   1.526   .     S
C1282  H1329   1.111   .     S
C1282  H1327   1.111   .     S
C1282  H1330   1.111   .     S
C1282  C1557   1.526   1_455 S
C1283  H1332   1.119   .     S
C1283  O1366   1.417   .     S
C1283  C1560   1.527   1_455 S
C1283  H89     1.112   1_556 S
C1284  C1285   1.521   .     S
C1284  H1334   1.111   .     S
C1284  C1421   1.527   .     S
C1284  H91     1.112   1_556 S
C1285  H1336   1.109   .     S
C1285  H1335   1.110   .     S
C1285  H95     1.109   1_556 S
C1286  O1368   1.398   .     S
C1286  O1367   1.223   .     D
C1287  C52     1.410   1_556 S
C1288  H1341   1.116   .     S
C1288  C1289   1.533   .     S
C1288  H1340   1.110   .     S
C1288  O1369   1.418   .     S
C1289  H1343   1.110   .     S
C1289  C1290   1.527   .     S
C1289  H1342   1.112   .     S
C1290  H1346   1.110   .     S
C1290  H1345   1.111   .     S
C1290  H1344   1.111   .     S
C1291  C50     1.416   1_556 S
C1292  C1293   1.409   .     A
C1293  H1317   1.077   .     S
C1293  C1294   1.391   .     A
C1294  O1356   1.383   .     S
H1295  C1391   1.086   .     S
H1298  O530    1.014   1_556 S
H1307  C1686   1.111   .     S
H1308  C1686   1.114   .     S
H1313  C1550   1.110   1_455 S
H1314  O1363   1.014   .     S
H1338  O1368   1.013   .     S
O1351  Zn1377  1.970   .     S
O1351  Zn1379  1.936   .     S
O1351  Zn1378  1.935   .     S
O1351  Zn1380  1.917   .     S
O1352  Zn1378  1.924   .     S
O1353  Zn1380  1.938   .     S
O1354  Zn1379  1.923   .     S
O1355  Zn1377  1.911   .     S
O1358  H884    1.014   1_545 S
O1359  C1528   1.388   1_455 S
O1360  C2083   1.395   1_545 S
O1361  C2103   1.223   1_545 S
O1362  Zn1377  1.931   .     S
O1370  Zn1380  1.942   .     S
O1371  Zn1378  1.918   .     S
O1372  Zn1379  1.934   .     S
O1373  Zn1380  1.927   .     S
O1374  Zn1377  1.917   .     S
O1375  Zn1378  1.948   .     S
O1376  Zn1379  1.933   .     S
C1381  C1391   1.436   .     S
C1381  O1509   1.266   .     A
C1381  O1511   1.261   .     A
C1382  C1429   1.406   .     A
C1382  C1383   1.390   .     A
C1382  H1466   1.079   .     S
C1383  O1503   1.384   .     S
C1383  C143    1.416   1_556 S
C1384  O1512   1.285   .     A
C1384  O1510   1.285   .     A
C1384  C1390   1.460   .     S
C1385  C1387   1.425   .     A
C1385  C1386   1.431   .     A
C1386  C1430   1.427   .     A
C1386  C1389   1.423   .     A
C1387  C1388   1.395   .     A
C1387  C1406   1.481   .     S
C1388  C1400   1.390   .     A
C1388  H1444   1.085   .     S
C1389  C1400   1.394   .     A
C1389  O1502   1.385   .     S
C1390  C1529   1.339   .     S
C1390  O1635   1.388   .     S
C1392  C1401   1.409   .     A
C1392  C1424   1.483   .     S
C1392  C1399   1.420   .     A
C1393  C1396   1.461   .     S
C1393  C1808   1.353   .     S
C1393  O1912   1.395   .     S
C1394  C1395   1.426   .     S
C1394  C2221   1.353   1_545 S
C1394  C2241   1.484   1_545 S
C1395  O1500   1.272   .     A
C1395  O1513   1.272   .     A
C1396  O1514   1.270   .     A
C1396  O1508   1.260   .     A
C1397  O1490   1.270   .     A
C1397  C1400   1.454   .     S
C1397  O1492   1.277   .     A
C1398  C1399   1.487   .     S
C1398  O1493   1.293   .     A
C1398  O1491   1.279   .     A
C1399  C1403   1.406   .     A
C1401  C1425   1.413   .     A
C1401  O1504   1.386   .     S
C1402  H1477   1.115   .     S
C1402  O1494   1.413   .     S
C1402  C1404   1.527   .     S
C1402  H1485   1.114   .     S
C1403  C1414   1.417   .     A
C1403  O1507   1.388   .     S
C1404  H1487   1.111   .     S
C1404  H1486   1.112   .     S
C1404  C1819   1.528   .     S
C1405  H1434   1.110   .     S
C1405  H1435   1.111   .     S
C1405  H1488   1.111   .     S
C1405  C2232   1.528   1_545 S
C1406  O1495   1.223   .     D
C1406  O1496   1.398   .     S
C1407  O1497   1.412   .     S
C1407  H1437   1.115   .     S
C1407  H1438   1.114   .     S
C1407  C1408   1.530   .     S
C1408  H1440   1.112   .     S
C1408  H1439   1.112   .     S
C1408  C1409   1.526   .     S
C1409  H1443   1.109   .     S
C1409  H1441   1.110   .     S
C1409  H1442   1.109   .     S
C1410  C1411   1.530   .     S
C1410  O1498   1.420   .     S
C1410  H2273   1.111   1_545 S
C1410  H2274   1.114   1_545 S
C1411  H1447   1.111   .     S
C1411  H1448   1.111   .     S
C1411  C1412   1.527   .     S
C1412  H1450   1.110   .     S
C1412  H1449   1.111   .     S
C1412  H1589   1.110   .     S
C1413  O1501   1.398   .     S
C1413  C1808   1.484   .     S
C1413  O1913   1.223   .     S
C1414  C1425   1.417   .     A
C1414  C1429   1.424   .     A
C1415  H1454   1.116   .     S
C1415  C1416   1.528   .     S
C1415  H1453   1.110   .     S
C1415  O1502   1.411   .     S
C1416  C1417   1.526   .     S
C1416  H1457   1.111   .     S
C1416  H1456   1.110   .     S
C1417  H1459   1.110   .     S
C1417  H1460   1.110   .     S
C1417  H1458   1.111   .     S
C1418  O1503   1.417   .     S
C1418  H1462   1.117   .     S
C1418  C1419   1.532   .     S
C1418  H1461   1.111   .     S
C1419  H1464   1.110   .     S
C1419  H1463   1.112   .     S
C1419  C1558   1.526   .     S
C1420  H1467   1.111   .     S
C1420  H1465   1.111   .     S
C1420  H1468   1.111   .     S
C1421  H1470   1.119   .     S
C1421  O1504   1.417   .     S
C1421  H227    1.112   1_556 S
C1422  C1423   1.521   .     S
C1422  H1472   1.111   .     S
C1422  C1559   1.527   .     S
C1422  H229    1.112   1_556 S
C1423  H1474   1.109   .     S
C1423  H1473   1.110   .     S
C1423  H233    1.109   1_556 S
C1424  O1506   1.398   .     S
C1424  O1505   1.223   .     D
C1425  C190    1.410   1_556 S
C1426  H1479   1.116   .     S
C1426  C1427   1.533   .     S
C1426  H1478   1.110   .     S
C1426  O1507   1.418   .     S
C1427  H1481   1.110   .     S
C1427  C1428   1.527   .     S
C1427  H1480   1.112   .     S
C1428  H1484   1.110   .     S
C1428  H1483   1.111   .     S
C1428  H1482   1.111   .     S
C1429  C188    1.416   1_556 S
C1430  C1431   1.409   .     A
C1431  H1455   1.077   .     S
C1431  C1432   1.391   .     A
C1432  O1494   1.383   .     S
H1433  C1529   1.086   .     S
H1436  O668    1.014   1_556 S
H1445  C1824   1.111   .     S
H1446  C1824   1.114   .     S
H1452  O1501   1.014   .     S
H1476  O1506   1.013   .     S
O1489  Zn1515  1.970   .     S
O1489  Zn1517  1.936   .     S
O1489  Zn1516  1.935   .     S
O1489  Zn1518  1.917   .     S
O1490  Zn1516  1.924   .     S
O1491  Zn1518  1.938   .     S
O1492  Zn1517  1.923   .     S
O1493  Zn1515  1.911   .     S
O1496  H1022   1.014   1_545 S
O1498  C2221   1.395   1_545 S
O1499  C2241   1.223   1_545 S
O1500  Zn1515  1.931   .     S
O1508  Zn1518  1.942   .     S
O1509  Zn1516  1.918   .     S
O1510  Zn1517  1.934   .     S
O1511  Zn1518  1.927   .     S
O1512  Zn1515  1.917   .     S
O1513  Zn1516  1.948   .     S
O1514  Zn1517  1.933   .     S
C1519  C1529   1.436   .     S
C1519  O1647   1.266   .     A
C1519  O1649   1.261   .     A
C1520  C1567   1.406   .     A
C1520  C1521   1.390   .     A
C1520  H1604   1.079   .     S
C1521  O1641   1.384   .     S
C1521  C281    1.416   1_556 S
C1522  O1650   1.285   .     A
C1522  O1648   1.285   .     A
C1522  C1528   1.460   .     S
C1523  C1525   1.425   .     A
C1523  C1524   1.431   .     A
C1524  C1568   1.427   .     A
C1524  C1527   1.423   .     A
C1525  C1526   1.395   .     A
C1525  C1544   1.481   .     S
C1526  C1538   1.390   .     A
C1526  H1582   1.085   .     S
C1527  C1538   1.394   .     A
C1527  O1640   1.385   .     S
C1528  C1253   1.339   1_655 S
C1528  O1359   1.388   1_655 S
C1530  C1539   1.409   .     A
C1530  C1562   1.483   .     S
C1530  C1537   1.420   .     A
C1531  C1534   1.461   .     S
C1531  C1946   1.353   .     S
C1531  O2050   1.395   .     S
C1532  C1533   1.426   .     S
C1532  C2359   1.353   1_545 S
C1532  C2379   1.484   1_545 S
C1533  O1638   1.272   .     A
C1533  O1651   1.272   .     A
C1534  O1652   1.270   .     A
C1534  O1646   1.260   .     A
C1535  O1628   1.270   .     A
C1535  C1538   1.454   .     S
C1535  O1630   1.277   .     A
C1536  C1537   1.487   .     S
C1536  O1631   1.293   .     A
C1536  O1629   1.279   .     A
C1537  C1541   1.406   .     A
C1539  C1563   1.413   .     A
C1539  O1642   1.386   .     S
C1540  H1615   1.115   .     S
C1540  O1632   1.413   .     S
C1540  C1542   1.527   .     S
C1540  H1623   1.114   .     S
C1541  C1552   1.417   .     A
C1541  O1645   1.388   .     S
C1542  H1625   1.111   .     S
C1542  H1624   1.112   .     S
C1542  C1957   1.528   .     S
C1543  H1572   1.110   .     S
C1543  H1573   1.111   .     S
C1543  H1626   1.111   .     S
C1543  C2370   1.528   1_545 S
C1544  O1633   1.223   .     D
C1544  O1634   1.398   .     S
C1545  O1635   1.412   .     S
C1545  H1575   1.115   .     S
C1545  H1576   1.114   .     S
C1545  C1546   1.530   .     S
C1546  H1578   1.112   .     S
C1546  H1577   1.112   .     S
C1546  C1547   1.526   .     S
C1547  H1581   1.109   .     S
C1547  H1579   1.110   .     S
C1547  H1580   1.109   .     S
C1548  C1549   1.530   .     S
C1548  O1636   1.420   .     S
C1548  H2411   1.111   1_545 S
C1548  H2412   1.114   1_545 S
C1549  H1585   1.111   .     S
C1549  H1586   1.111   .     S
C1549  C1550   1.527   .     S
C1550  H1588   1.110   .     S
C1550  H1587   1.111   .     S
C1550  H1313   1.110   1_655 S
C1551  O1639   1.398   .     S
C1551  C1946   1.484   .     S
C1551  O2051   1.223   .     S
C1552  C1563   1.417   .     A
C1552  C1567   1.424   .     A
C1553  H1592   1.116   .     S
C1553  C1554   1.528   .     S
C1553  H1591   1.110   .     S
C1553  O1640   1.411   .     S
C1554  C1555   1.526   .     S
C1554  H1595   1.111   .     S
C1554  H1594   1.110   .     S
C1555  H1597   1.110   .     S
C1555  H1598   1.110   .     S
C1555  H1596   1.111   .     S
C1556  O1641   1.417   .     S
C1556  H1600   1.117   .     S
C1556  C1557   1.532   .     S
C1556  H1599   1.111   .     S
C1557  H1602   1.110   .     S
C1557  H1601   1.112   .     S
C1557  C1282   1.526   1_655 S
C1558  H1605   1.111   .     S
C1558  H1603   1.111   .     S
C1558  H1606   1.111   .     S
C1559  H1608   1.119   .     S
C1559  O1642   1.417   .     S
C1559  H365    1.112   1_556 S
C1560  C1561   1.521   .     S
C1560  H1610   1.111   .     S
C1560  C1283   1.527   1_655 S
C1560  H367    1.112   1_556 S
C1561  H1612   1.109   .     S
C1561  H1611   1.110   .     S
C1561  H371    1.109   1_556 S
C1562  O1644   1.398   .     S
C1562  O1643   1.223   .     D
C1563  C328    1.410   1_556 S
C1564  H1617   1.116   .     S
C1564  C1565   1.533   .     S
C1564  H1616   1.110   .     S
C1564  O1645   1.418   .     S
C1565  H1619   1.110   .     S
C1565  C1566   1.527   .     S
C1565  H1618   1.112   .     S
C1566  H1622   1.110   .     S
C1566  H1621   1.111   .     S
C1566  H1620   1.111   .     S
C1567  C326    1.416   1_556 S
C1568  C1569   1.409   .     A
C1569  H1593   1.077   .     S
C1569  C1570   1.391   .     A
C1570  O1632   1.383   .     S
H1571  C1253   1.086   1_655 S
H1574  O806    1.014   1_556 S
H1583  C1962   1.111   .     S
H1584  C1962   1.114   .     S
H1590  O1639   1.014   .     S
H1614  O1644   1.013   .     S
O1627  Zn1653  1.970   .     S
O1627  Zn1655  1.936   .     S
O1627  Zn1654  1.935   .     S
O1627  Zn1656  1.917   .     S
O1628  Zn1654  1.924   .     S
O1629  Zn1656  1.938   .     S
O1630  Zn1655  1.923   .     S
O1631  Zn1653  1.911   .     S
O1634  H1160   1.014   1_545 S
O1636  C2359   1.395   1_545 S
O1637  C2379   1.223   1_545 S
O1638  Zn1653  1.931   .     S
O1646  Zn1656  1.942   .     S
O1647  Zn1654  1.918   .     S
O1648  Zn1655  1.934   .     S
O1649  Zn1656  1.927   .     S
O1650  Zn1653  1.917   .     S
O1651  Zn1654  1.948   .     S
O1652  Zn1655  1.933   .     S
C1657  C1667   1.436   .     S
C1657  O1785   1.266   .     A
C1657  O1787   1.261   .     A
C1658  C1705   1.406   .     A
C1658  C1659   1.390   .     A
C1658  H1742   1.079   .     S
C1659  O1779   1.384   .     S
C1659  C419    1.416   1_556 S
C1660  O1788   1.285   .     A
C1660  O1786   1.285   .     A
C1660  C1666   1.460   .     S
C1661  C1663   1.425   .     A
C1661  C1662   1.431   .     A
C1662  C1706   1.427   .     A
C1662  C1665   1.423   .     A
C1663  C1664   1.395   .     A
C1663  C1682   1.481   .     S
C1664  C1676   1.390   .     A
C1664  H1720   1.085   .     S
C1665  C1676   1.394   .     A
C1665  O1778   1.385   .     S
C1666  C1805   1.339   .     S
C1666  O1911   1.388   .     S
C1667  C1942   1.339   1_455 S
C1667  H1985   1.086   1_455 S
C1668  C1677   1.409   .     A
C1668  C1700   1.483   .     S
C1668  C1675   1.420   .     A
C1669  C1672   1.461   .     S
C1669  C2084   1.353   .     S
C1669  O2188   1.395   .     S
C1670  C1671   1.426   .     S
C1671  O1776   1.272   .     A
C1671  O1789   1.272   .     A
C1672  O1790   1.270   .     A
C1672  O1784   1.260   .     A
C1673  O1766   1.270   .     A
C1673  C1676   1.454   .     S
C1673  O1768   1.277   .     A
C1674  C1675   1.487   .     S
C1674  O1769   1.293   .     A
C1674  O1767   1.279   .     A
C1675  C1679   1.406   .     A
C1677  C1701   1.413   .     A
C1677  O1780   1.386   .     S
C1678  H1753   1.115   .     S
C1678  O1770   1.413   .     S
C1678  C1680   1.527   .     S
C1678  H1761   1.114   .     S
C1679  C1690   1.417   .     A
C1679  O1783   1.388   .     S
C1680  H1763   1.111   .     S
C1680  H1762   1.112   .     S
C1680  C2095   1.528   .     S
C1681  H1710   1.110   .     S
C1681  H1711   1.111   .     S
C1681  H1764   1.111   .     S
C1682  O1771   1.223   .     D
C1682  O1772   1.398   .     S
C1683  O1773   1.412   .     S
C1683  H1713   1.115   .     S
C1683  H1714   1.114   .     S
C1683  C1684   1.530   .     S
C1684  H1716   1.112   .     S
C1684  H1715   1.112   .     S
C1684  C1685   1.526   .     S
C1685  H1719   1.109   .     S
C1685  H1717   1.110   .     S
C1685  H1718   1.109   .     S
C1686  C1687   1.530   .     S
C1686  O1774   1.420   .     S
C1687  H1723   1.111   .     S
C1687  H1724   1.111   .     S
C1687  C1688   1.527   .     S
C1688  H1726   1.110   .     S
C1688  H1725   1.111   .     S
C1688  H1865   1.110   .     S
C1689  O1777   1.398   .     S
C1689  C2084   1.484   .     S
C1689  O2189   1.223   .     S
C1690  C1701   1.417   .     A
C1690  C1705   1.424   .     A
C1691  H1730   1.116   .     S
C1691  C1692   1.528   .     S
C1691  H1729   1.110   .     S
C1691  O1778   1.411   .     S
C1692  C1693   1.526   .     S
C1692  H1733   1.111   .     S
C1692  H1732   1.110   .     S
C1693  H1735   1.110   .     S
C1693  H1736   1.110   .     S
C1693  H1734   1.111   .     S
C1694  O1779   1.417   .     S
C1694  H1738   1.117   .     S
C1694  C1695   1.532   .     S
C1694  H1737   1.111   .     S
C1695  H1740   1.110   .     S
C1695  H1739   1.112   .     S
C1695  C1834   1.526   .     S
C1696  H1743   1.111   .     S
C1696  H1741   1.111   .     S
C1696  H1744   1.111   .     S
C1696  C1971   1.526   1_455 S
C1697  H1746   1.119   .     S
C1697  O1780   1.417   .     S
C1697  C1974   1.527   1_455 S
C1697  H503    1.112   1_556 S
C1698  C1699   1.521   .     S
C1698  H1748   1.111   .     S
C1698  C1835   1.527   .     S
C1698  H505    1.112   1_556 S
C1699  H1750   1.109   .     S
C1699  H1749   1.110   .     S
C1699  H509    1.109   1_556 S
C1700  O1782   1.398   .     S
C1700  O1781   1.223   .     D
C1701  C466    1.410   1_556 S
C1702  H1755   1.116   .     S
C1702  C1703   1.533   .     S
C1702  H1754   1.110   .     S
C1702  O1783   1.418   .     S
C1703  H1757   1.110   .     S
C1703  C1704   1.527   .     S
C1703  H1756   1.112   .     S
C1704  H1760   1.110   .     S
C1704  H1759   1.111   .     S
C1704  H1758   1.111   .     S
C1705  C464    1.416   1_556 S
C1706  C1707   1.409   .     A
C1707  H1731   1.077   .     S
C1707  C1708   1.391   .     A
C1708  O1770   1.383   .     S
H1709  C1805   1.086   .     S
H1712  O944    1.014   1_556 S
H1721  C2100   1.111   .     S
H1722  C2100   1.114   .     S
H1727  C1964   1.110   1_455 S
H1728  O1777   1.014   .     S
H1752  O1782   1.013   .     S
O1765  Zn1791  1.970   .     S
O1765  Zn1793  1.936   .     S
O1765  Zn1792  1.935   .     S
O1765  Zn1794  1.917   .     S
O1766  Zn1792  1.924   .     S
O1767  Zn1794  1.938   .     S
O1768  Zn1793  1.923   .     S
O1769  Zn1791  1.911   .     S
O1773  C1942   1.388   1_455 S
O1776  Zn1791  1.931   .     S
O1784  Zn1794  1.942   .     S
O1785  Zn1792  1.918   .     S
O1786  Zn1793  1.934   .     S
O1787  Zn1794  1.927   .     S
O1788  Zn1791  1.917   .     S
O1789  Zn1792  1.948   .     S
O1790  Zn1793  1.933   .     S
C1795  C1805   1.436   .     S
C1795  O1923   1.266   .     A
C1795  O1925   1.261   .     A
C1796  C1843   1.406   .     A
C1796  C1797   1.390   .     A
C1796  H1880   1.079   .     S
C1797  O1917   1.384   .     S
C1797  C557    1.416   1_556 S
C1798  O1926   1.285   .     A
C1798  O1924   1.285   .     A
C1798  C1804   1.460   .     S
C1799  C1801   1.425   .     A
C1799  C1800   1.431   .     A
C1800  C1844   1.427   .     A
C1800  C1803   1.423   .     A
C1801  C1802   1.395   .     A
C1801  C1820   1.481   .     S
C1802  C1814   1.390   .     A
C1802  H1858   1.085   .     S
C1803  C1814   1.394   .     A
C1803  O1916   1.385   .     S
C1804  C1943   1.339   .     S
C1804  O2049   1.388   .     S
C1806  C1815   1.409   .     A
C1806  C1838   1.483   .     S
C1806  C1813   1.420   .     A
C1807  C1810   1.461   .     S
C1807  C2222   1.353   .     S
C1807  O2326   1.395   .     S
C1808  C1809   1.426   .     S
C1809  O1914   1.272   .     A
C1809  O1927   1.272   .     A
C1810  O1928   1.270   .     A
C1810  O1922   1.260   .     A
C1811  O1904   1.270   .     A
C1811  C1814   1.454   .     S
C1811  O1906   1.277   .     A
C1812  C1813   1.487   .     S
C1812  O1907   1.293   .     A
C1812  O1905   1.279   .     A
C1813  C1817   1.406   .     A
C1815  C1839   1.413   .     A
C1815  O1918   1.386   .     S
C1816  H1891   1.115   .     S
C1816  O1908   1.413   .     S
C1816  C1818   1.527   .     S
C1816  H1899   1.114   .     S
C1817  C1828   1.417   .     A
C1817  O1921   1.388   .     S
C1818  H1901   1.111   .     S
C1818  H1900   1.112   .     S
C1818  C2233   1.528   .     S
C1819  H1848   1.110   .     S
C1819  H1849   1.111   .     S
C1819  H1902   1.111   .     S
C1820  O1909   1.223   .     D
C1820  O1910   1.398   .     S
C1821  O1911   1.412   .     S
C1821  H1851   1.115   .     S
C1821  H1852   1.114   .     S
C1821  C1822   1.530   .     S
C1822  H1854   1.112   .     S
C1822  H1853   1.112   .     S
C1822  C1823   1.526   .     S
C1823  H1857   1.109   .     S
C1823  H1855   1.110   .     S
C1823  H1856   1.109   .     S
C1824  C1825   1.530   .     S
C1824  O1912   1.420   .     S
C1825  H1861   1.111   .     S
C1825  H1862   1.111   .     S
C1825  C1826   1.527   .     S
C1826  H1864   1.110   .     S
C1826  H1863   1.111   .     S
C1826  H2003   1.110   .     S
C1827  O1915   1.398   .     S
C1827  C2222   1.484   .     S
C1827  O2327   1.223   .     S
C1828  C1839   1.417   .     A
C1828  C1843   1.424   .     A
C1829  H1868   1.116   .     S
C1829  C1830   1.528   .     S
C1829  H1867   1.110   .     S
C1829  O1916   1.411   .     S
C1830  C1831   1.526   .     S
C1830  H1871   1.111   .     S
C1830  H1870   1.110   .     S
C1831  H1873   1.110   .     S
C1831  H1874   1.110   .     S
C1831  H1872   1.111   .     S
C1832  O1917   1.417   .     S
C1832  H1876   1.117   .     S
C1832  C1833   1.532   .     S
C1832  H1875   1.111   .     S
C1833  H1878   1.110   .     S
C1833  H1877   1.112   .     S
C1833  C1972   1.526   .     S
C1834  H1881   1.111   .     S
C1834  H1879   1.111   .     S
C1834  H1882   1.111   .     S
C1835  H1884   1.119   .     S
C1835  O1918   1.417   .     S
C1835  H641    1.112   1_556 S
C1836  C1837   1.521   .     S
C1836  H1886   1.111   .     S
C1836  C1973   1.527   .     S
C1836  H643    1.112   1_556 S
C1837  H1888   1.109   .     S
C1837  H1887   1.110   .     S
C1837  H647    1.109   1_556 S
C1838  O1920   1.398   .     S
C1838  O1919   1.223   .     D
C1839  C604    1.410   1_556 S
C1840  H1893   1.116   .     S
C1840  C1841   1.533   .     S
C1840  H1892   1.110   .     S
C1840  O1921   1.418   .     S
C1841  H1895   1.110   .     S
C1841  C1842   1.527   .     S
C1841  H1894   1.112   .     S
C1842  H1898   1.110   .     S
C1842  H1897   1.111   .     S
C1842  H1896   1.111   .     S
C1843  C602    1.416   1_556 S
C1844  C1845   1.409   .     A
C1845  H1869   1.077   .     S
C1845  C1846   1.391   .     A
C1846  O1908   1.383   .     S
H1847  C1943   1.086   .     S
H1850  O1082   1.014   1_556 S
H1859  C2238   1.111   .     S
H1860  C2238   1.114   .     S
H1866  O1915   1.014   .     S
H1890  O1920   1.013   .     S
O1903  Zn1929  1.970   .     S
O1903  Zn1931  1.936   .     S
O1903  Zn1930  1.935   .     S
O1903  Zn1932  1.917   .     S
O1904  Zn1930  1.924   .     S
O1905  Zn1932  1.938   .     S
O1906  Zn1931  1.923   .     S
O1907  Zn1929  1.911   .     S
O1914  Zn1929  1.931   .     S
O1922  Zn1932  1.942   .     S
O1923  Zn1930  1.918   .     S
O1924  Zn1931  1.934   .     S
O1925  Zn1932  1.927   .     S
O1926  Zn1929  1.917   .     S
O1927  Zn1930  1.948   .     S
O1928  Zn1931  1.933   .     S
C1933  C1943   1.436   .     S
C1933  O2061   1.266   .     A
C1933  O2063   1.261   .     A
C1934  C1981   1.406   .     A
C1934  C1935   1.390   .     A
C1934  H2018   1.079   .     S
C1935  O2055   1.384   .     S
C1935  C695    1.416   1_556 S
C1936  O2064   1.285   .     A
C1936  O2062   1.285   .     A
C1936  C1942   1.460   .     S
C1937  C1939   1.425   .     A
C1937  C1938   1.431   .     A
C1938  C1982   1.427   .     A
C1938  C1941   1.423   .     A
C1939  C1940   1.395   .     A
C1939  C1958   1.481   .     S
C1940  C1952   1.390   .     A
C1940  H1996   1.085   .     S
C1941  C1952   1.394   .     A
C1941  O2054   1.385   .     S
C1942  C1667   1.339   1_655 S
C1942  O1773   1.388   1_655 S
C1944  C1953   1.409   .     A
C1944  C1976   1.483   .     S
C1944  C1951   1.420   .     A
C1945  C1948   1.461   .     S
C1945  C2360   1.353   .     S
C1945  O2464   1.395   .     S
C1946  C1947   1.426   .     S
C1947  O2052   1.272   .     A
C1947  O2065   1.272   .     A
C1948  O2066   1.270   .     A
C1948  O2060   1.260   .     A
C1949  O2042   1.270   .     A
C1949  C1952   1.454   .     S
C1949  O2044   1.277   .     A
C1950  C1951   1.487   .     S
C1950  O2045   1.293   .     A
C1950  O2043   1.279   .     A
C1951  C1955   1.406   .     A
C1953  C1977   1.413   .     A
C1953  O2056   1.386   .     S
C1954  H2029   1.115   .     S
C1954  O2046   1.413   .     S
C1954  C1956   1.527   .     S
C1954  H2037   1.114   .     S
C1955  C1966   1.417   .     A
C1955  O2059   1.388   .     S
C1956  H2039   1.111   .     S
C1956  H2038   1.112   .     S
C1956  C2371   1.528   .     S
C1957  H1986   1.110   .     S
C1957  H1987   1.111   .     S
C1957  H2040   1.111   .     S
C1958  O2047   1.223   .     D
C1958  O2048   1.398   .     S
C1959  O2049   1.412   .     S
C1959  H1989   1.115   .     S
C1959  H1990   1.114   .     S
C1959  C1960   1.530   .     S
C1960  H1992   1.112   .     S
C1960  H1991   1.112   .     S
C1960  C1961   1.526   .     S
C1961  H1995   1.109   .     S
C1961  H1993   1.110   .     S
C1961  H1994   1.109   .     S
C1962  C1963   1.530   .     S
C1962  O2050   1.420   .     S
C1963  H1999   1.111   .     S
C1963  H2000   1.111   .     S
C1963  C1964   1.527   .     S
C1964  H2002   1.110   .     S
C1964  H2001   1.111   .     S
C1964  H1727   1.110   1_655 S
C1965  O2053   1.398   .     S
C1965  C2360   1.484   .     S
C1965  O2465   1.223   .     S
C1966  C1977   1.417   .     A
C1966  C1981   1.424   .     A
C1967  H2006   1.116   .     S
C1967  C1968   1.528   .     S
C1967  H2005   1.110   .     S
C1967  O2054   1.411   .     S
C1968  C1969   1.526   .     S
C1968  H2009   1.111   .     S
C1968  H2008   1.110   .     S
C1969  H2011   1.110   .     S
C1969  H2012   1.110   .     S
C1969  H2010   1.111   .     S
C1970  O2055   1.417   .     S
C1970  H2014   1.117   .     S
C1970  C1971   1.532   .     S
C1970  H2013   1.111   .     S
C1971  H2016   1.110   .     S
C1971  H2015   1.112   .     S
C1971  C1696   1.526   1_655 S
C1972  H2019   1.111   .     S
C1972  H2017   1.111   .     S
C1972  H2020   1.111   .     S
C1973  H2022   1.119   .     S
C1973  O2056   1.417   .     S
C1973  H779    1.112   1_556 S
C1974  C1975   1.521   .     S
C1974  H2024   1.111   .     S
C1974  C1697   1.527   1_655 S
C1974  H781    1.112   1_556 S
C1975  H2026   1.109   .     S
C1975  H2025   1.110   .     S
C1975  H785    1.109   1_556 S
C1976  O2058   1.398   .     S
C1976  O2057   1.223   .     D
C1977  C742    1.410   1_556 S
C1978  H2031   1.116   .     S
C1978  C1979   1.533   .     S
C1978  H2030   1.110   .     S
C1978  O2059   1.418   .     S
C1979  H2033   1.110   .     S
C1979  C1980   1.527   .     S
C1979  H2032   1.112   .     S
C1980  H2036   1.110   .     S
C1980  H2035   1.111   .     S
C1980  H2034   1.111   .     S
C1981  C740    1.416   1_556 S
C1982  C1983   1.409   .     A
C1983  H2007   1.077   .     S
C1983  C1984   1.391   .     A
C1984  O2046   1.383   .     S
H1985  C1667   1.086   1_655 S
H1988  O1220   1.014   1_556 S
H1997  C2376   1.111   .     S
H1998  C2376   1.114   .     S
H2004  O2053   1.014   .     S
H2028  O2058   1.013   .     S
O2041  Zn2067  1.970   .     S
O2041  Zn2069  1.936   .     S
O2041  Zn2068  1.935   .     S
O2041  Zn2070  1.917   .     S
O2042  Zn2068  1.924   .     S
O2043  Zn2070  1.938   .     S
O2044  Zn2069  1.923   .     S
O2045  Zn2067  1.911   .     S
O2052  Zn2067  1.931   .     S
O2060  Zn2070  1.942   .     S
O2061  Zn2068  1.918   .     S
O2062  Zn2069  1.934   .     S
O2063  Zn2070  1.927   .     S
O2064  Zn2067  1.917   .     S
O2065  Zn2068  1.948   .     S
O2066  Zn2069  1.933   .     S
C2071  C2081   1.436   .     S
C2071  O2199   1.266   .     A
C2071  O2201   1.261   .     A
C2072  C2119   1.406   .     A
C2072  C2073   1.390   .     A
C2072  H2156   1.079   .     S
C2073  O2193   1.384   .     S
C2073  C833    1.416   1_556 S
C2074  O2202   1.285   .     A
C2074  O2200   1.285   .     A
C2074  C2080   1.460   .     S
C2075  C2077   1.425   .     A
C2075  C2076   1.431   .     A
C2076  C2120   1.427   .     A
C2076  C2079   1.423   .     A
C2077  C2078   1.395   .     A
C2077  C2096   1.481   .     S
C2078  C2090   1.390   .     A
C2078  H2134   1.085   .     S
C2079  C2090   1.394   .     A
C2079  O2192   1.385   .     S
C2080  C2219   1.339   .     S
C2080  O2325   1.388   .     S
C2081  C2356   1.339   1_455 S
C2081  H2399   1.086   1_455 S
C2082  C2091   1.409   .     A
C2082  C2114   1.483   .     S
C2082  C2089   1.420   .     A
C2083  C2086   1.461   .     S
C2083  C1256   1.353   1_565 S
C2083  O1360   1.395   1_565 S
C2084  C2085   1.426   .     S
C2085  O2190   1.272   .     A
C2085  O2203   1.272   .     A
C2086  O2204   1.270   .     A
C2086  O2198   1.260   .     A
C2087  O2180   1.270   .     A
C2087  C2090   1.454   .     S
C2087  O2182   1.277   .     A
C2088  C2089   1.487   .     S
C2088  O2183   1.293   .     A
C2088  O2181   1.279   .     A
C2089  C2093   1.406   .     A
C2091  C2115   1.413   .     A
C2091  O2194   1.386   .     S
C2092  H2167   1.115   .     S
C2092  O2184   1.413   .     S
C2092  C2094   1.527   .     S
C2092  H2175   1.114   .     S
C2093  C2104   1.417   .     A
C2093  O2197   1.388   .     S
C2094  H2177   1.111   .     S
C2094  H2176   1.112   .     S
C2094  C1267   1.528   1_565 S
C2095  H2124   1.110   .     S
C2095  H2125   1.111   .     S
C2095  H2178   1.111   .     S
C2096  O2185   1.223   .     D
C2096  O2186   1.398   .     S
C2097  O2187   1.412   .     S
C2097  H2127   1.115   .     S
C2097  H2128   1.114   .     S
C2097  C2098   1.530   .     S
C2098  H2130   1.112   .     S
C2098  H2129   1.112   .     S
C2098  C2099   1.526   .     S
C2099  H2133   1.109   .     S
C2099  H2131   1.110   .     S
C2099  H2132   1.109   .     S
C2100  C2101   1.530   .     S
C2100  O2188   1.420   .     S
C2101  H2137   1.111   .     S
C2101  H2138   1.111   .     S
C2101  C2102   1.527   .     S
C2102  H2140   1.110   .     S
C2102  H2139   1.111   .     S
C2102  H2279   1.110   .     S
C2103  O2191   1.398   .     S
C2103  C1256   1.484   1_565 S
C2103  O1361   1.223   1_565 S
C2104  C2115   1.417   .     A
C2104  C2119   1.424   .     A
C2105  H2144   1.116   .     S
C2105  C2106   1.528   .     S
C2105  H2143   1.110   .     S
C2105  O2192   1.411   .     S
C2106  C2107   1.526   .     S
C2106  H2147   1.111   .     S
C2106  H2146   1.110   .     S
C2107  H2149   1.110   .     S
C2107  H2150   1.110   .     S
C2107  H2148   1.111   .     S
C2108  O2193   1.417   .     S
C2108  H2152   1.117   .     S
C2108  C2109   1.532   .     S
C2108  H2151   1.111   .     S
C2109  H2154   1.110   .     S
C2109  H2153   1.112   .     S
C2109  C2248   1.526   .     S
C2110  H2157   1.111   .     S
C2110  H2155   1.111   .     S
C2110  H2158   1.111   .     S
C2110  C2385   1.526   1_455 S
C2111  H2160   1.119   .     S
C2111  O2194   1.417   .     S
C2111  C2388   1.527   1_455 S
C2111  H917    1.112   1_556 S
C2112  C2113   1.521   .     S
C2112  H2162   1.111   .     S
C2112  C2249   1.527   .     S
C2112  H919    1.112   1_556 S
C2113  H2164   1.109   .     S
C2113  H2163   1.110   .     S
C2113  H923    1.109   1_556 S
C2114  O2196   1.398   .     S
C2114  O2195   1.223   .     D
C2115  C880    1.410   1_556 S
C2116  H2169   1.116   .     S
C2116  C2117   1.533   .     S
C2116  H2168   1.110   .     S
C2116  O2197   1.418   .     S
C2117  H2171   1.110   .     S
C2117  C2118   1.527   .     S
C2117  H2170   1.112   .     S
C2118  H2174   1.110   .     S
C2118  H2173   1.111   .     S
C2118  H2172   1.111   .     S
C2119  C878    1.416   1_556 S
C2120  C2121   1.409   .     A
C2121  H2145   1.077   .     S
C2121  C2122   1.391   .     A
C2122  O2184   1.383   .     S
H2123  C2219   1.086   .     S
H2126  O116    1.014   1_566 S
H2135  C1272   1.111   1_565 S
H2136  C1272   1.114   1_565 S
H2141  C2378   1.110   1_455 S
H2142  O2191   1.014   .     S
H2166  O2196   1.013   .     S
O2179  Zn2205  1.970   .     S
O2179  Zn2207  1.936   .     S
O2179  Zn2206  1.935   .     S
O2179  Zn2208  1.917   .     S
O2180  Zn2206  1.924   .     S
O2181  Zn2208  1.938   .     S
O2182  Zn2207  1.923   .     S
O2183  Zn2205  1.911   .     S
O2187  C2356   1.388   1_455 S
O2190  Zn2205  1.931   .     S
O2198  Zn2208  1.942   .     S
O2199  Zn2206  1.918   .     S
O2200  Zn2207  1.934   .     S
O2201  Zn2208  1.927   .     S
O2202  Zn2205  1.917   .     S
O2203  Zn2206  1.948   .     S
O2204  Zn2207  1.933   .     S
C2209  C2219   1.436   .     S
C2209  O2337   1.266   .     A
C2209  O2339   1.261   .     A
C2210  C2257   1.406   .     A
C2210  C2211   1.390   .     A
C2210  H2294   1.079   .     S
C2211  O2331   1.384   .     S
C2211  C971    1.416   1_556 S
C2212  O2340   1.285   .     A
C2212  O2338   1.285   .     A
C2212  C2218   1.460   .     S
C2213  C2215   1.425   .     A
C2213  C2214   1.431   .     A
C2214  C2258   1.427   .     A
C2214  C2217   1.423   .     A
C2215  C2216   1.395   .     A
C2215  C2234   1.481   .     S
C2216  C2228   1.390   .     A
C2216  H2272   1.085   .     S
C2217  C2228   1.394   .     A
C2217  O2330   1.385   .     S
C2218  C2357   1.339   .     S
C2218  O2463   1.388   .     S
C2220  C2229   1.409   .     A
C2220  C2252   1.483   .     S
C2220  C2227   1.420   .     A
C2221  C2224   1.461   .     S
C2221  C1394   1.353   1_565 S
C2221  O1498   1.395   1_565 S
C2222  C2223   1.426   .     S
C2223  O2328   1.272   .     A
C2223  O2341   1.272   .     A
C2224  O2342   1.270   .     A
C2224  O2336   1.260   .     A
C2225  O2318   1.270   .     A
C2225  C2228   1.454   .     S
C2225  O2320   1.277   .     A
C2226  C2227   1.487   .     S
C2226  O2321   1.293   .     A
C2226  O2319   1.279   .     A
C2227  C2231   1.406   .     A
C2229  C2253   1.413   .     A
C2229  O2332   1.386   .     S
C2230  H2305   1.115   .     S
C2230  O2322   1.413   .     S
C2230  C2232   1.527   .     S
C2230  H2313   1.114   .     S
C2231  C2242   1.417   .     A
C2231  O2335   1.388   .     S
C2232  H2315   1.111   .     S
C2232  H2314   1.112   .     S
C2232  C1405   1.528   1_565 S
C2233  H2262   1.110   .     S
C2233  H2263   1.111   .     S
C2233  H2316   1.111   .     S
C2234  O2323   1.223   .     D
C2234  O2324   1.398   .     S
C2235  O2325   1.412   .     S
C2235  H2265   1.115   .     S
C2235  H2266   1.114   .     S
C2235  C2236   1.530   .     S
C2236  H2268   1.112   .     S
C2236  H2267   1.112   .     S
C2236  C2237   1.526   .     S
C2237  H2271   1.109   .     S
C2237  H2269   1.110   .     S
C2237  H2270   1.109   .     S
C2238  C2239   1.530   .     S
C2238  O2326   1.420   .     S
C2239  H2275   1.111   .     S
C2239  H2276   1.111   .     S
C2239  C2240   1.527   .     S
C2240  H2278   1.110   .     S
C2240  H2277   1.111   .     S
C2240  H2417   1.110   .     S
C2241  O2329   1.398   .     S
C2241  C1394   1.484   1_565 S
C2241  O1499   1.223   1_565 S
C2242  C2253   1.417   .     A
C2242  C2257   1.424   .     A
C2243  H2282   1.116   .     S
C2243  C2244   1.528   .     S
C2243  H2281   1.110   .     S
C2243  O2330   1.411   .     S
C2244  C2245   1.526   .     S
C2244  H2285   1.111   .     S
C2244  H2284   1.110   .     S
C2245  H2287   1.110   .     S
C2245  H2288   1.110   .     S
C2245  H2286   1.111   .     S
C2246  O2331   1.417   .     S
C2246  H2290   1.117   .     S
C2246  C2247   1.532   .     S
C2246  H2289   1.111   .     S
C2247  H2292   1.110   .     S
C2247  H2291   1.112   .     S
C2247  C2386   1.526   .     S
C2248  H2295   1.111   .     S
C2248  H2293   1.111   .     S
C2248  H2296   1.111   .     S
C2249  H2298   1.119   .     S
C2249  O2332   1.417   .     S
C2249  H1055   1.112   1_556 S
C2250  C2251   1.521   .     S
C2250  H2300   1.111   .     S
C2250  C2387   1.527   .     S
C2250  H1057   1.112   1_556 S
C2251  H2302   1.109   .     S
C2251  H2301   1.110   .     S
C2251  H1061   1.109   1_556 S
C2252  O2334   1.398   .     S
C2252  O2333   1.223   .     D
C2253  C1018   1.410   1_556 S
C2254  H2307   1.116   .     S
C2254  C2255   1.533   .     S
C2254  H2306   1.110   .     S
C2254  O2335   1.418   .     S
C2255  H2309   1.110   .     S
C2255  C2256   1.527   .     S
C2255  H2308   1.112   .     S
C2256  H2312   1.110   .     S
C2256  H2311   1.111   .     S
C2256  H2310   1.111   .     S
C2257  C1016   1.416   1_556 S
C2258  C2259   1.409   .     A
C2259  H2283   1.077   .     S
C2259  C2260   1.391   .     A
C2260  O2322   1.383   .     S
H2261  C2357   1.086   .     S
H2264  O254    1.014   1_566 S
H2273  C1410   1.111   1_565 S
H2274  C1410   1.114   1_565 S
H2280  O2329   1.014   .     S
H2304  O2334   1.013   .     S
O2317  Zn2343  1.970   .     S
O2317  Zn2345  1.936   .     S
O2317  Zn2344  1.935   .     S
O2317  Zn2346  1.917   .     S
O2318  Zn2344  1.924   .     S
O2319  Zn2346  1.938   .     S
O2320  Zn2345  1.923   .     S
O2321  Zn2343  1.911   .     S
O2328  Zn2343  1.931   .     S
O2336  Zn2346  1.942   .     S
O2337  Zn2344  1.918   .     S
O2338  Zn2345  1.934   .     S
O2339  Zn2346  1.927   .     S
O2340  Zn2343  1.917   .     S
O2341  Zn2344  1.948   .     S
O2342  Zn2345  1.933   .     S
C2347  C2357   1.436   .     S
C2347  O2475   1.266   .     A
C2347  O2477   1.261   .     A
C2348  C2395   1.406   .     A
C2348  C2349   1.390   .     A
C2348  H2432   1.079   .     S
C2349  O2469   1.384   .     S
C2349  C1109   1.416   1_556 S
C2350  O2478   1.285   .     A
C2350  O2476   1.285   .     A
C2350  C2356   1.460   .     S
C2351  C2353   1.425   .     A
C2351  C2352   1.431   .     A
C2352  C2396   1.427   .     A
C2352  C2355   1.423   .     A
C2353  C2354   1.395   .     A
C2353  C2372   1.481   .     S
C2354  C2366   1.390   .     A
C2354  H2410   1.085   .     S
C2355  C2366   1.394   .     A
C2355  O2468   1.385   .     S
C2356  C2081   1.339   1_655 S
C2356  O2187   1.388   1_655 S
C2358  C2367   1.409   .     A
C2358  C2390   1.483   .     S
C2358  C2365   1.420   .     A
C2359  C2362   1.461   .     S
C2359  C1532   1.353   1_565 S
C2359  O1636   1.395   1_565 S
C2360  C2361   1.426   .     S
C2361  O2466   1.272   .     A
C2361  O2479   1.272   .     A
C2362  O2480   1.270   .     A
C2362  O2474   1.260   .     A
C2363  O2456   1.270   .     A
C2363  C2366   1.454   .     S
C2363  O2458   1.277   .     A
C2364  C2365   1.487   .     S
C2364  O2459   1.293   .     A
C2364  O2457   1.279   .     A
C2365  C2369   1.406   .     A
C2367  C2391   1.413   .     A
C2367  O2470   1.386   .     S
C2368  H2443   1.115   .     S
C2368  O2460   1.413   .     S
C2368  C2370   1.527   .     S
C2368  H2451   1.114   .     S
C2369  C2380   1.417   .     A
C2369  O2473   1.388   .     S
C2370  H2453   1.111   .     S
C2370  H2452   1.112   .     S
C2370  C1543   1.528   1_565 S
C2371  H2400   1.110   .     S
C2371  H2401   1.111   .     S
C2371  H2454   1.111   .     S
C2372  O2461   1.223   .     D
C2372  O2462   1.398   .     S
C2373  O2463   1.412   .     S
C2373  H2403   1.115   .     S
C2373  H2404   1.114   .     S
C2373  C2374   1.530   .     S
C2374  H2406   1.112   .     S
C2374  H2405   1.112   .     S
C2374  C2375   1.526   .     S
C2375  H2409   1.109   .     S
C2375  H2407   1.110   .     S
C2375  H2408   1.109   .     S
C2376  C2377   1.530   .     S
C2376  O2464   1.420   .     S
C2377  H2413   1.111   .     S
C2377  H2414   1.111   .     S
C2377  C2378   1.527   .     S
C2378  H2416   1.110   .     S
C2378  H2415   1.111   .     S
C2378  H2141   1.110   1_655 S
C2379  O2467   1.398   .     S
C2379  C1532   1.484   1_565 S
C2379  O1637   1.223   1_565 S
C2380  C2391   1.417   .     A
C2380  C2395   1.424   .     A
C2381  H2420   1.116   .     S
C2381  C2382   1.528   .     S
C2381  H2419   1.110   .     S
C2381  O2468   1.411   .     S
C2382  C2383   1.526   .     S
C2382  H2423   1.111   .     S
C2382  H2422   1.110   .     S
C2383  H2425   1.110   .     S
C2383  H2426   1.110   .     S
C2383  H2424   1.111   .     S
C2384  O2469   1.417   .     S
C2384  H2428   1.117   .     S
C2384  C2385   1.532   .     S
C2384  H2427   1.111   .     S
C2385  H2430   1.110   .     S
C2385  H2429   1.112   .     S
C2385  C2110   1.526   1_655 S
C2386  H2433   1.111   .     S
C2386  H2431   1.111   .     S
C2386  H2434   1.111   .     S
C2387  H2436   1.119   .     S
C2387  O2470   1.417   .     S
C2387  H1193   1.112   1_556 S
C2388  C2389   1.521   .     S
C2388  H2438   1.111   .     S
C2388  C2111   1.527   1_655 S
C2388  H1195   1.112   1_556 S
C2389  H2440   1.109   .     S
C2389  H2439   1.110   .     S
C2389  H1199   1.109   1_556 S
C2390  O2472   1.398   .     S
C2390  O2471   1.223   .     D
C2391  C1156   1.410   1_556 S
C2392  H2445   1.116   .     S
C2392  C2393   1.533   .     S
C2392  H2444   1.110   .     S
C2392  O2473   1.418   .     S
C2393  H2447   1.110   .     S
C2393  C2394   1.527   .     S
C2393  H2446   1.112   .     S
C2394  H2450   1.110   .     S
C2394  H2449   1.111   .     S
C2394  H2448   1.111   .     S
C2395  C1154   1.416   1_556 S
C2396  C2397   1.409   .     A
C2397  H2421   1.077   .     S
C2397  C2398   1.391   .     A
C2398  O2460   1.383   .     S
H2399  C2081   1.086   1_655 S
H2402  O392    1.014   1_566 S
H2411  C1548   1.111   1_565 S
H2412  C1548   1.114   1_565 S
H2418  O2467   1.014   .     S
H2442  O2472   1.013   .     S
O2455  Zn2481  1.970   .     S
O2455  Zn2483  1.936   .     S
O2455  Zn2482  1.935   .     S
O2455  Zn2484  1.917   .     S
O2456  Zn2482  1.924   .     S
O2457  Zn2484  1.938   .     S
O2458  Zn2483  1.923   .     S
O2459  Zn2481  1.911   .     S
O2466  Zn2481  1.931   .     S
O2474  Zn2484  1.942   .     S
O2475  Zn2482  1.918   .     S
O2476  Zn2483  1.934   .     S
O2477  Zn2484  1.927   .     S
O2478  Zn2481  1.917   .     S
O2479  Zn2482  1.948   .     S
O2480  Zn2483  1.933   .     S
