data_str_m1_o1_o17_pcu_sym.12
_audit_creation_date              2020-01-03
_audit_creation_method            'Materials Studio'
_symmetry_space_group_name_H-M    'P1'
_symmetry_Int_Tables_number       1
_symmetry_cell_setting            triclinic
loop_
_symmetry_equiv_pos_as_xyz
  x,y,z
_cell_length_a                    36.6803
_cell_length_b                    36.6804
_cell_length_c                    34.4479
_cell_angle_alpha                 90.0001
_cell_angle_beta                  90.0001
_cell_angle_gamma                 89.9886
loop_
_atom_site_label
_atom_site_type_symbol
_atom_site_fract_x
_atom_site_fract_y
_atom_site_fract_z
_atom_site_U_iso_or_equiv
_atom_site_adp_type
_atom_site_occupancy
Zn1    Zn    0.20659   0.00000   0.21735   0.00000  Uiso   1.00
Zn2    Zn    0.29340   0.00000   0.78265   0.00000  Uiso   1.00
Zn3    Zn    0.00000   0.20660   0.21735   0.00000  Uiso   1.00
Zn4    Zn    0.00000   0.29341   0.78265   0.00000  Uiso   1.00
Zn5    Zn    0.29340   0.00000   0.21735   0.00000  Uiso   1.00
Zn6    Zn    0.20659   0.00000   0.78265   0.00000  Uiso   1.00
Zn7    Zn   -0.00000   0.29341   0.21735   0.00000  Uiso   1.00
Zn8    Zn   -0.00000   0.20660   0.78265   0.00000  Uiso   1.00
Zn9    Zn    0.45659   0.25000   0.71735   0.00000  Uiso   1.00
Zn10   Zn    0.04340   0.25000   0.28265   0.00000  Uiso   1.00
Zn11   Zn    0.25000   0.45660   0.71735   0.00000  Uiso   1.00
Zn12   Zn    0.25000   0.04341   0.28265   0.00000  Uiso   1.00
Zn13   Zn    0.04340   0.25000   0.71735   0.00000  Uiso   1.00
Zn14   Zn    0.45659   0.25000   0.28265   0.00000  Uiso   1.00
Zn15   Zn    0.25000   0.04341   0.71735   0.00000  Uiso   1.00
Zn16   Zn    0.25000   0.45660   0.28265   0.00000  Uiso   1.00
C17    C     0.48889   0.28174   0.41789   0.00000  Uiso   1.00
C18    C     0.01111   0.21826   0.58210   0.00000  Uiso   1.00
C19    C     0.21827   0.01112   0.41789   0.00000  Uiso   1.00
C20    C     0.28173   0.48888   0.58210   0.00000  Uiso   1.00
C21    C     0.01111   0.21826   0.41789   0.00000  Uiso   1.00
C22    C     0.48889   0.28174   0.58210   0.00000  Uiso   1.00
C23    C     0.28173   0.48888   0.41789   0.00000  Uiso   1.00
C24    C     0.21827   0.01112   0.58210   0.00000  Uiso   1.00
C25    C     0.23889   0.03174   0.91789   0.00000  Uiso   1.00
C26    C     0.26111   0.46827   0.08210   0.00000  Uiso   1.00
C27    C     0.46827   0.26113   0.91789   0.00000  Uiso   1.00
C28    C     0.03173   0.23887   0.08210   0.00000  Uiso   1.00
C29    C     0.26111   0.46827   0.91789   0.00000  Uiso   1.00
C30    C     0.23889   0.03174   0.08210   0.00000  Uiso   1.00
C31    C     0.03173   0.23887   0.91789   0.00000  Uiso   1.00
C32    C     0.46827   0.26113   0.08210   0.00000  Uiso   1.00
C33    C     0.00000   0.25000   0.39785   0.00000  Uiso   1.00
C34    C    -0.00000   0.25000   0.60215   0.00000  Uiso   1.00
C35    C     0.25000   0.00000   0.39785   0.00000  Uiso   1.00
C36    C     0.25000   0.00000   0.60215   0.00000  Uiso   1.00
C37    C     0.25000   0.00000   0.89785   0.00000  Uiso   1.00
C38    C     0.25000   0.00000   0.10215   0.00000  Uiso   1.00
C39    C    -0.00000   0.25000   0.89785   0.00000  Uiso   1.00
C40    C    -0.00000   0.25000   0.10215   0.00000  Uiso   1.00
O41    O     0.25000   0.00000   0.25000   0.00000  Uiso   1.00
O42    O     0.25000   0.00000   0.75000   0.00000  Uiso   1.00
O43    O     0.00000   0.25000   0.25000   0.00000  Uiso   1.00
O44    O     0.00000   0.25000   0.75000   0.00000  Uiso   1.00
O45    O     0.25000   0.46964   0.33755   0.00000  Uiso   1.00
O46    O     0.25000   0.03037   0.66245   0.00000  Uiso   1.00
O47    O     0.03036   0.25000   0.33755   0.00000  Uiso   1.00
O48    O     0.46963   0.25000   0.66245   0.00000  Uiso   1.00
O49    O     0.25000   0.03037   0.33755   0.00000  Uiso   1.00
O50    O     0.25000   0.46964   0.66245   0.00000  Uiso   1.00
O51    O     0.46963   0.25000   0.33755   0.00000  Uiso   1.00
O52    O     0.03036   0.25000   0.66245   0.00000  Uiso   1.00
O53    O     0.00000   0.21964   0.83755   0.00000  Uiso   1.00
O54    O    -0.00000   0.28037   0.16245   0.00000  Uiso   1.00
O55    O     0.28036   0.00000   0.83755   0.00000  Uiso   1.00
O56    O     0.21963   0.00000   0.16245   0.00000  Uiso   1.00
O57    O    -0.00000   0.28037   0.83755   0.00000  Uiso   1.00
O58    O    -0.00000   0.21964   0.16245   0.00000  Uiso   1.00
O59    O     0.21963   0.00000   0.83755   0.00000  Uiso   1.00
O60    O     0.28036   0.00000   0.16245   0.00000  Uiso   1.00
H61    H     0.03353   0.16367   0.46581   0.00000  Uiso   1.00
H62    H     0.46646   0.33633   0.53419   0.00000  Uiso   1.00
H63    H     0.33632   0.46645   0.46581   0.00000  Uiso   1.00
H64    H     0.16368   0.03355   0.53419   0.00000  Uiso   1.00
H65    H     0.46646   0.33633   0.46581   0.00000  Uiso   1.00
H66    H     0.03353   0.16367   0.53419   0.00000  Uiso   1.00
H67    H     0.16368   0.03355   0.46581   0.00000  Uiso   1.00
H68    H     0.33632   0.46645   0.53419   0.00000  Uiso   1.00
H69    H     0.28354   0.41367   0.96581   0.00000  Uiso   1.00
H70    H     0.21646   0.08633   0.03419   0.00000  Uiso   1.00
H71    H     0.08631   0.21641   0.96581   0.00000  Uiso   1.00
H72    H     0.41369   0.28359   0.03419   0.00000  Uiso   1.00
H73    H     0.21646   0.08633   0.96581   0.00000  Uiso   1.00
H74    H     0.28354   0.41367   0.03419   0.00000  Uiso   1.00
H75    H     0.41369   0.28359   0.96581   0.00000  Uiso   1.00
H76    H     0.08631   0.21641   0.03419   0.00000  Uiso   1.00
O77    O     0.20724   0.07308   0.27302   0.00000  Uiso   1.00
O78    O     0.29275   0.42693   0.72698   0.00000  Uiso   1.00
O79    O     0.42692   0.20725   0.27302   0.00000  Uiso   1.00
O80    O     0.07307   0.29276   0.72698   0.00000  Uiso   1.00
O81    O     0.29275   0.42693   0.27302   0.00000  Uiso   1.00
O82    O     0.20724   0.07308   0.72698   0.00000  Uiso   1.00
O83    O     0.07307   0.29276   0.27302   0.00000  Uiso   1.00
O84    O     0.42692   0.20725   0.72698   0.00000  Uiso   1.00
O85    O     0.20724   0.42693   0.72698   0.00000  Uiso   1.00
O86    O     0.29275   0.07308   0.27302   0.00000  Uiso   1.00
O87    O     0.42692   0.29276   0.72698   0.00000  Uiso   1.00
O88    O     0.07307   0.20725   0.27302   0.00000  Uiso   1.00
O89    O     0.29275   0.07308   0.72698   0.00000  Uiso   1.00
O90    O     0.20724   0.42693   0.27302   0.00000  Uiso   1.00
O91    O     0.07307   0.20725   0.72698   0.00000  Uiso   1.00
O92    O     0.42692   0.29276   0.27302   0.00000  Uiso   1.00
O93    O     0.45724   0.32308   0.77302   0.00000  Uiso   1.00
O94    O     0.04275   0.17693   0.22698   0.00000  Uiso   1.00
O95    O     0.17692   0.45725   0.77302   0.00000  Uiso   1.00
O96    O     0.32307   0.04276   0.22698   0.00000  Uiso   1.00
O97    O     0.04275   0.17693   0.77302   0.00000  Uiso   1.00
O98    O     0.45724   0.32308   0.22698   0.00000  Uiso   1.00
O99    O     0.32307   0.04276   0.77302   0.00000  Uiso   1.00
O100   O     0.17692   0.45725   0.22698   0.00000  Uiso   1.00
O101   O     0.45724   0.17693   0.22698   0.00000  Uiso   1.00
O102   O     0.04275   0.32308   0.77302   0.00000  Uiso   1.00
O103   O     0.17692   0.04276   0.22698   0.00000  Uiso   1.00
O104   O     0.32307   0.45725   0.77302   0.00000  Uiso   1.00
O105   O     0.04275   0.32308   0.22698   0.00000  Uiso   1.00
O106   O     0.45724   0.17693   0.77302   0.00000  Uiso   1.00
O107   O     0.32307   0.45725   0.22698   0.00000  Uiso   1.00
O108   O     0.17692   0.04276   0.77302   0.00000  Uiso   1.00
C109   C     0.02380   0.18812   0.47993   0.00000  Uiso   1.00
C110   C     0.47620   0.31188   0.52007   0.00000  Uiso   1.00
C111   C     0.31187   0.47619   0.47993   0.00000  Uiso   1.00
C112   C     0.18813   0.02381   0.52007   0.00000  Uiso   1.00
C113   C     0.47620   0.31188   0.47993   0.00000  Uiso   1.00
C114   C     0.02380   0.18812   0.52007   0.00000  Uiso   1.00
C115   C     0.18813   0.02381   0.47993   0.00000  Uiso   1.00
C116   C     0.31187   0.47619   0.52007   0.00000  Uiso   1.00
C117   C     0.27380   0.43813   0.97993   0.00000  Uiso   1.00
C118   C     0.22620   0.06188   0.02007   0.00000  Uiso   1.00
C119   C     0.06186   0.22616   0.97993   0.00000  Uiso   1.00
C120   C     0.43814   0.27384   0.02007   0.00000  Uiso   1.00
C121   C     0.22620   0.06188   0.97993   0.00000  Uiso   1.00
C122   C     0.27380   0.43813   0.02007   0.00000  Uiso   1.00
C123   C     0.43814   0.27384   0.97993   0.00000  Uiso   1.00
C124   C     0.06186   0.22616   0.02007   0.00000  Uiso   1.00
C125   C     0.25000   0.00000   0.35567   0.00000  Uiso   1.00
C126   C     0.25000   0.00000   0.64433   0.00000  Uiso   1.00
C127   C     0.00000   0.25000   0.35567   0.00000  Uiso   1.00
C128   C    -0.00000   0.25000   0.64433   0.00000  Uiso   1.00
C129   C    -0.00000   0.25000   0.85566   0.00000  Uiso   1.00
C130   C    -0.00000   0.25000   0.14433   0.00000  Uiso   1.00
C131   C     0.25000   0.00000   0.85566   0.00000  Uiso   1.00
C132   C     0.25000   0.00000   0.14433   0.00000  Uiso   1.00
C133   C     0.17994   0.07006   0.25000   0.00000  Uiso   1.00
C134   C     0.32006   0.42994   0.75000   0.00000  Uiso   1.00
C135   C     0.42994   0.17994   0.25000   0.00000  Uiso   1.00
C136   C     0.07006   0.32006   0.75000   0.00000  Uiso   1.00
C137   C     0.32006   0.42994   0.25000   0.00000  Uiso   1.00
C138   C     0.17994   0.07006   0.75000   0.00000  Uiso   1.00
C139   C     0.07006   0.32006   0.25000   0.00000  Uiso   1.00
C140   C     0.42994   0.17994   0.75000   0.00000  Uiso   1.00
C141   C     0.17994   0.42994   0.75000   0.00000  Uiso   1.00
C142   C     0.32006   0.07006   0.25000   0.00000  Uiso   1.00
C143   C     0.42994   0.32006   0.75000   0.00000  Uiso   1.00
C144   C     0.07006   0.17994   0.25000   0.00000  Uiso   1.00
C145   C     0.32006   0.07006   0.75000   0.00000  Uiso   1.00
C146   C     0.17994   0.42994   0.25000   0.00000  Uiso   1.00
C147   C     0.07006   0.17994   0.75000   0.00000  Uiso   1.00
C148   C     0.42994   0.32006   0.25000   0.00000  Uiso   1.00
C149   C     0.12192   0.40480   0.22490   0.00000  Uiso   1.00
C150   C     0.37808   0.09520   0.77509   0.00000  Uiso   1.00
C151   C     0.09559   0.12231   0.22434   0.00000  Uiso   1.00
C152   C     0.40441   0.37769   0.77566   0.00000  Uiso   1.00
C153   C     0.37808   0.09520   0.22490   0.00000  Uiso   1.00
C154   C     0.12192   0.40480   0.77509   0.00000  Uiso   1.00
C155   C     0.40441   0.37769   0.22434   0.00000  Uiso   1.00
C156   C     0.09559   0.12231   0.77566   0.00000  Uiso   1.00
C157   C     0.12231   0.09559   0.77566   0.00000  Uiso   1.00
C158   C     0.37769   0.40441   0.22434   0.00000  Uiso   1.00
C159   C     0.09520   0.37808   0.77509   0.00000  Uiso   1.00
C160   C     0.40480   0.12192   0.22490   0.00000  Uiso   1.00
C161   C     0.37769   0.40441   0.77566   0.00000  Uiso   1.00
C162   C     0.12231   0.09559   0.22434   0.00000  Uiso   1.00
C163   C     0.40480   0.12192   0.77509   0.00000  Uiso   1.00
C164   C     0.09520   0.37808   0.22490   0.00000  Uiso   1.00
C165   C     0.37192   0.15480   0.72490   0.00000  Uiso   1.00
C166   C     0.12808   0.34520   0.27509   0.00000  Uiso   1.00
C167   C     0.34559   0.37231   0.72434   0.00000  Uiso   1.00
C168   C     0.15441   0.12769   0.27566   0.00000  Uiso   1.00
C169   C     0.12808   0.34520   0.72490   0.00000  Uiso   1.00
C170   C     0.37192   0.15480   0.27509   0.00000  Uiso   1.00
C171   C     0.15441   0.12769   0.72434   0.00000  Uiso   1.00
C172   C     0.34559   0.37231   0.27566   0.00000  Uiso   1.00
C173   C     0.37231   0.34559   0.27566   0.00000  Uiso   1.00
C174   C     0.12769   0.15441   0.72434   0.00000  Uiso   1.00
C175   C     0.34520   0.12808   0.27509   0.00000  Uiso   1.00
C176   C     0.15480   0.37192   0.72490   0.00000  Uiso   1.00
C177   C     0.12769   0.15441   0.27566   0.00000  Uiso   1.00
C178   C     0.37231   0.34559   0.72434   0.00000  Uiso   1.00
C179   C     0.15480   0.37192   0.27509   0.00000  Uiso   1.00
C180   C     0.34520   0.12808   0.72490   0.00000  Uiso   1.00
H181   H     0.11911   0.42770   0.20527   0.00000  Uiso   1.00
H182   H     0.38089   0.07231   0.79473   0.00000  Uiso   1.00
H183   H     0.07301   0.11982   0.20426   0.00000  Uiso   1.00
H184   H     0.42699   0.38018   0.79574   0.00000  Uiso   1.00
H185   H     0.38089   0.07231   0.20527   0.00000  Uiso   1.00
H186   H     0.11911   0.42770   0.79473   0.00000  Uiso   1.00
H187   H     0.42699   0.38018   0.20426   0.00000  Uiso   1.00
H188   H     0.07301   0.11982   0.79574   0.00000  Uiso   1.00
H189   H     0.11982   0.07301   0.79574   0.00000  Uiso   1.00
H190   H     0.38018   0.42699   0.20426   0.00000  Uiso   1.00
H191   H     0.07230   0.38089   0.79473   0.00000  Uiso   1.00
H192   H     0.42769   0.11911   0.20527   0.00000  Uiso   1.00
H193   H     0.38018   0.42699   0.79574   0.00000  Uiso   1.00
H194   H     0.11982   0.07301   0.20426   0.00000  Uiso   1.00
H195   H     0.42769   0.11911   0.79473   0.00000  Uiso   1.00
H196   H     0.07230   0.38089   0.20527   0.00000  Uiso   1.00
H197   H     0.36911   0.17769   0.70527   0.00000  Uiso   1.00
H198   H     0.13089   0.32231   0.29473   0.00000  Uiso   1.00
H199   H     0.32301   0.36982   0.70426   0.00000  Uiso   1.00
H200   H     0.17699   0.13018   0.29574   0.00000  Uiso   1.00
H201   H     0.13089   0.32231   0.70527   0.00000  Uiso   1.00
H202   H     0.36911   0.17770   0.29473   0.00000  Uiso   1.00
H203   H     0.17699   0.13018   0.70426   0.00000  Uiso   1.00
H204   H     0.32301   0.36982   0.29574   0.00000  Uiso   1.00
H205   H     0.36982   0.32301   0.29574   0.00000  Uiso   1.00
H206   H     0.13018   0.17699   0.70426   0.00000  Uiso   1.00
H207   H     0.32230   0.13089   0.29473   0.00000  Uiso   1.00
H208   H     0.17769   0.36911   0.70527   0.00000  Uiso   1.00
H209   H     0.13018   0.17699   0.29574   0.00000  Uiso   1.00
H210   H     0.36982   0.32301   0.70426   0.00000  Uiso   1.00
H211   H     0.17769   0.36911   0.29473   0.00000  Uiso   1.00
H212   H     0.32230   0.13089   0.70527   0.00000  Uiso   1.00
C213   C     0.01176   0.21864   0.45887   0.00000  Uiso   1.00
C214   C     0.48824   0.28136   0.54113   0.00000  Uiso   1.00
C215   C     0.28135   0.48823   0.45887   0.00000  Uiso   1.00
C216   C     0.21864   0.01177   0.54113   0.00000  Uiso   1.00
C217   C     0.48824   0.28136   0.45887   0.00000  Uiso   1.00
C218   C     0.01176   0.21864   0.54113   0.00000  Uiso   1.00
C219   C     0.21864   0.01177   0.45887   0.00000  Uiso   1.00
C220   C     0.28135   0.48823   0.54113   0.00000  Uiso   1.00
C221   C     0.26176   0.46864   0.95887   0.00000  Uiso   1.00
C222   C     0.23824   0.03136   0.04113   0.00000  Uiso   1.00
C223   C     0.03135   0.23822   0.95887   0.00000  Uiso   1.00
C224   C     0.46865   0.26178   0.04113   0.00000  Uiso   1.00
C225   C     0.23824   0.03136   0.95887   0.00000  Uiso   1.00
C226   C     0.26176   0.46864   0.04113   0.00000  Uiso   1.00
C227   C     0.46865   0.26178   0.95887   0.00000  Uiso   1.00
C228   C     0.03135   0.23822   0.04113   0.00000  Uiso   1.00
C229   C     0.09813   0.34813   0.25000   0.00000  Uiso   1.00
C230   C     0.40187   0.15187   0.75000   0.00000  Uiso   1.00
C231   C     0.15187   0.09813   0.25000   0.00000  Uiso   1.00
C232   C     0.34813   0.40187   0.75000   0.00000  Uiso   1.00
C233   C     0.40187   0.15187   0.25000   0.00000  Uiso   1.00
C234   C     0.09813   0.34813   0.75000   0.00000  Uiso   1.00
C235   C     0.34813   0.40187   0.25000   0.00000  Uiso   1.00
C236   C     0.15187   0.09813   0.75000   0.00000  Uiso   1.00
C237   C     0.09813   0.15187   0.75000   0.00000  Uiso   1.00
C238   C     0.40187   0.34813   0.25000   0.00000  Uiso   1.00
C239   C     0.15187   0.40187   0.75000   0.00000  Uiso   1.00
C240   C     0.34813   0.09813   0.25000   0.00000  Uiso   1.00
C241   C     0.40187   0.34813   0.75000   0.00000  Uiso   1.00
C242   C     0.09813   0.15187   0.25000   0.00000  Uiso   1.00
C243   C     0.34813   0.09813   0.75000   0.00000  Uiso   1.00
C244   C     0.15187   0.40187   0.25000   0.00000  Uiso   1.00
C245   C     0.00000   0.25000   0.47937   0.00000  Uiso   1.00
C246   C    -0.00000   0.25000   0.52063   0.00000  Uiso   1.00
C247   C     0.25000   0.00000   0.47937   0.00000  Uiso   1.00
C248   C     0.25000   0.00000   0.52063   0.00000  Uiso   1.00
C249   C     0.25000   0.00000   0.97937   0.00000  Uiso   1.00
C250   C     0.25000   0.00000   0.02063   0.00000  Uiso   1.00
C251   C    -0.00000   0.25000   0.97937   0.00000  Uiso   1.00
C252   C    -0.00000   0.25000   0.02063   0.00000  Uiso   1.00
C253   C     0.47846   0.31630   0.39598   0.00000  Uiso   1.00
H254   H     0.48215   0.31471   0.36415   0.00000  Uiso   1.00
H255   H     0.44935   0.32283   0.40144   0.00000  Uiso   1.00
H256   H     0.49582   0.33929   0.40588   0.00000  Uiso   1.00
C257   C     0.02154   0.18370   0.60401   0.00000  Uiso   1.00
H258   H     0.01785   0.18529   0.63585   0.00000  Uiso   1.00
H259   H     0.00418   0.16071   0.59412   0.00000  Uiso   1.00
H260   H     0.05065   0.17717   0.59856   0.00000  Uiso   1.00
C261   C     0.18370   0.02155   0.39598   0.00000  Uiso   1.00
H262   H     0.18529   0.01786   0.36415   0.00000  Uiso   1.00
H263   H     0.16071   0.00419   0.40588   0.00000  Uiso   1.00
H264   H     0.17718   0.05066   0.40143   0.00000  Uiso   1.00
C265   C     0.31630   0.47845   0.60401   0.00000  Uiso   1.00
H266   H     0.31471   0.48214   0.63585   0.00000  Uiso   1.00
H267   H     0.32282   0.44934   0.59856   0.00000  Uiso   1.00
H268   H     0.33929   0.49581   0.59412   0.00000  Uiso   1.00
C269   C     0.02154   0.18370   0.39598   0.00000  Uiso   1.00
H270   H     0.01785   0.18529   0.36414   0.00000  Uiso   1.00
H271   H     0.05065   0.17717   0.40144   0.00000  Uiso   1.00
H272   H     0.00418   0.16071   0.40588   0.00000  Uiso   1.00
C273   C     0.47846   0.31630   0.60401   0.00000  Uiso   1.00
H274   H     0.48215   0.31471   0.63585   0.00000  Uiso   1.00
H275   H     0.49582   0.33929   0.59412   0.00000  Uiso   1.00
H276   H     0.44935   0.32283   0.59856   0.00000  Uiso   1.00
C277   C     0.31630   0.47845   0.39598   0.00000  Uiso   1.00
H278   H     0.31471   0.48214   0.36415   0.00000  Uiso   1.00
H279   H     0.33929   0.49581   0.40588   0.00000  Uiso   1.00
H280   H     0.32282   0.44934   0.40143   0.00000  Uiso   1.00
C281   C     0.18370   0.02155   0.60401   0.00000  Uiso   1.00
H282   H     0.18529   0.01786   0.63585   0.00000  Uiso   1.00
H283   H     0.17718   0.05066   0.59856   0.00000  Uiso   1.00
H284   H     0.16071   0.00419   0.59412   0.00000  Uiso   1.00
C285   C     0.22846   0.06630   0.89598   0.00000  Uiso   1.00
H286   H     0.23214   0.06471   0.86415   0.00000  Uiso   1.00
H287   H     0.19935   0.07283   0.90144   0.00000  Uiso   1.00
H288   H     0.24582   0.08929   0.90588   0.00000  Uiso   1.00
C289   C     0.27154   0.43370   0.10401   0.00000  Uiso   1.00
H290   H     0.26785   0.43529   0.13585   0.00000  Uiso   1.00
H291   H     0.25418   0.41071   0.09412   0.00000  Uiso   1.00
H292   H     0.30065   0.42717   0.09856   0.00000  Uiso   1.00
C293   C     0.43371   0.27157   0.89598   0.00000  Uiso   1.00
H294   H     0.43529   0.26788   0.86415   0.00000  Uiso   1.00
H295   H     0.41071   0.25422   0.90589   0.00000  Uiso   1.00
H296   H     0.42720   0.30068   0.90143   0.00000  Uiso   1.00
C297   C     0.06629   0.22843   0.10401   0.00000  Uiso   1.00
H298   H     0.06470   0.23213   0.13585   0.00000  Uiso   1.00
H299   H     0.07280   0.19932   0.09857   0.00000  Uiso   1.00
H300   H     0.08929   0.24578   0.09411   0.00000  Uiso   1.00
C301   C     0.27154   0.43370   0.89598   0.00000  Uiso   1.00
H302   H     0.26785   0.43529   0.86415   0.00000  Uiso   1.00
H303   H     0.30065   0.42717   0.90144   0.00000  Uiso   1.00
H304   H     0.25418   0.41071   0.90588   0.00000  Uiso   1.00
C305   C     0.22846   0.06630   0.10401   0.00000  Uiso   1.00
H306   H     0.23214   0.06471   0.13585   0.00000  Uiso   1.00
H307   H     0.24582   0.08929   0.09412   0.00000  Uiso   1.00
H308   H     0.19935   0.07283   0.09856   0.00000  Uiso   1.00
C309   C     0.06629   0.22843   0.89598   0.00000  Uiso   1.00
H310   H     0.08929   0.24578   0.90589   0.00000  Uiso   1.00
H311   H     0.07280   0.19932   0.90143   0.00000  Uiso   1.00
H312   H     0.06470   0.23213   0.86415   0.00000  Uiso   1.00
C313   C     0.43371   0.27157   0.10401   0.00000  Uiso   1.00
H314   H     0.41071   0.25422   0.09411   0.00000  Uiso   1.00
H315   H     0.43529   0.26787   0.13585   0.00000  Uiso   1.00
H316   H     0.42720   0.30068   0.09857   0.00000  Uiso   1.00
Zn317  Zn    0.70659   0.00000   0.21735   0.00000  Uiso   1.00
Zn318  Zn    0.79340   0.00000   0.78265   0.00000  Uiso   1.00
Zn319  Zn    0.50000   0.20660   0.21735   0.00000  Uiso   1.00
Zn320  Zn    0.50000   0.29341   0.78265   0.00000  Uiso   1.00
Zn321  Zn    0.79340   0.00000   0.21735   0.00000  Uiso   1.00
Zn322  Zn    0.70659   0.00000   0.78265   0.00000  Uiso   1.00
Zn323  Zn    0.50000   0.29341   0.21735   0.00000  Uiso   1.00
Zn324  Zn    0.50000   0.20660   0.78265   0.00000  Uiso   1.00
Zn325  Zn    0.95659   0.25000   0.71735   0.00000  Uiso   1.00
Zn326  Zn    0.54340   0.25000   0.28265   0.00000  Uiso   1.00
Zn327  Zn    0.75000   0.45660   0.71735   0.00000  Uiso   1.00
Zn328  Zn    0.75000   0.04341   0.28265   0.00000  Uiso   1.00
Zn329  Zn    0.54340   0.25000   0.71735   0.00000  Uiso   1.00
Zn330  Zn    0.95659   0.25000   0.28265   0.00000  Uiso   1.00
Zn331  Zn    0.75000   0.04341   0.71735   0.00000  Uiso   1.00
Zn332  Zn    0.75000   0.45660   0.28265   0.00000  Uiso   1.00
C333   C     0.98889   0.28174   0.41789   0.00000  Uiso   1.00
C334   C     0.51111   0.21826   0.58210   0.00000  Uiso   1.00
C335   C     0.71827   0.01112   0.41789   0.00000  Uiso   1.00
C336   C     0.78173   0.48888   0.58210   0.00000  Uiso   1.00
C337   C     0.51111   0.21826   0.41789   0.00000  Uiso   1.00
C338   C     0.98889   0.28174   0.58210   0.00000  Uiso   1.00
C339   C     0.78173   0.48888   0.41789   0.00000  Uiso   1.00
C340   C     0.71827   0.01112   0.58210   0.00000  Uiso   1.00
C341   C     0.73889   0.03174   0.91789   0.00000  Uiso   1.00
C342   C     0.76111   0.46827   0.08210   0.00000  Uiso   1.00
C343   C     0.96827   0.26113   0.91789   0.00000  Uiso   1.00
C344   C     0.53173   0.23887   0.08210   0.00000  Uiso   1.00
C345   C     0.76111   0.46827   0.91789   0.00000  Uiso   1.00
C346   C     0.73889   0.03174   0.08210   0.00000  Uiso   1.00
C347   C     0.53173   0.23887   0.91789   0.00000  Uiso   1.00
C348   C     0.96827   0.26113   0.08210   0.00000  Uiso   1.00
C349   C     0.50000   0.25000   0.39785   0.00000  Uiso   1.00
C350   C     0.50000   0.25000   0.60215   0.00000  Uiso   1.00
C351   C     0.75000   0.00000   0.39785   0.00000  Uiso   1.00
C352   C     0.75000   0.00000   0.60215   0.00000  Uiso   1.00
C353   C     0.75000   0.00000   0.89785   0.00000  Uiso   1.00
C354   C     0.75000   0.00000   0.10215   0.00000  Uiso   1.00
C355   C     0.50000   0.25000   0.89785   0.00000  Uiso   1.00
C356   C     0.50000   0.25000   0.10215   0.00000  Uiso   1.00
O357   O     0.75000   0.00000   0.25000   0.00000  Uiso   1.00
O358   O     0.75000   0.00000   0.75000   0.00000  Uiso   1.00
O359   O     0.50000   0.25000   0.25000   0.00000  Uiso   1.00
O360   O     0.50000   0.25000   0.75000   0.00000  Uiso   1.00
O361   O     0.75000   0.46964   0.33755   0.00000  Uiso   1.00
O362   O     0.75000   0.03037   0.66245   0.00000  Uiso   1.00
O363   O     0.53036   0.25000   0.33755   0.00000  Uiso   1.00
O364   O     0.96963   0.25000   0.66245   0.00000  Uiso   1.00
O365   O     0.75000   0.03037   0.33755   0.00000  Uiso   1.00
O366   O     0.75000   0.46964   0.66245   0.00000  Uiso   1.00
O367   O     0.96963   0.25000   0.33755   0.00000  Uiso   1.00
O368   O     0.53036   0.25000   0.66245   0.00000  Uiso   1.00
O369   O     0.50000   0.21964   0.83755   0.00000  Uiso   1.00
O370   O     0.50000   0.28037   0.16245   0.00000  Uiso   1.00
O371   O     0.78036   0.00000   0.83755   0.00000  Uiso   1.00
O372   O     0.71963   0.00000   0.16245   0.00000  Uiso   1.00
O373   O     0.50000   0.28037   0.83755   0.00000  Uiso   1.00
O374   O     0.50000   0.21964   0.16245   0.00000  Uiso   1.00
O375   O     0.71963   0.00000   0.83755   0.00000  Uiso   1.00
O376   O     0.78036   0.00000   0.16245   0.00000  Uiso   1.00
H377   H     0.53353   0.16367   0.46581   0.00000  Uiso   1.00
H378   H     0.96646   0.33633   0.53419   0.00000  Uiso   1.00
H379   H     0.83632   0.46645   0.46581   0.00000  Uiso   1.00
H380   H     0.66368   0.03355   0.53419   0.00000  Uiso   1.00
H381   H     0.96646   0.33633   0.46581   0.00000  Uiso   1.00
H382   H     0.53353   0.16367   0.53419   0.00000  Uiso   1.00
H383   H     0.66368   0.03355   0.46581   0.00000  Uiso   1.00
H384   H     0.83632   0.46645   0.53419   0.00000  Uiso   1.00
H385   H     0.78354   0.41367   0.96581   0.00000  Uiso   1.00
H386   H     0.71646   0.08633   0.03419   0.00000  Uiso   1.00
H387   H     0.58631   0.21641   0.96581   0.00000  Uiso   1.00
H388   H     0.91369   0.28359   0.03419   0.00000  Uiso   1.00
H389   H     0.71646   0.08633   0.96581   0.00000  Uiso   1.00
H390   H     0.78354   0.41367   0.03419   0.00000  Uiso   1.00
H391   H     0.91369   0.28359   0.96581   0.00000  Uiso   1.00
H392   H     0.58631   0.21641   0.03419   0.00000  Uiso   1.00
O393   O     0.70724   0.07308   0.27302   0.00000  Uiso   1.00
O394   O     0.79275   0.42693   0.72698   0.00000  Uiso   1.00
O395   O     0.92692   0.20725   0.27302   0.00000  Uiso   1.00
O396   O     0.57307   0.29276   0.72698   0.00000  Uiso   1.00
O397   O     0.79275   0.42693   0.27302   0.00000  Uiso   1.00
O398   O     0.70724   0.07308   0.72698   0.00000  Uiso   1.00
O399   O     0.57307   0.29276   0.27302   0.00000  Uiso   1.00
O400   O     0.92692   0.20725   0.72698   0.00000  Uiso   1.00
O401   O     0.70724   0.42693   0.72698   0.00000  Uiso   1.00
O402   O     0.79275   0.07308   0.27302   0.00000  Uiso   1.00
O403   O     0.92692   0.29276   0.72698   0.00000  Uiso   1.00
O404   O     0.57307   0.20725   0.27302   0.00000  Uiso   1.00
O405   O     0.79275   0.07308   0.72698   0.00000  Uiso   1.00
O406   O     0.70724   0.42693   0.27302   0.00000  Uiso   1.00
O407   O     0.57307   0.20725   0.72698   0.00000  Uiso   1.00
O408   O     0.92692   0.29276   0.27302   0.00000  Uiso   1.00
O409   O     0.95724   0.32308   0.77302   0.00000  Uiso   1.00
O410   O     0.54275   0.17693   0.22698   0.00000  Uiso   1.00
O411   O     0.67692   0.45725   0.77302   0.00000  Uiso   1.00
O412   O     0.82307   0.04276   0.22698   0.00000  Uiso   1.00
O413   O     0.54275   0.17693   0.77302   0.00000  Uiso   1.00
O414   O     0.95724   0.32308   0.22698   0.00000  Uiso   1.00
O415   O     0.82307   0.04276   0.77302   0.00000  Uiso   1.00
O416   O     0.67692   0.45725   0.22698   0.00000  Uiso   1.00
O417   O     0.95724   0.17693   0.22698   0.00000  Uiso   1.00
O418   O     0.54275   0.32308   0.77302   0.00000  Uiso   1.00
O419   O     0.67692   0.04276   0.22698   0.00000  Uiso   1.00
O420   O     0.82307   0.45725   0.77302   0.00000  Uiso   1.00
O421   O     0.54275   0.32308   0.22698   0.00000  Uiso   1.00
O422   O     0.95724   0.17693   0.77302   0.00000  Uiso   1.00
O423   O     0.82307   0.45725   0.22698   0.00000  Uiso   1.00
O424   O     0.67692   0.04276   0.77302   0.00000  Uiso   1.00
C425   C     0.52380   0.18812   0.47993   0.00000  Uiso   1.00
C426   C     0.97620   0.31188   0.52007   0.00000  Uiso   1.00
C427   C     0.81187   0.47619   0.47993   0.00000  Uiso   1.00
C428   C     0.68813   0.02381   0.52007   0.00000  Uiso   1.00
C429   C     0.97620   0.31188   0.47993   0.00000  Uiso   1.00
C430   C     0.52380   0.18812   0.52007   0.00000  Uiso   1.00
C431   C     0.68813   0.02381   0.47993   0.00000  Uiso   1.00
C432   C     0.81187   0.47619   0.52007   0.00000  Uiso   1.00
C433   C     0.77380   0.43813   0.97993   0.00000  Uiso   1.00
C434   C     0.72620   0.06188   0.02007   0.00000  Uiso   1.00
C435   C     0.56186   0.22616   0.97993   0.00000  Uiso   1.00
C436   C     0.93814   0.27384   0.02007   0.00000  Uiso   1.00
C437   C     0.72620   0.06188   0.97993   0.00000  Uiso   1.00
C438   C     0.77380   0.43813   0.02007   0.00000  Uiso   1.00
C439   C     0.93814   0.27384   0.97993   0.00000  Uiso   1.00
C440   C     0.56186   0.22616   0.02007   0.00000  Uiso   1.00
C441   C     0.75000   0.00000   0.35567   0.00000  Uiso   1.00
C442   C     0.75000   0.00000   0.64433   0.00000  Uiso   1.00
C443   C     0.50000   0.25000   0.35567   0.00000  Uiso   1.00
C444   C     0.50000   0.25000   0.64433   0.00000  Uiso   1.00
C445   C     0.50000   0.25000   0.85566   0.00000  Uiso   1.00
C446   C     0.50000   0.25000   0.14433   0.00000  Uiso   1.00
C447   C     0.75000   0.00000   0.85566   0.00000  Uiso   1.00
C448   C     0.75000   0.00000   0.14433   0.00000  Uiso   1.00
C449   C     0.67994   0.07006   0.25000   0.00000  Uiso   1.00
C450   C     0.82006   0.42994   0.75000   0.00000  Uiso   1.00
C451   C     0.92994   0.17994   0.25000   0.00000  Uiso   1.00
C452   C     0.57006   0.32006   0.75000   0.00000  Uiso   1.00
C453   C     0.82006   0.42994   0.25000   0.00000  Uiso   1.00
C454   C     0.67994   0.07006   0.75000   0.00000  Uiso   1.00
C455   C     0.57006   0.32006   0.25000   0.00000  Uiso   1.00
C456   C     0.92994   0.17994   0.75000   0.00000  Uiso   1.00
C457   C     0.67994   0.42994   0.75000   0.00000  Uiso   1.00
C458   C     0.82006   0.07006   0.25000   0.00000  Uiso   1.00
C459   C     0.92994   0.32006   0.75000   0.00000  Uiso   1.00
C460   C     0.57006   0.17994   0.25000   0.00000  Uiso   1.00
C461   C     0.82006   0.07006   0.75000   0.00000  Uiso   1.00
C462   C     0.67994   0.42994   0.25000   0.00000  Uiso   1.00
C463   C     0.57006   0.17994   0.75000   0.00000  Uiso   1.00
C464   C     0.92994   0.32006   0.25000   0.00000  Uiso   1.00
C465   C     0.62192   0.40480   0.22490   0.00000  Uiso   1.00
C466   C     0.87808   0.09520   0.77509   0.00000  Uiso   1.00
C467   C     0.59559   0.12231   0.22434   0.00000  Uiso   1.00
C468   C     0.90441   0.37769   0.77566   0.00000  Uiso   1.00
C469   C     0.87808   0.09520   0.22490   0.00000  Uiso   1.00
C470   C     0.62192   0.40480   0.77509   0.00000  Uiso   1.00
C471   C     0.90441   0.37769   0.22434   0.00000  Uiso   1.00
C472   C     0.59559   0.12231   0.77566   0.00000  Uiso   1.00
C473   C     0.62231   0.09559   0.77566   0.00000  Uiso   1.00
C474   C     0.87769   0.40441   0.22434   0.00000  Uiso   1.00
C475   C     0.59520   0.37808   0.77509   0.00000  Uiso   1.00
C476   C     0.90480   0.12192   0.22490   0.00000  Uiso   1.00
C477   C     0.87769   0.40441   0.77566   0.00000  Uiso   1.00
C478   C     0.62231   0.09559   0.22434   0.00000  Uiso   1.00
C479   C     0.90480   0.12192   0.77509   0.00000  Uiso   1.00
C480   C     0.59520   0.37808   0.22490   0.00000  Uiso   1.00
C481   C     0.87192   0.15480   0.72490   0.00000  Uiso   1.00
C482   C     0.62808   0.34520   0.27509   0.00000  Uiso   1.00
C483   C     0.84559   0.37231   0.72434   0.00000  Uiso   1.00
C484   C     0.65441   0.12769   0.27566   0.00000  Uiso   1.00
C485   C     0.62808   0.34520   0.72490   0.00000  Uiso   1.00
C486   C     0.87192   0.15480   0.27509   0.00000  Uiso   1.00
C487   C     0.65441   0.12769   0.72434   0.00000  Uiso   1.00
C488   C     0.84559   0.37231   0.27566   0.00000  Uiso   1.00
C489   C     0.87231   0.34559   0.27566   0.00000  Uiso   1.00
C490   C     0.62769   0.15441   0.72434   0.00000  Uiso   1.00
C491   C     0.84520   0.12808   0.27509   0.00000  Uiso   1.00
C492   C     0.65480   0.37192   0.72490   0.00000  Uiso   1.00
C493   C     0.62769   0.15441   0.27566   0.00000  Uiso   1.00
C494   C     0.87231   0.34559   0.72434   0.00000  Uiso   1.00
C495   C     0.65480   0.37192   0.27509   0.00000  Uiso   1.00
C496   C     0.84520   0.12808   0.72490   0.00000  Uiso   1.00
H497   H     0.61911   0.42770   0.20527   0.00000  Uiso   1.00
H498   H     0.88089   0.07231   0.79473   0.00000  Uiso   1.00
H499   H     0.57301   0.11982   0.20426   0.00000  Uiso   1.00
H500   H     0.92699   0.38018   0.79574   0.00000  Uiso   1.00
H501   H     0.88089   0.07231   0.20527   0.00000  Uiso   1.00
H502   H     0.61911   0.42770   0.79473   0.00000  Uiso   1.00
H503   H     0.92699   0.38018   0.20426   0.00000  Uiso   1.00
H504   H     0.57301   0.11982   0.79574   0.00000  Uiso   1.00
H505   H     0.61982   0.07301   0.79574   0.00000  Uiso   1.00
H506   H     0.88018   0.42699   0.20426   0.00000  Uiso   1.00
H507   H     0.57230   0.38089   0.79473   0.00000  Uiso   1.00
H508   H     0.92769   0.11911   0.20527   0.00000  Uiso   1.00
H509   H     0.88018   0.42699   0.79574   0.00000  Uiso   1.00
H510   H     0.61982   0.07301   0.20426   0.00000  Uiso   1.00
H511   H     0.92769   0.11911   0.79473   0.00000  Uiso   1.00
H512   H     0.57230   0.38089   0.20527   0.00000  Uiso   1.00
H513   H     0.86911   0.17769   0.70527   0.00000  Uiso   1.00
H514   H     0.63089   0.32231   0.29473   0.00000  Uiso   1.00
H515   H     0.82301   0.36982   0.70426   0.00000  Uiso   1.00
H516   H     0.67699   0.13018   0.29574   0.00000  Uiso   1.00
H517   H     0.63089   0.32231   0.70527   0.00000  Uiso   1.00
H518   H     0.86911   0.17770   0.29473   0.00000  Uiso   1.00
H519   H     0.67699   0.13018   0.70426   0.00000  Uiso   1.00
H520   H     0.82301   0.36982   0.29574   0.00000  Uiso   1.00
H521   H     0.86982   0.32301   0.29574   0.00000  Uiso   1.00
H522   H     0.63018   0.17699   0.70426   0.00000  Uiso   1.00
H523   H     0.82230   0.13089   0.29473   0.00000  Uiso   1.00
H524   H     0.67769   0.36911   0.70527   0.00000  Uiso   1.00
H525   H     0.63018   0.17699   0.29574   0.00000  Uiso   1.00
H526   H     0.86982   0.32301   0.70426   0.00000  Uiso   1.00
H527   H     0.67769   0.36911   0.29473   0.00000  Uiso   1.00
H528   H     0.82230   0.13089   0.70527   0.00000  Uiso   1.00
C529   C     0.51176   0.21864   0.45887   0.00000  Uiso   1.00
C530   C     0.98824   0.28136   0.54113   0.00000  Uiso   1.00
C531   C     0.78135   0.48823   0.45887   0.00000  Uiso   1.00
C532   C     0.71864   0.01177   0.54113   0.00000  Uiso   1.00
C533   C     0.98824   0.28136   0.45887   0.00000  Uiso   1.00
C534   C     0.51176   0.21864   0.54113   0.00000  Uiso   1.00
C535   C     0.71864   0.01177   0.45887   0.00000  Uiso   1.00
C536   C     0.78135   0.48823   0.54113   0.00000  Uiso   1.00
C537   C     0.76176   0.46864   0.95887   0.00000  Uiso   1.00
C538   C     0.73824   0.03136   0.04113   0.00000  Uiso   1.00
C539   C     0.53135   0.23822   0.95887   0.00000  Uiso   1.00
C540   C     0.96865   0.26178   0.04113   0.00000  Uiso   1.00
C541   C     0.73824   0.03136   0.95887   0.00000  Uiso   1.00
C542   C     0.76176   0.46864   0.04113   0.00000  Uiso   1.00
C543   C     0.96865   0.26178   0.95887   0.00000  Uiso   1.00
C544   C     0.53135   0.23822   0.04113   0.00000  Uiso   1.00
C545   C     0.59813   0.34813   0.25000   0.00000  Uiso   1.00
C546   C     0.90187   0.15187   0.75000   0.00000  Uiso   1.00
C547   C     0.65187   0.09813   0.25000   0.00000  Uiso   1.00
C548   C     0.84813   0.40187   0.75000   0.00000  Uiso   1.00
C549   C     0.90187   0.15187   0.25000   0.00000  Uiso   1.00
C550   C     0.59813   0.34813   0.75000   0.00000  Uiso   1.00
C551   C     0.84813   0.40187   0.25000   0.00000  Uiso   1.00
C552   C     0.65187   0.09813   0.75000   0.00000  Uiso   1.00
C553   C     0.59813   0.15187   0.75000   0.00000  Uiso   1.00
C554   C     0.90187   0.34813   0.25000   0.00000  Uiso   1.00
C555   C     0.65187   0.40187   0.75000   0.00000  Uiso   1.00
C556   C     0.84813   0.09813   0.25000   0.00000  Uiso   1.00
C557   C     0.90187   0.34813   0.75000   0.00000  Uiso   1.00
C558   C     0.59813   0.15187   0.25000   0.00000  Uiso   1.00
C559   C     0.84813   0.09813   0.75000   0.00000  Uiso   1.00
C560   C     0.65187   0.40187   0.25000   0.00000  Uiso   1.00
C561   C     0.50000   0.25000   0.47937   0.00000  Uiso   1.00
C562   C     0.50000   0.25000   0.52063   0.00000  Uiso   1.00
C563   C     0.75000   0.00000   0.47937   0.00000  Uiso   1.00
C564   C     0.75000   0.00000   0.52063   0.00000  Uiso   1.00
C565   C     0.75000   0.00000   0.97937   0.00000  Uiso   1.00
C566   C     0.75000   0.00000   0.02063   0.00000  Uiso   1.00
C567   C     0.50000   0.25000   0.97937   0.00000  Uiso   1.00
C568   C     0.50000   0.25000   0.02063   0.00000  Uiso   1.00
C569   C     0.97846   0.31630   0.39598   0.00000  Uiso   1.00
H570   H     0.98215   0.31471   0.36415   0.00000  Uiso   1.00
H571   H     0.94935   0.32283   0.40144   0.00000  Uiso   1.00
H572   H     0.99582   0.33929   0.40588   0.00000  Uiso   1.00
C573   C     0.52154   0.18370   0.60401   0.00000  Uiso   1.00
H574   H     0.51785   0.18529   0.63585   0.00000  Uiso   1.00
H575   H     0.50418   0.16071   0.59412   0.00000  Uiso   1.00
H576   H     0.55065   0.17717   0.59856   0.00000  Uiso   1.00
C577   C     0.68370   0.02155   0.39598   0.00000  Uiso   1.00
H578   H     0.68529   0.01786   0.36415   0.00000  Uiso   1.00
H579   H     0.66071   0.00419   0.40588   0.00000  Uiso   1.00
H580   H     0.67718   0.05066   0.40143   0.00000  Uiso   1.00
C581   C     0.81630   0.47845   0.60401   0.00000  Uiso   1.00
H582   H     0.81471   0.48214   0.63585   0.00000  Uiso   1.00
H583   H     0.82282   0.44934   0.59856   0.00000  Uiso   1.00
H584   H     0.83929   0.49581   0.59412   0.00000  Uiso   1.00
C585   C     0.52154   0.18370   0.39598   0.00000  Uiso   1.00
H586   H     0.51785   0.18529   0.36414   0.00000  Uiso   1.00
H587   H     0.55065   0.17717   0.40144   0.00000  Uiso   1.00
H588   H     0.50418   0.16071   0.40588   0.00000  Uiso   1.00
C589   C     0.97846   0.31630   0.60401   0.00000  Uiso   1.00
H590   H     0.98215   0.31471   0.63585   0.00000  Uiso   1.00
H591   H     0.99582   0.33929   0.59412   0.00000  Uiso   1.00
H592   H     0.94935   0.32283   0.59856   0.00000  Uiso   1.00
C593   C     0.81630   0.47845   0.39598   0.00000  Uiso   1.00
H594   H     0.81471   0.48214   0.36415   0.00000  Uiso   1.00
H595   H     0.83929   0.49581   0.40588   0.00000  Uiso   1.00
H596   H     0.82282   0.44934   0.40143   0.00000  Uiso   1.00
C597   C     0.68370   0.02155   0.60401   0.00000  Uiso   1.00
H598   H     0.68529   0.01786   0.63585   0.00000  Uiso   1.00
H599   H     0.67718   0.05066   0.59856   0.00000  Uiso   1.00
H600   H     0.66071   0.00419   0.59412   0.00000  Uiso   1.00
C601   C     0.72846   0.06630   0.89598   0.00000  Uiso   1.00
H602   H     0.73214   0.06471   0.86415   0.00000  Uiso   1.00
H603   H     0.69935   0.07283   0.90144   0.00000  Uiso   1.00
H604   H     0.74582   0.08929   0.90588   0.00000  Uiso   1.00
C605   C     0.77154   0.43370   0.10401   0.00000  Uiso   1.00
H606   H     0.76785   0.43529   0.13585   0.00000  Uiso   1.00
H607   H     0.75418   0.41071   0.09412   0.00000  Uiso   1.00
H608   H     0.80065   0.42717   0.09856   0.00000  Uiso   1.00
C609   C     0.93371   0.27157   0.89598   0.00000  Uiso   1.00
H610   H     0.93529   0.26788   0.86415   0.00000  Uiso   1.00
H611   H     0.91071   0.25422   0.90589   0.00000  Uiso   1.00
H612   H     0.92720   0.30068   0.90143   0.00000  Uiso   1.00
C613   C     0.56629   0.22843   0.10401   0.00000  Uiso   1.00
H614   H     0.56470   0.23213   0.13585   0.00000  Uiso   1.00
H615   H     0.57280   0.19932   0.09857   0.00000  Uiso   1.00
H616   H     0.58929   0.24578   0.09411   0.00000  Uiso   1.00
C617   C     0.77154   0.43370   0.89598   0.00000  Uiso   1.00
H618   H     0.76785   0.43529   0.86415   0.00000  Uiso   1.00
H619   H     0.80065   0.42717   0.90144   0.00000  Uiso   1.00
H620   H     0.75418   0.41071   0.90588   0.00000  Uiso   1.00
C621   C     0.72846   0.06630   0.10401   0.00000  Uiso   1.00
H622   H     0.73214   0.06471   0.13585   0.00000  Uiso   1.00
H623   H     0.74582   0.08929   0.09412   0.00000  Uiso   1.00
H624   H     0.69935   0.07283   0.09856   0.00000  Uiso   1.00
C625   C     0.56629   0.22843   0.89598   0.00000  Uiso   1.00
H626   H     0.58929   0.24578   0.90589   0.00000  Uiso   1.00
H627   H     0.57280   0.19932   0.90143   0.00000  Uiso   1.00
H628   H     0.56470   0.23213   0.86415   0.00000  Uiso   1.00
C629   C     0.93371   0.27157   0.10401   0.00000  Uiso   1.00
H630   H     0.91071   0.25422   0.09411   0.00000  Uiso   1.00
H631   H     0.93529   0.26787   0.13585   0.00000  Uiso   1.00
H632   H     0.92720   0.30068   0.09857   0.00000  Uiso   1.00
Zn633  Zn    0.20659   0.50000   0.21735   0.00000  Uiso   1.00
Zn634  Zn    0.29340   0.50000   0.78265   0.00000  Uiso   1.00
Zn635  Zn    0.00000   0.70660   0.21735   0.00000  Uiso   1.00
Zn636  Zn    0.00000   0.79341   0.78265   0.00000  Uiso   1.00
Zn637  Zn    0.29340   0.50000   0.21735   0.00000  Uiso   1.00
Zn638  Zn    0.20659   0.50000   0.78265   0.00000  Uiso   1.00
Zn639  Zn   -0.00000   0.79341   0.21735   0.00000  Uiso   1.00
Zn640  Zn   -0.00000   0.70660   0.78265   0.00000  Uiso   1.00
Zn641  Zn    0.45659   0.75000   0.71735   0.00000  Uiso   1.00
Zn642  Zn    0.04340   0.75000   0.28265   0.00000  Uiso   1.00
Zn643  Zn    0.25000   0.95660   0.71735   0.00000  Uiso   1.00
Zn644  Zn    0.25000   0.54341   0.28265   0.00000  Uiso   1.00
Zn645  Zn    0.04340   0.75000   0.71735   0.00000  Uiso   1.00
Zn646  Zn    0.45659   0.75000   0.28265   0.00000  Uiso   1.00
Zn647  Zn    0.25000   0.54341   0.71735   0.00000  Uiso   1.00
Zn648  Zn    0.25000   0.95660   0.28265   0.00000  Uiso   1.00
C649   C     0.48889   0.78174   0.41789   0.00000  Uiso   1.00
C650   C     0.01111   0.71826   0.58210   0.00000  Uiso   1.00
C651   C     0.21827   0.51112   0.41789   0.00000  Uiso   1.00
C652   C     0.28173   0.98888   0.58210   0.00000  Uiso   1.00
C653   C     0.01111   0.71826   0.41789   0.00000  Uiso   1.00
C654   C     0.48889   0.78174   0.58210   0.00000  Uiso   1.00
C655   C     0.28173   0.98888   0.41789   0.00000  Uiso   1.00
C656   C     0.21827   0.51112   0.58210   0.00000  Uiso   1.00
C657   C     0.23889   0.53174   0.91789   0.00000  Uiso   1.00
C658   C     0.26111   0.96827   0.08210   0.00000  Uiso   1.00
C659   C     0.46827   0.76113   0.91789   0.00000  Uiso   1.00
C660   C     0.03173   0.73887   0.08210   0.00000  Uiso   1.00
C661   C     0.26111   0.96827   0.91789   0.00000  Uiso   1.00
C662   C     0.23889   0.53174   0.08210   0.00000  Uiso   1.00
C663   C     0.03173   0.73887   0.91789   0.00000  Uiso   1.00
C664   C     0.46827   0.76113   0.08210   0.00000  Uiso   1.00
C665   C     0.00000   0.75000   0.39785   0.00000  Uiso   1.00
C666   C    -0.00000   0.75000   0.60215   0.00000  Uiso   1.00
C667   C     0.25000   0.50000   0.39785   0.00000  Uiso   1.00
C668   C     0.25000   0.50000   0.60215   0.00000  Uiso   1.00
C669   C     0.25000   0.50000   0.89785   0.00000  Uiso   1.00
C670   C     0.25000   0.50000   0.10215   0.00000  Uiso   1.00
C671   C    -0.00000   0.75000   0.89785   0.00000  Uiso   1.00
C672   C    -0.00000   0.75000   0.10215   0.00000  Uiso   1.00
O673   O     0.25000   0.50000   0.25000   0.00000  Uiso   1.00
O674   O     0.25000   0.50000   0.75000   0.00000  Uiso   1.00
O675   O     0.00000   0.75000   0.25000   0.00000  Uiso   1.00
O676   O     0.00000   0.75000   0.75000   0.00000  Uiso   1.00
O677   O     0.25000   0.96964   0.33755   0.00000  Uiso   1.00
O678   O     0.25000   0.53037   0.66245   0.00000  Uiso   1.00
O679   O     0.03036   0.75000   0.33755   0.00000  Uiso   1.00
O680   O     0.46963   0.75000   0.66245   0.00000  Uiso   1.00
O681   O     0.25000   0.53037   0.33755   0.00000  Uiso   1.00
O682   O     0.25000   0.96964   0.66245   0.00000  Uiso   1.00
O683   O     0.46963   0.75000   0.33755   0.00000  Uiso   1.00
O684   O     0.03036   0.75000   0.66245   0.00000  Uiso   1.00
O685   O     0.00000   0.71964   0.83755   0.00000  Uiso   1.00
O686   O    -0.00000   0.78037   0.16245   0.00000  Uiso   1.00
O687   O     0.28036   0.50000   0.83755   0.00000  Uiso   1.00
O688   O     0.21963   0.50000   0.16245   0.00000  Uiso   1.00
O689   O    -0.00000   0.78037   0.83755   0.00000  Uiso   1.00
O690   O    -0.00000   0.71964   0.16245   0.00000  Uiso   1.00
O691   O     0.21963   0.50000   0.83755   0.00000  Uiso   1.00
O692   O     0.28036   0.50000   0.16245   0.00000  Uiso   1.00
H693   H     0.03353   0.66367   0.46581   0.00000  Uiso   1.00
H694   H     0.46646   0.83633   0.53419   0.00000  Uiso   1.00
H695   H     0.33632   0.96645   0.46581   0.00000  Uiso   1.00
H696   H     0.16368   0.53355   0.53419   0.00000  Uiso   1.00
H697   H     0.46646   0.83633   0.46581   0.00000  Uiso   1.00
H698   H     0.03353   0.66367   0.53419   0.00000  Uiso   1.00
H699   H     0.16368   0.53355   0.46581   0.00000  Uiso   1.00
H700   H     0.33632   0.96645   0.53419   0.00000  Uiso   1.00
H701   H     0.28354   0.91367   0.96581   0.00000  Uiso   1.00
H702   H     0.21646   0.58633   0.03419   0.00000  Uiso   1.00
H703   H     0.08631   0.71641   0.96581   0.00000  Uiso   1.00
H704   H     0.41369   0.78359   0.03419   0.00000  Uiso   1.00
H705   H     0.21646   0.58633   0.96581   0.00000  Uiso   1.00
H706   H     0.28354   0.91367   0.03419   0.00000  Uiso   1.00
H707   H     0.41369   0.78359   0.96581   0.00000  Uiso   1.00
H708   H     0.08631   0.71641   0.03419   0.00000  Uiso   1.00
O709   O     0.20724   0.57308   0.27302   0.00000  Uiso   1.00
O710   O     0.29275   0.92693   0.72698   0.00000  Uiso   1.00
O711   O     0.42692   0.70725   0.27302   0.00000  Uiso   1.00
O712   O     0.07307   0.79276   0.72698   0.00000  Uiso   1.00
O713   O     0.29275   0.92693   0.27302   0.00000  Uiso   1.00
O714   O     0.20724   0.57308   0.72698   0.00000  Uiso   1.00
O715   O     0.07307   0.79276   0.27302   0.00000  Uiso   1.00
O716   O     0.42692   0.70725   0.72698   0.00000  Uiso   1.00
O717   O     0.20724   0.92693   0.72698   0.00000  Uiso   1.00
O718   O     0.29275   0.57308   0.27302   0.00000  Uiso   1.00
O719   O     0.42692   0.79276   0.72698   0.00000  Uiso   1.00
O720   O     0.07307   0.70725   0.27302   0.00000  Uiso   1.00
O721   O     0.29275   0.57308   0.72698   0.00000  Uiso   1.00
O722   O     0.20724   0.92693   0.27302   0.00000  Uiso   1.00
O723   O     0.07307   0.70725   0.72698   0.00000  Uiso   1.00
O724   O     0.42692   0.79276   0.27302   0.00000  Uiso   1.00
O725   O     0.45724   0.82308   0.77302   0.00000  Uiso   1.00
O726   O     0.04275   0.67693   0.22698   0.00000  Uiso   1.00
O727   O     0.17692   0.95725   0.77302   0.00000  Uiso   1.00
O728   O     0.32307   0.54276   0.22698   0.00000  Uiso   1.00
O729   O     0.04275   0.67693   0.77302   0.00000  Uiso   1.00
O730   O     0.45724   0.82308   0.22698   0.00000  Uiso   1.00
O731   O     0.32307   0.54276   0.77302   0.00000  Uiso   1.00
O732   O     0.17692   0.95725   0.22698   0.00000  Uiso   1.00
O733   O     0.45724   0.67693   0.22698   0.00000  Uiso   1.00
O734   O     0.04275   0.82308   0.77302   0.00000  Uiso   1.00
O735   O     0.17692   0.54276   0.22698   0.00000  Uiso   1.00
O736   O     0.32307   0.95725   0.77302   0.00000  Uiso   1.00
O737   O     0.04275   0.82308   0.22698   0.00000  Uiso   1.00
O738   O     0.45724   0.67693   0.77302   0.00000  Uiso   1.00
O739   O     0.32307   0.95725   0.22698   0.00000  Uiso   1.00
O740   O     0.17692   0.54276   0.77302   0.00000  Uiso   1.00
C741   C     0.02380   0.68812   0.47993   0.00000  Uiso   1.00
C742   C     0.47620   0.81188   0.52007   0.00000  Uiso   1.00
C743   C     0.31187   0.97619   0.47993   0.00000  Uiso   1.00
C744   C     0.18813   0.52381   0.52007   0.00000  Uiso   1.00
C745   C     0.47620   0.81188   0.47993   0.00000  Uiso   1.00
C746   C     0.02380   0.68812   0.52007   0.00000  Uiso   1.00
C747   C     0.18813   0.52381   0.47993   0.00000  Uiso   1.00
C748   C     0.31187   0.97619   0.52007   0.00000  Uiso   1.00
C749   C     0.27380   0.93813   0.97993   0.00000  Uiso   1.00
C750   C     0.22620   0.56188   0.02007   0.00000  Uiso   1.00
C751   C     0.06186   0.72616   0.97993   0.00000  Uiso   1.00
C752   C     0.43814   0.77384   0.02007   0.00000  Uiso   1.00
C753   C     0.22620   0.56188   0.97993   0.00000  Uiso   1.00
C754   C     0.27380   0.93813   0.02007   0.00000  Uiso   1.00
C755   C     0.43814   0.77384   0.97993   0.00000  Uiso   1.00
C756   C     0.06186   0.72616   0.02007   0.00000  Uiso   1.00
C757   C     0.25000   0.50000   0.35567   0.00000  Uiso   1.00
C758   C     0.25000   0.50000   0.64433   0.00000  Uiso   1.00
C759   C     0.00000   0.75000   0.35567   0.00000  Uiso   1.00
C760   C    -0.00000   0.75000   0.64433   0.00000  Uiso   1.00
C761   C    -0.00000   0.75000   0.85566   0.00000  Uiso   1.00
C762   C    -0.00000   0.75000   0.14433   0.00000  Uiso   1.00
C763   C     0.25000   0.50000   0.85566   0.00000  Uiso   1.00
C764   C     0.25000   0.50000   0.14433   0.00000  Uiso   1.00
C765   C     0.17994   0.57006   0.25000   0.00000  Uiso   1.00
C766   C     0.32006   0.92994   0.75000   0.00000  Uiso   1.00
C767   C     0.42994   0.67994   0.25000   0.00000  Uiso   1.00
C768   C     0.07006   0.82006   0.75000   0.00000  Uiso   1.00
C769   C     0.32006   0.92994   0.25000   0.00000  Uiso   1.00
C770   C     0.17994   0.57006   0.75000   0.00000  Uiso   1.00
C771   C     0.07006   0.82006   0.25000   0.00000  Uiso   1.00
C772   C     0.42994   0.67994   0.75000   0.00000  Uiso   1.00
C773   C     0.17994   0.92994   0.75000   0.00000  Uiso   1.00
C774   C     0.32006   0.57006   0.25000   0.00000  Uiso   1.00
C775   C     0.42994   0.82006   0.75000   0.00000  Uiso   1.00
C776   C     0.07006   0.67994   0.25000   0.00000  Uiso   1.00
C777   C     0.32006   0.57006   0.75000   0.00000  Uiso   1.00
C778   C     0.17994   0.92994   0.25000   0.00000  Uiso   1.00
C779   C     0.07006   0.67994   0.75000   0.00000  Uiso   1.00
C780   C     0.42994   0.82006   0.25000   0.00000  Uiso   1.00
C781   C     0.12192   0.90480   0.22490   0.00000  Uiso   1.00
C782   C     0.37808   0.59520   0.77509   0.00000  Uiso   1.00
C783   C     0.09559   0.62231   0.22434   0.00000  Uiso   1.00
C784   C     0.40441   0.87769   0.77566   0.00000  Uiso   1.00
C785   C     0.37808   0.59520   0.22490   0.00000  Uiso   1.00
C786   C     0.12192   0.90480   0.77509   0.00000  Uiso   1.00
C787   C     0.40441   0.87769   0.22434   0.00000  Uiso   1.00
C788   C     0.09559   0.62231   0.77566   0.00000  Uiso   1.00
C789   C     0.12231   0.59559   0.77566   0.00000  Uiso   1.00
C790   C     0.37769   0.90441   0.22434   0.00000  Uiso   1.00
C791   C     0.09520   0.87808   0.77509   0.00000  Uiso   1.00
C792   C     0.40480   0.62192   0.22490   0.00000  Uiso   1.00
C793   C     0.37769   0.90441   0.77566   0.00000  Uiso   1.00
C794   C     0.12231   0.59559   0.22434   0.00000  Uiso   1.00
C795   C     0.40480   0.62192   0.77509   0.00000  Uiso   1.00
C796   C     0.09520   0.87808   0.22490   0.00000  Uiso   1.00
C797   C     0.37192   0.65480   0.72490   0.00000  Uiso   1.00
C798   C     0.12808   0.84520   0.27509   0.00000  Uiso   1.00
C799   C     0.34559   0.87231   0.72434   0.00000  Uiso   1.00
C800   C     0.15441   0.62769   0.27566   0.00000  Uiso   1.00
C801   C     0.12808   0.84520   0.72490   0.00000  Uiso   1.00
C802   C     0.37192   0.65480   0.27509   0.00000  Uiso   1.00
C803   C     0.15441   0.62769   0.72434   0.00000  Uiso   1.00
C804   C     0.34559   0.87231   0.27566   0.00000  Uiso   1.00
C805   C     0.37231   0.84559   0.27566   0.00000  Uiso   1.00
C806   C     0.12769   0.65441   0.72434   0.00000  Uiso   1.00
C807   C     0.34520   0.62808   0.27509   0.00000  Uiso   1.00
C808   C     0.15480   0.87192   0.72490   0.00000  Uiso   1.00
C809   C     0.12769   0.65441   0.27566   0.00000  Uiso   1.00
C810   C     0.37231   0.84559   0.72434   0.00000  Uiso   1.00
C811   C     0.15480   0.87192   0.27509   0.00000  Uiso   1.00
C812   C     0.34520   0.62808   0.72490   0.00000  Uiso   1.00
H813   H     0.11911   0.92770   0.20527   0.00000  Uiso   1.00
H814   H     0.38089   0.57231   0.79473   0.00000  Uiso   1.00
H815   H     0.07301   0.61982   0.20426   0.00000  Uiso   1.00
H816   H     0.42699   0.88018   0.79574   0.00000  Uiso   1.00
H817   H     0.38089   0.57231   0.20527   0.00000  Uiso   1.00
H818   H     0.11911   0.92770   0.79473   0.00000  Uiso   1.00
H819   H     0.42699   0.88018   0.20426   0.00000  Uiso   1.00
H820   H     0.07301   0.61982   0.79574   0.00000  Uiso   1.00
H821   H     0.11982   0.57301   0.79574   0.00000  Uiso   1.00
H822   H     0.38018   0.92699   0.20426   0.00000  Uiso   1.00
H823   H     0.07230   0.88089   0.79473   0.00000  Uiso   1.00
H824   H     0.42769   0.61911   0.20527   0.00000  Uiso   1.00
H825   H     0.38018   0.92699   0.79574   0.00000  Uiso   1.00
H826   H     0.11982   0.57301   0.20426   0.00000  Uiso   1.00
H827   H     0.42769   0.61911   0.79473   0.00000  Uiso   1.00
H828   H     0.07230   0.88089   0.20527   0.00000  Uiso   1.00
H829   H     0.36911   0.67769   0.70527   0.00000  Uiso   1.00
H830   H     0.13089   0.82231   0.29473   0.00000  Uiso   1.00
H831   H     0.32301   0.86982   0.70426   0.00000  Uiso   1.00
H832   H     0.17699   0.63018   0.29574   0.00000  Uiso   1.00
H833   H     0.13089   0.82231   0.70527   0.00000  Uiso   1.00
H834   H     0.36911   0.67770   0.29473   0.00000  Uiso   1.00
H835   H     0.17699   0.63018   0.70426   0.00000  Uiso   1.00
H836   H     0.32301   0.86982   0.29574   0.00000  Uiso   1.00
H837   H     0.36982   0.82301   0.29574   0.00000  Uiso   1.00
H838   H     0.13018   0.67699   0.70426   0.00000  Uiso   1.00
H839   H     0.32230   0.63089   0.29473   0.00000  Uiso   1.00
H840   H     0.17769   0.86911   0.70527   0.00000  Uiso   1.00
H841   H     0.13018   0.67699   0.29574   0.00000  Uiso   1.00
H842   H     0.36982   0.82301   0.70426   0.00000  Uiso   1.00
H843   H     0.17769   0.86911   0.29473   0.00000  Uiso   1.00
H844   H     0.32230   0.63089   0.70527   0.00000  Uiso   1.00
C845   C     0.01176   0.71864   0.45887   0.00000  Uiso   1.00
C846   C     0.48824   0.78136   0.54113   0.00000  Uiso   1.00
C847   C     0.28135   0.98823   0.45887   0.00000  Uiso   1.00
C848   C     0.21864   0.51177   0.54113   0.00000  Uiso   1.00
C849   C     0.48824   0.78136   0.45887   0.00000  Uiso   1.00
C850   C     0.01176   0.71864   0.54113   0.00000  Uiso   1.00
C851   C     0.21864   0.51177   0.45887   0.00000  Uiso   1.00
C852   C     0.28135   0.98823   0.54113   0.00000  Uiso   1.00
C853   C     0.26176   0.96864   0.95887   0.00000  Uiso   1.00
C854   C     0.23824   0.53136   0.04113   0.00000  Uiso   1.00
C855   C     0.03135   0.73822   0.95887   0.00000  Uiso   1.00
C856   C     0.46865   0.76178   0.04113   0.00000  Uiso   1.00
C857   C     0.23824   0.53136   0.95887   0.00000  Uiso   1.00
C858   C     0.26176   0.96864   0.04113   0.00000  Uiso   1.00
C859   C     0.46865   0.76178   0.95887   0.00000  Uiso   1.00
C860   C     0.03135   0.73822   0.04113   0.00000  Uiso   1.00
C861   C     0.09813   0.84813   0.25000   0.00000  Uiso   1.00
C862   C     0.40187   0.65187   0.75000   0.00000  Uiso   1.00
C863   C     0.15187   0.59813   0.25000   0.00000  Uiso   1.00
C864   C     0.34813   0.90187   0.75000   0.00000  Uiso   1.00
C865   C     0.40187   0.65187   0.25000   0.00000  Uiso   1.00
C866   C     0.09813   0.84813   0.75000   0.00000  Uiso   1.00
C867   C     0.34813   0.90187   0.25000   0.00000  Uiso   1.00
C868   C     0.15187   0.59813   0.75000   0.00000  Uiso   1.00
C869   C     0.09813   0.65187   0.75000   0.00000  Uiso   1.00
C870   C     0.40187   0.84813   0.25000   0.00000  Uiso   1.00
C871   C     0.15187   0.90187   0.75000   0.00000  Uiso   1.00
C872   C     0.34813   0.59813   0.25000   0.00000  Uiso   1.00
C873   C     0.40187   0.84813   0.75000   0.00000  Uiso   1.00
C874   C     0.09813   0.65187   0.25000   0.00000  Uiso   1.00
C875   C     0.34813   0.59813   0.75000   0.00000  Uiso   1.00
C876   C     0.15187   0.90187   0.25000   0.00000  Uiso   1.00
C877   C     0.00000   0.75000   0.47937   0.00000  Uiso   1.00
C878   C    -0.00000   0.75000   0.52063   0.00000  Uiso   1.00
C879   C     0.25000   0.50000   0.47937   0.00000  Uiso   1.00
C880   C     0.25000   0.50000   0.52063   0.00000  Uiso   1.00
C881   C     0.25000   0.50000   0.97937   0.00000  Uiso   1.00
C882   C     0.25000   0.50000   0.02063   0.00000  Uiso   1.00
C883   C    -0.00000   0.75000   0.97937   0.00000  Uiso   1.00
C884   C    -0.00000   0.75000   0.02063   0.00000  Uiso   1.00
C885   C     0.47846   0.81630   0.39598   0.00000  Uiso   1.00
H886   H     0.48215   0.81471   0.36415   0.00000  Uiso   1.00
H887   H     0.44935   0.82283   0.40144   0.00000  Uiso   1.00
H888   H     0.49582   0.83929   0.40588   0.00000  Uiso   1.00
C889   C     0.02154   0.68370   0.60401   0.00000  Uiso   1.00
H890   H     0.01785   0.68529   0.63585   0.00000  Uiso   1.00
H891   H     0.00418   0.66071   0.59412   0.00000  Uiso   1.00
H892   H     0.05065   0.67717   0.59856   0.00000  Uiso   1.00
C893   C     0.18370   0.52155   0.39598   0.00000  Uiso   1.00
H894   H     0.18529   0.51786   0.36415   0.00000  Uiso   1.00
H895   H     0.16071   0.50419   0.40588   0.00000  Uiso   1.00
H896   H     0.17718   0.55066   0.40143   0.00000  Uiso   1.00
C897   C     0.31630   0.97845   0.60401   0.00000  Uiso   1.00
H898   H     0.31471   0.98214   0.63585   0.00000  Uiso   1.00
H899   H     0.32282   0.94934   0.59856   0.00000  Uiso   1.00
H900   H     0.33929   0.99581   0.59412   0.00000  Uiso   1.00
C901   C     0.02154   0.68370   0.39598   0.00000  Uiso   1.00
H902   H     0.01785   0.68529   0.36414   0.00000  Uiso   1.00
H903   H     0.05065   0.67717   0.40144   0.00000  Uiso   1.00
H904   H     0.00418   0.66071   0.40588   0.00000  Uiso   1.00
C905   C     0.47846   0.81630   0.60401   0.00000  Uiso   1.00
H906   H     0.48215   0.81471   0.63585   0.00000  Uiso   1.00
H907   H     0.49582   0.83929   0.59412   0.00000  Uiso   1.00
H908   H     0.44935   0.82283   0.59856   0.00000  Uiso   1.00
C909   C     0.31630   0.97845   0.39598   0.00000  Uiso   1.00
H910   H     0.31471   0.98214   0.36415   0.00000  Uiso   1.00
H911   H     0.33929   0.99581   0.40588   0.00000  Uiso   1.00
H912   H     0.32282   0.94934   0.40143   0.00000  Uiso   1.00
C913   C     0.18370   0.52155   0.60401   0.00000  Uiso   1.00
H914   H     0.18529   0.51786   0.63585   0.00000  Uiso   1.00
H915   H     0.17718   0.55066   0.59856   0.00000  Uiso   1.00
H916   H     0.16071   0.50419   0.59412   0.00000  Uiso   1.00
C917   C     0.22846   0.56630   0.89598   0.00000  Uiso   1.00
H918   H     0.23214   0.56471   0.86415   0.00000  Uiso   1.00
H919   H     0.19935   0.57283   0.90144   0.00000  Uiso   1.00
H920   H     0.24582   0.58929   0.90588   0.00000  Uiso   1.00
C921   C     0.27154   0.93370   0.10401   0.00000  Uiso   1.00
H922   H     0.26785   0.93529   0.13585   0.00000  Uiso   1.00
H923   H     0.25418   0.91071   0.09412   0.00000  Uiso   1.00
H924   H     0.30065   0.92717   0.09856   0.00000  Uiso   1.00
C925   C     0.43371   0.77157   0.89598   0.00000  Uiso   1.00
H926   H     0.43529   0.76788   0.86415   0.00000  Uiso   1.00
H927   H     0.41071   0.75422   0.90589   0.00000  Uiso   1.00
H928   H     0.42720   0.80068   0.90143   0.00000  Uiso   1.00
C929   C     0.06629   0.72843   0.10401   0.00000  Uiso   1.00
H930   H     0.06470   0.73213   0.13585   0.00000  Uiso   1.00
H931   H     0.07280   0.69932   0.09857   0.00000  Uiso   1.00
H932   H     0.08929   0.74578   0.09411   0.00000  Uiso   1.00
C933   C     0.27154   0.93370   0.89598   0.00000  Uiso   1.00
H934   H     0.26785   0.93529   0.86415   0.00000  Uiso   1.00
H935   H     0.30065   0.92717   0.90144   0.00000  Uiso   1.00
H936   H     0.25418   0.91071   0.90588   0.00000  Uiso   1.00
C937   C     0.22846   0.56630   0.10401   0.00000  Uiso   1.00
H938   H     0.23214   0.56471   0.13585   0.00000  Uiso   1.00
H939   H     0.24582   0.58929   0.09412   0.00000  Uiso   1.00
H940   H     0.19935   0.57283   0.09856   0.00000  Uiso   1.00
C941   C     0.06629   0.72843   0.89598   0.00000  Uiso   1.00
H942   H     0.08929   0.74578   0.90589   0.00000  Uiso   1.00
H943   H     0.07280   0.69932   0.90143   0.00000  Uiso   1.00
H944   H     0.06470   0.73213   0.86415   0.00000  Uiso   1.00
C945   C     0.43371   0.77157   0.10401   0.00000  Uiso   1.00
H946   H     0.41071   0.75422   0.09411   0.00000  Uiso   1.00
H947   H     0.43529   0.76787   0.13585   0.00000  Uiso   1.00
H948   H     0.42720   0.80068   0.09857   0.00000  Uiso   1.00
Zn949  Zn    0.70659   0.50000   0.21735   0.00000  Uiso   1.00
Zn950  Zn    0.79340   0.50000   0.78265   0.00000  Uiso   1.00
Zn951  Zn    0.50000   0.70660   0.21735   0.00000  Uiso   1.00
Zn952  Zn    0.50000   0.79341   0.78265   0.00000  Uiso   1.00
Zn953  Zn    0.79340   0.50000   0.21735   0.00000  Uiso   1.00
Zn954  Zn    0.70659   0.50000   0.78265   0.00000  Uiso   1.00
Zn955  Zn    0.50000   0.79341   0.21735   0.00000  Uiso   1.00
Zn956  Zn    0.50000   0.70660   0.78265   0.00000  Uiso   1.00
Zn957  Zn    0.95659   0.75000   0.71735   0.00000  Uiso   1.00
Zn958  Zn    0.54340   0.75000   0.28265   0.00000  Uiso   1.00
Zn959  Zn    0.75000   0.95660   0.71735   0.00000  Uiso   1.00
Zn960  Zn    0.75000   0.54341   0.28265   0.00000  Uiso   1.00
Zn961  Zn    0.54340   0.75000   0.71735   0.00000  Uiso   1.00
Zn962  Zn    0.95659   0.75000   0.28265   0.00000  Uiso   1.00
Zn963  Zn    0.75000   0.54341   0.71735   0.00000  Uiso   1.00
Zn964  Zn    0.75000   0.95660   0.28265   0.00000  Uiso   1.00
C965   C     0.98889   0.78174   0.41789   0.00000  Uiso   1.00
C966   C     0.51111   0.71826   0.58210   0.00000  Uiso   1.00
C967   C     0.71827   0.51112   0.41789   0.00000  Uiso   1.00
C968   C     0.78173   0.98888   0.58210   0.00000  Uiso   1.00
C969   C     0.51111   0.71826   0.41789   0.00000  Uiso   1.00
C970   C     0.98889   0.78174   0.58210   0.00000  Uiso   1.00
C971   C     0.78173   0.98888   0.41789   0.00000  Uiso   1.00
C972   C     0.71827   0.51112   0.58210   0.00000  Uiso   1.00
C973   C     0.73889   0.53174   0.91789   0.00000  Uiso   1.00
C974   C     0.76111   0.96827   0.08210   0.00000  Uiso   1.00
C975   C     0.96827   0.76113   0.91789   0.00000  Uiso   1.00
C976   C     0.53173   0.73887   0.08210   0.00000  Uiso   1.00
C977   C     0.76111   0.96827   0.91789   0.00000  Uiso   1.00
C978   C     0.73889   0.53174   0.08210   0.00000  Uiso   1.00
C979   C     0.53173   0.73887   0.91789   0.00000  Uiso   1.00
C980   C     0.96827   0.76113   0.08210   0.00000  Uiso   1.00
C981   C     0.50000   0.75000   0.39785   0.00000  Uiso   1.00
C982   C     0.50000   0.75000   0.60215   0.00000  Uiso   1.00
C983   C     0.75000   0.50000   0.39785   0.00000  Uiso   1.00
C984   C     0.75000   0.50000   0.60215   0.00000  Uiso   1.00
C985   C     0.75000   0.50000   0.89785   0.00000  Uiso   1.00
C986   C     0.75000   0.50000   0.10215   0.00000  Uiso   1.00
C987   C     0.50000   0.75000   0.89785   0.00000  Uiso   1.00
C988   C     0.50000   0.75000   0.10215   0.00000  Uiso   1.00
O989   O     0.75000   0.50000   0.25000   0.00000  Uiso   1.00
O990   O     0.75000   0.50000   0.75000   0.00000  Uiso   1.00
O991   O     0.50000   0.75000   0.25000   0.00000  Uiso   1.00
O992   O     0.50000   0.75000   0.75000   0.00000  Uiso   1.00
O993   O     0.75000   0.96964   0.33755   0.00000  Uiso   1.00
O994   O     0.75000   0.53037   0.66245   0.00000  Uiso   1.00
O995   O     0.53036   0.75000   0.33755   0.00000  Uiso   1.00
O996   O     0.96963   0.75000   0.66245   0.00000  Uiso   1.00
O997   O     0.75000   0.53037   0.33755   0.00000  Uiso   1.00
O998   O     0.75000   0.96964   0.66245   0.00000  Uiso   1.00
O999   O     0.96963   0.75000   0.33755   0.00000  Uiso   1.00
O1000  O     0.53036   0.75000   0.66245   0.00000  Uiso   1.00
O1001  O     0.50000   0.71964   0.83755   0.00000  Uiso   1.00
O1002  O     0.50000   0.78037   0.16245   0.00000  Uiso   1.00
O1003  O     0.78036   0.50000   0.83755   0.00000  Uiso   1.00
O1004  O     0.71963   0.50000   0.16245   0.00000  Uiso   1.00
O1005  O     0.50000   0.78037   0.83755   0.00000  Uiso   1.00
O1006  O     0.50000   0.71964   0.16245   0.00000  Uiso   1.00
O1007  O     0.71963   0.50000   0.83755   0.00000  Uiso   1.00
O1008  O     0.78036   0.50000   0.16245   0.00000  Uiso   1.00
H1009  H     0.53353   0.66367   0.46581   0.00000  Uiso   1.00
H1010  H     0.96646   0.83633   0.53419   0.00000  Uiso   1.00
H1011  H     0.83632   0.96645   0.46581   0.00000  Uiso   1.00
H1012  H     0.66368   0.53355   0.53419   0.00000  Uiso   1.00
H1013  H     0.96646   0.83633   0.46581   0.00000  Uiso   1.00
H1014  H     0.53353   0.66367   0.53419   0.00000  Uiso   1.00
H1015  H     0.66368   0.53355   0.46581   0.00000  Uiso   1.00
H1016  H     0.83632   0.96645   0.53419   0.00000  Uiso   1.00
H1017  H     0.78354   0.91367   0.96581   0.00000  Uiso   1.00
H1018  H     0.71646   0.58633   0.03419   0.00000  Uiso   1.00
H1019  H     0.58631   0.71641   0.96581   0.00000  Uiso   1.00
H1020  H     0.91369   0.78359   0.03419   0.00000  Uiso   1.00
H1021  H     0.71646   0.58633   0.96581   0.00000  Uiso   1.00
H1022  H     0.78354   0.91367   0.03419   0.00000  Uiso   1.00
H1023  H     0.91369   0.78359   0.96581   0.00000  Uiso   1.00
H1024  H     0.58631   0.71641   0.03419   0.00000  Uiso   1.00
O1025  O     0.70724   0.57308   0.27302   0.00000  Uiso   1.00
O1026  O     0.79275   0.92693   0.72698   0.00000  Uiso   1.00
O1027  O     0.92692   0.70725   0.27302   0.00000  Uiso   1.00
O1028  O     0.57307   0.79276   0.72698   0.00000  Uiso   1.00
O1029  O     0.79275   0.92693   0.27302   0.00000  Uiso   1.00
O1030  O     0.70724   0.57308   0.72698   0.00000  Uiso   1.00
O1031  O     0.57307   0.79276   0.27302   0.00000  Uiso   1.00
O1032  O     0.92692   0.70725   0.72698   0.00000  Uiso   1.00
O1033  O     0.70724   0.92693   0.72698   0.00000  Uiso   1.00
O1034  O     0.79275   0.57308   0.27302   0.00000  Uiso   1.00
O1035  O     0.92692   0.79276   0.72698   0.00000  Uiso   1.00
O1036  O     0.57307   0.70725   0.27302   0.00000  Uiso   1.00
O1037  O     0.79275   0.57308   0.72698   0.00000  Uiso   1.00
O1038  O     0.70724   0.92693   0.27302   0.00000  Uiso   1.00
O1039  O     0.57307   0.70725   0.72698   0.00000  Uiso   1.00
O1040  O     0.92692   0.79276   0.27302   0.00000  Uiso   1.00
O1041  O     0.95724   0.82308   0.77302   0.00000  Uiso   1.00
O1042  O     0.54275   0.67693   0.22698   0.00000  Uiso   1.00
O1043  O     0.67692   0.95725   0.77302   0.00000  Uiso   1.00
O1044  O     0.82307   0.54276   0.22698   0.00000  Uiso   1.00
O1045  O     0.54275   0.67693   0.77302   0.00000  Uiso   1.00
O1046  O     0.95724   0.82308   0.22698   0.00000  Uiso   1.00
O1047  O     0.82307   0.54276   0.77302   0.00000  Uiso   1.00
O1048  O     0.67692   0.95725   0.22698   0.00000  Uiso   1.00
O1049  O     0.95724   0.67693   0.22698   0.00000  Uiso   1.00
O1050  O     0.54275   0.82308   0.77302   0.00000  Uiso   1.00
O1051  O     0.67692   0.54276   0.22698   0.00000  Uiso   1.00
O1052  O     0.82307   0.95725   0.77302   0.00000  Uiso   1.00
O1053  O     0.54275   0.82308   0.22698   0.00000  Uiso   1.00
O1054  O     0.95724   0.67693   0.77302   0.00000  Uiso   1.00
O1055  O     0.82307   0.95725   0.22698   0.00000  Uiso   1.00
O1056  O     0.67692   0.54276   0.77302   0.00000  Uiso   1.00
C1057  C     0.52380   0.68812   0.47993   0.00000  Uiso   1.00
C1058  C     0.97620   0.81188   0.52007   0.00000  Uiso   1.00
C1059  C     0.81187   0.97619   0.47993   0.00000  Uiso   1.00
C1060  C     0.68813   0.52381   0.52007   0.00000  Uiso   1.00
C1061  C     0.97620   0.81188   0.47993   0.00000  Uiso   1.00
C1062  C     0.52380   0.68812   0.52007   0.00000  Uiso   1.00
C1063  C     0.68813   0.52381   0.47993   0.00000  Uiso   1.00
C1064  C     0.81187   0.97619   0.52007   0.00000  Uiso   1.00
C1065  C     0.77380   0.93813   0.97993   0.00000  Uiso   1.00
C1066  C     0.72620   0.56188   0.02007   0.00000  Uiso   1.00
C1067  C     0.56186   0.72616   0.97993   0.00000  Uiso   1.00
C1068  C     0.93814   0.77384   0.02007   0.00000  Uiso   1.00
C1069  C     0.72620   0.56188   0.97993   0.00000  Uiso   1.00
C1070  C     0.77380   0.93813   0.02007   0.00000  Uiso   1.00
C1071  C     0.93814   0.77384   0.97993   0.00000  Uiso   1.00
C1072  C     0.56186   0.72616   0.02007   0.00000  Uiso   1.00
C1073  C     0.75000   0.50000   0.35567   0.00000  Uiso   1.00
C1074  C     0.75000   0.50000   0.64433   0.00000  Uiso   1.00
C1075  C     0.50000   0.75000   0.35567   0.00000  Uiso   1.00
C1076  C     0.50000   0.75000   0.64433   0.00000  Uiso   1.00
C1077  C     0.50000   0.75000   0.85566   0.00000  Uiso   1.00
C1078  C     0.50000   0.75000   0.14433   0.00000  Uiso   1.00
C1079  C     0.75000   0.50000   0.85566   0.00000  Uiso   1.00
C1080  C     0.75000   0.50000   0.14433   0.00000  Uiso   1.00
C1081  C     0.67994   0.57006   0.25000   0.00000  Uiso   1.00
C1082  C     0.82006   0.92994   0.75000   0.00000  Uiso   1.00
C1083  C     0.92994   0.67994   0.25000   0.00000  Uiso   1.00
C1084  C     0.57006   0.82006   0.75000   0.00000  Uiso   1.00
C1085  C     0.82006   0.92994   0.25000   0.00000  Uiso   1.00
C1086  C     0.67994   0.57006   0.75000   0.00000  Uiso   1.00
C1087  C     0.57006   0.82006   0.25000   0.00000  Uiso   1.00
C1088  C     0.92994   0.67994   0.75000   0.00000  Uiso   1.00
C1089  C     0.67994   0.92994   0.75000   0.00000  Uiso   1.00
C1090  C     0.82006   0.57006   0.25000   0.00000  Uiso   1.00
C1091  C     0.92994   0.82006   0.75000   0.00000  Uiso   1.00
C1092  C     0.57006   0.67994   0.25000   0.00000  Uiso   1.00
C1093  C     0.82006   0.57006   0.75000   0.00000  Uiso   1.00
C1094  C     0.67994   0.92994   0.25000   0.00000  Uiso   1.00
C1095  C     0.57006   0.67994   0.75000   0.00000  Uiso   1.00
C1096  C     0.92994   0.82006   0.25000   0.00000  Uiso   1.00
C1097  C     0.62192   0.90480   0.22490   0.00000  Uiso   1.00
C1098  C     0.87808   0.59520   0.77509   0.00000  Uiso   1.00
C1099  C     0.59559   0.62231   0.22434   0.00000  Uiso   1.00
C1100  C     0.90441   0.87769   0.77566   0.00000  Uiso   1.00
C1101  C     0.87808   0.59520   0.22490   0.00000  Uiso   1.00
C1102  C     0.62192   0.90480   0.77509   0.00000  Uiso   1.00
C1103  C     0.90441   0.87769   0.22434   0.00000  Uiso   1.00
C1104  C     0.59559   0.62231   0.77566   0.00000  Uiso   1.00
C1105  C     0.62231   0.59559   0.77566   0.00000  Uiso   1.00
C1106  C     0.87769   0.90441   0.22434   0.00000  Uiso   1.00
C1107  C     0.59520   0.87808   0.77509   0.00000  Uiso   1.00
C1108  C     0.90480   0.62192   0.22490   0.00000  Uiso   1.00
C1109  C     0.87769   0.90441   0.77566   0.00000  Uiso   1.00
C1110  C     0.62231   0.59559   0.22434   0.00000  Uiso   1.00
C1111  C     0.90480   0.62192   0.77509   0.00000  Uiso   1.00
C1112  C     0.59520   0.87808   0.22490   0.00000  Uiso   1.00
C1113  C     0.87192   0.65480   0.72490   0.00000  Uiso   1.00
C1114  C     0.62808   0.84520   0.27509   0.00000  Uiso   1.00
C1115  C     0.84559   0.87231   0.72434   0.00000  Uiso   1.00
C1116  C     0.65441   0.62769   0.27566   0.00000  Uiso   1.00
C1117  C     0.62808   0.84520   0.72490   0.00000  Uiso   1.00
C1118  C     0.87192   0.65480   0.27509   0.00000  Uiso   1.00
C1119  C     0.65441   0.62769   0.72434   0.00000  Uiso   1.00
C1120  C     0.84559   0.87231   0.27566   0.00000  Uiso   1.00
C1121  C     0.87231   0.84559   0.27566   0.00000  Uiso   1.00
C1122  C     0.62769   0.65441   0.72434   0.00000  Uiso   1.00
C1123  C     0.84520   0.62808   0.27509   0.00000  Uiso   1.00
C1124  C     0.65480   0.87192   0.72490   0.00000  Uiso   1.00
C1125  C     0.62769   0.65441   0.27566   0.00000  Uiso   1.00
C1126  C     0.87231   0.84559   0.72434   0.00000  Uiso   1.00
C1127  C     0.65480   0.87192   0.27509   0.00000  Uiso   1.00
C1128  C     0.84520   0.62808   0.72490   0.00000  Uiso   1.00
H1129  H     0.61911   0.92770   0.20527   0.00000  Uiso   1.00
H1130  H     0.88089   0.57231   0.79473   0.00000  Uiso   1.00
H1131  H     0.57301   0.61982   0.20426   0.00000  Uiso   1.00
H1132  H     0.92699   0.88018   0.79574   0.00000  Uiso   1.00
H1133  H     0.88089   0.57231   0.20527   0.00000  Uiso   1.00
H1134  H     0.61911   0.92770   0.79473   0.00000  Uiso   1.00
H1135  H     0.92699   0.88018   0.20426   0.00000  Uiso   1.00
H1136  H     0.57301   0.61982   0.79574   0.00000  Uiso   1.00
H1137  H     0.61982   0.57301   0.79574   0.00000  Uiso   1.00
H1138  H     0.88018   0.92699   0.20426   0.00000  Uiso   1.00
H1139  H     0.57230   0.88089   0.79473   0.00000  Uiso   1.00
H1140  H     0.92769   0.61911   0.20527   0.00000  Uiso   1.00
H1141  H     0.88018   0.92699   0.79574   0.00000  Uiso   1.00
H1142  H     0.61982   0.57301   0.20426   0.00000  Uiso   1.00
H1143  H     0.92769   0.61911   0.79473   0.00000  Uiso   1.00
H1144  H     0.57230   0.88089   0.20527   0.00000  Uiso   1.00
H1145  H     0.86911   0.67769   0.70527   0.00000  Uiso   1.00
H1146  H     0.63089   0.82231   0.29473   0.00000  Uiso   1.00
H1147  H     0.82301   0.86982   0.70426   0.00000  Uiso   1.00
H1148  H     0.67699   0.63018   0.29574   0.00000  Uiso   1.00
H1149  H     0.63089   0.82231   0.70527   0.00000  Uiso   1.00
H1150  H     0.86911   0.67770   0.29473   0.00000  Uiso   1.00
H1151  H     0.67699   0.63018   0.70426   0.00000  Uiso   1.00
H1152  H     0.82301   0.86982   0.29574   0.00000  Uiso   1.00
H1153  H     0.86982   0.82301   0.29574   0.00000  Uiso   1.00
H1154  H     0.63018   0.67699   0.70426   0.00000  Uiso   1.00
H1155  H     0.82230   0.63089   0.29473   0.00000  Uiso   1.00
H1156  H     0.67769   0.86911   0.70527   0.00000  Uiso   1.00
H1157  H     0.63018   0.67699   0.29574   0.00000  Uiso   1.00
H1158  H     0.86982   0.82301   0.70426   0.00000  Uiso   1.00
H1159  H     0.67769   0.86911   0.29473   0.00000  Uiso   1.00
H1160  H     0.82230   0.63089   0.70527   0.00000  Uiso   1.00
C1161  C     0.51176   0.71864   0.45887   0.00000  Uiso   1.00
C1162  C     0.98824   0.78136   0.54113   0.00000  Uiso   1.00
C1163  C     0.78135   0.98823   0.45887   0.00000  Uiso   1.00
C1164  C     0.71864   0.51177   0.54113   0.00000  Uiso   1.00
C1165  C     0.98824   0.78136   0.45887   0.00000  Uiso   1.00
C1166  C     0.51176   0.71864   0.54113   0.00000  Uiso   1.00
C1167  C     0.71864   0.51177   0.45887   0.00000  Uiso   1.00
C1168  C     0.78135   0.98823   0.54113   0.00000  Uiso   1.00
C1169  C     0.76176   0.96864   0.95887   0.00000  Uiso   1.00
C1170  C     0.73824   0.53136   0.04113   0.00000  Uiso   1.00
C1171  C     0.53135   0.73822   0.95887   0.00000  Uiso   1.00
C1172  C     0.96865   0.76178   0.04113   0.00000  Uiso   1.00
C1173  C     0.73824   0.53136   0.95887   0.00000  Uiso   1.00
C1174  C     0.76176   0.96864   0.04113   0.00000  Uiso   1.00
C1175  C     0.96865   0.76178   0.95887   0.00000  Uiso   1.00
C1176  C     0.53135   0.73822   0.04113   0.00000  Uiso   1.00
C1177  C     0.59813   0.84813   0.25000   0.00000  Uiso   1.00
C1178  C     0.90187   0.65187   0.75000   0.00000  Uiso   1.00
C1179  C     0.65187   0.59813   0.25000   0.00000  Uiso   1.00
C1180  C     0.84813   0.90187   0.75000   0.00000  Uiso   1.00
C1181  C     0.90187   0.65187   0.25000   0.00000  Uiso   1.00
C1182  C     0.59813   0.84813   0.75000   0.00000  Uiso   1.00
C1183  C     0.84813   0.90187   0.25000   0.00000  Uiso   1.00
C1184  C     0.65187   0.59813   0.75000   0.00000  Uiso   1.00
C1185  C     0.59813   0.65187   0.75000   0.00000  Uiso   1.00
C1186  C     0.90187   0.84813   0.25000   0.00000  Uiso   1.00
C1187  C     0.65187   0.90187   0.75000   0.00000  Uiso   1.00
C1188  C     0.84813   0.59813   0.25000   0.00000  Uiso   1.00
C1189  C     0.90187   0.84813   0.75000   0.00000  Uiso   1.00
C1190  C     0.59813   0.65187   0.25000   0.00000  Uiso   1.00
C1191  C     0.84813   0.59813   0.75000   0.00000  Uiso   1.00
C1192  C     0.65187   0.90187   0.25000   0.00000  Uiso   1.00
C1193  C     0.50000   0.75000   0.47937   0.00000  Uiso   1.00
C1194  C     0.50000   0.75000   0.52063   0.00000  Uiso   1.00
C1195  C     0.75000   0.50000   0.47937   0.00000  Uiso   1.00
C1196  C     0.75000   0.50000   0.52063   0.00000  Uiso   1.00
C1197  C     0.75000   0.50000   0.97937   0.00000  Uiso   1.00
C1198  C     0.75000   0.50000   0.02063   0.00000  Uiso   1.00
C1199  C     0.50000   0.75000   0.97937   0.00000  Uiso   1.00
C1200  C     0.50000   0.75000   0.02063   0.00000  Uiso   1.00
C1201  C     0.97846   0.81630   0.39598   0.00000  Uiso   1.00
H1202  H     0.98215   0.81471   0.36415   0.00000  Uiso   1.00
H1203  H     0.94935   0.82283   0.40144   0.00000  Uiso   1.00
H1204  H     0.99582   0.83929   0.40588   0.00000  Uiso   1.00
C1205  C     0.52154   0.68370   0.60401   0.00000  Uiso   1.00
H1206  H     0.51785   0.68529   0.63585   0.00000  Uiso   1.00
H1207  H     0.50418   0.66071   0.59412   0.00000  Uiso   1.00
H1208  H     0.55065   0.67717   0.59856   0.00000  Uiso   1.00
C1209  C     0.68370   0.52155   0.39598   0.00000  Uiso   1.00
H1210  H     0.68529   0.51786   0.36415   0.00000  Uiso   1.00
H1211  H     0.66071   0.50419   0.40588   0.00000  Uiso   1.00
H1212  H     0.67718   0.55066   0.40143   0.00000  Uiso   1.00
C1213  C     0.81630   0.97845   0.60401   0.00000  Uiso   1.00
H1214  H     0.81471   0.98214   0.63585   0.00000  Uiso   1.00
H1215  H     0.82282   0.94934   0.59856   0.00000  Uiso   1.00
H1216  H     0.83929   0.99581   0.59412   0.00000  Uiso   1.00
C1217  C     0.52154   0.68370   0.39598   0.00000  Uiso   1.00
H1218  H     0.51785   0.68529   0.36414   0.00000  Uiso   1.00
H1219  H     0.55065   0.67717   0.40144   0.00000  Uiso   1.00
H1220  H     0.50418   0.66071   0.40588   0.00000  Uiso   1.00
C1221  C     0.97846   0.81630   0.60401   0.00000  Uiso   1.00
H1222  H     0.98215   0.81471   0.63585   0.00000  Uiso   1.00
H1223  H     0.99582   0.83929   0.59412   0.00000  Uiso   1.00
H1224  H     0.94935   0.82283   0.59856   0.00000  Uiso   1.00
C1225  C     0.81630   0.97845   0.39598   0.00000  Uiso   1.00
H1226  H     0.81471   0.98214   0.36415   0.00000  Uiso   1.00
H1227  H     0.83929   0.99581   0.40588   0.00000  Uiso   1.00
H1228  H     0.82282   0.94934   0.40143   0.00000  Uiso   1.00
C1229  C     0.68370   0.52155   0.60401   0.00000  Uiso   1.00
H1230  H     0.68529   0.51786   0.63585   0.00000  Uiso   1.00
H1231  H     0.67718   0.55066   0.59856   0.00000  Uiso   1.00
H1232  H     0.66071   0.50419   0.59412   0.00000  Uiso   1.00
C1233  C     0.72846   0.56630   0.89598   0.00000  Uiso   1.00
H1234  H     0.73214   0.56471   0.86415   0.00000  Uiso   1.00
H1235  H     0.69935   0.57283   0.90144   0.00000  Uiso   1.00
H1236  H     0.74582   0.58929   0.90588   0.00000  Uiso   1.00
C1237  C     0.77154   0.93370   0.10401   0.00000  Uiso   1.00
H1238  H     0.76785   0.93529   0.13585   0.00000  Uiso   1.00
H1239  H     0.75418   0.91071   0.09412   0.00000  Uiso   1.00
H1240  H     0.80065   0.92717   0.09856   0.00000  Uiso   1.00
C1241  C     0.93371   0.77157   0.89598   0.00000  Uiso   1.00
H1242  H     0.93529   0.76788   0.86415   0.00000  Uiso   1.00
H1243  H     0.91071   0.75422   0.90589   0.00000  Uiso   1.00
H1244  H     0.92720   0.80068   0.90143   0.00000  Uiso   1.00
C1245  C     0.56629   0.72843   0.10401   0.00000  Uiso   1.00
H1246  H     0.56470   0.73213   0.13585   0.00000  Uiso   1.00
H1247  H     0.57280   0.69932   0.09857   0.00000  Uiso   1.00
H1248  H     0.58929   0.74578   0.09411   0.00000  Uiso   1.00
C1249  C     0.77154   0.93370   0.89598   0.00000  Uiso   1.00
H1250  H     0.76785   0.93529   0.86415   0.00000  Uiso   1.00
H1251  H     0.80065   0.92717   0.90144   0.00000  Uiso   1.00
H1252  H     0.75418   0.91071   0.90588   0.00000  Uiso   1.00
C1253  C     0.72846   0.56630   0.10401   0.00000  Uiso   1.00
H1254  H     0.73214   0.56471   0.13585   0.00000  Uiso   1.00
H1255  H     0.74582   0.58929   0.09412   0.00000  Uiso   1.00
H1256  H     0.69935   0.57283   0.09856   0.00000  Uiso   1.00
C1257  C     0.56629   0.72843   0.89598   0.00000  Uiso   1.00
H1258  H     0.58929   0.74578   0.90589   0.00000  Uiso   1.00
H1259  H     0.57280   0.69932   0.90143   0.00000  Uiso   1.00
H1260  H     0.56470   0.73213   0.86415   0.00000  Uiso   1.00
C1261  C     0.93371   0.77157   0.10401   0.00000  Uiso   1.00
H1262  H     0.91071   0.75422   0.09411   0.00000  Uiso   1.00
H1263  H     0.93529   0.76787   0.13585   0.00000  Uiso   1.00
H1264  H     0.92720   0.80068   0.09857   0.00000  Uiso   1.00
loop_
_geom_bond_atom_site_label_1
_geom_bond_atom_site_label_2
_geom_bond_distance
_geom_bond_site_symmetry_2
_ccdc_geom_bond_type
Zn1    O41     1.949   .     S
Zn1    O732    1.938   1_545 S
Zn1    O56     1.951   .     S
Zn1    O103    1.937   .     S
Zn2    O99     1.938   .     S
Zn2    O42     1.949   .     S
Zn2    O55     1.951   .     S
Zn2    O736    1.937   1_545 S
Zn3    O43     1.949   .     S
Zn3    O94     1.937   .     S
Zn3    O58     1.951   .     S
Zn3    O417    1.938   1_455 S
Zn4    O102    1.938   .     S
Zn4    O44     1.949   .     S
Zn4    O57     1.951   .     S
Zn4    O409    1.937   1_455 S
Zn5    O739    1.937   1_545 S
Zn5    O41     1.949   .     S
Zn5    O60     1.951   .     S
Zn5    O96     1.938   .     S
Zn6    O42     1.949   .     S
Zn6    O108    1.937   .     S
Zn6    O59     1.951   .     S
Zn6    O727    1.938   1_545 S
Zn7    O54     1.951   .     S
Zn7    O414    1.937   1_455 S
Zn7    O43     1.949   .     S
Zn7    O105    1.938   .     S
Zn8    O422    1.938   1_455 S
Zn8    O44     1.949   .     S
Zn8    O53     1.951   .     S
Zn8    O97     1.937   .     S
Zn9    O48     1.951   .     S
Zn9    O87     1.937   .     S
Zn9    O84     1.938   .     S
Zn9    O360    1.949   .     S
Zn10   O47     1.951   .     S
Zn10   O83     1.938   .     S
Zn10   O88     1.937   .     S
Zn10   O43     1.949   .     S
Zn11   O85     1.938   .     S
Zn11   O50     1.951   .     S
Zn11   O78     1.937   .     S
Zn11   O674    1.949   .     S
Zn12   O49     1.951   .     S
Zn12   O86     1.938   .     S
Zn12   O77     1.937   .     S
Zn12   O41     1.949   .     S
Zn13   O91     1.937   .     S
Zn13   O44     1.949   .     S
Zn13   O80     1.938   .     S
Zn13   O52     1.951   .     S
Zn14   O79     1.938   .     S
Zn14   O51     1.951   .     S
Zn14   O92     1.937   .     S
Zn14   O359    1.949   .     S
Zn15   O42     1.949   .     S
Zn15   O82     1.937   .     S
Zn15   O89     1.938   .     S
Zn15   O46     1.951   .     S
Zn16   O45     1.951   .     S
Zn16   O81     1.937   .     S
Zn16   O673    1.949   .     S
Zn16   O90     1.938   .     S
C17    C253    1.524   .     S
C17    C217    1.412   .     A
C17    C349    1.413   .     S
C18    C257    1.524   .     S
C18    C218    1.412   .     A
C18    C34     1.413   .     S
C19    C35     1.413   .     A
C19    C261    1.524   .     S
C19    C219    1.412   .     A
C20    C668    1.413   .     A
C20    C220    1.412   .     A
C20    C265    1.524   .     S
C21    C33     1.413   .     A
C21    C213    1.412   .     A
C21    C269    1.524   .     S
C22    C273    1.524   .     S
C22    C350    1.413   .     A
C22    C214    1.412   .     A
C23    C215    1.412   .     A
C23    C277    1.524   .     S
C23    C667    1.413   .     S
C24    C281    1.524   .     S
C24    C216    1.412   .     A
C24    C36     1.413   .     S
C25    C225    1.412   .     A
C25    C285    1.524   .     S
C25    C37     1.413   .     S
C26    C670    1.413   .     A
C26    C226    1.412   .     A
C26    C289    1.524   .     S
C27    C227    1.412   .     A
C27    C293    1.524   .     S
C27    C355    1.413   .     A
C28    C228    1.412   .     A
C28    C297    1.524   .     S
C28    C40     1.413   .     S
C29    C221    1.412   .     A
C29    C669    1.413   .     A
C29    C301    1.524   .     S
C30    C222    1.412   .     A
C30    C305    1.524   .     S
C30    C38     1.413   .     S
C31    C309    1.524   .     S
C31    C223    1.412   .     A
C31    C39     1.413   .     S
C32    C224    1.412   .     A
C32    C313    1.524   .     S
C32    C356    1.413   .     A
C33    C127    1.453   .     S
C33    C333    1.413   1_455 S
C34    C338    1.413   1_455 A
C34    C128    1.453   .     S
C35    C655    1.413   1_545 S
C35    C125    1.453   .     S
C36    C126    1.453   .     S
C36    C652    1.413   1_545 A
C37    C131    1.453   .     S
C37    C661    1.413   1_545 A
C38    C658    1.413   1_545 A
C38    C132    1.453   .     S
C39    C129    1.453   .     S
C39    C343    1.413   1_455 A
C40    C130    1.453   .     S
C40    C348    1.413   1_455 A
O41    Zn648   1.949   1_545 S
O42    Zn643   1.949   1_545 S
O43    Zn330   1.949   1_455 S
O44    Zn325   1.949   1_455 S
O45    C757    1.277   .     A
O46    C126    1.277   .     S
O47    C127    1.277   .     A
O48    C444    1.277   .     A
O49    C125    1.277   .     S
O50    C758    1.277   .     A
O51    C443    1.277   .     S
O52    C128    1.277   .     S
O53    C129    1.277   .     S
O54    C130    1.277   .     A
O55    C131    1.277   .     A
O56    C132    1.277   .     S
O57    C129    1.277   .     A
O58    C130    1.277   .     A
O59    C131    1.277   .     A
O60    C132    1.277   .     S
H61    C109    1.081   .     S
H62    C110    1.081   .     S
H63    C111    1.081   .     S
H64    C112    1.081   .     S
H65    C113    1.081   .     S
H66    C114    1.081   .     S
H67    C115    1.081   .     S
H68    C116    1.081   .     S
H69    C117    1.081   .     S
H70    C118    1.081   .     S
H71    C119    1.081   .     S
H72    C120    1.081   .     S
H73    C121    1.081   .     S
H74    C122    1.081   .     S
H75    C123    1.081   .     S
H76    C124    1.081   .     S
O77    C133    1.282   .     A
O78    C134    1.282   .     A
O79    C135    1.282   .     A
O80    C136    1.282   .     A
O81    C137    1.282   .     A
O82    C138    1.282   .     A
O83    C139    1.282   .     A
O84    C140    1.282   .     A
O85    C141    1.282   .     A
O86    C142    1.282   .     A
O87    C143    1.282   .     A
O88    C144    1.282   .     A
O89    C145    1.282   .     A
O90    C146    1.282   .     A
O91    C147    1.282   .     A
O92    C148    1.282   .     A
O93    C143    1.282   .     A
O93    Zn320   1.937   .     S
O94    C144    1.282   .     A
O95    C141    1.282   .     A
O95    Zn638   1.938   .     S
O96    C142    1.282   .     A
O97    C147    1.282   .     A
O98    C148    1.282   .     A
O98    Zn323   1.937   .     S
O99    C145    1.282   .     A
O100   Zn633   1.938   .     S
O100   C146    1.282   .     A
O101   C135    1.282   .     A
O101   Zn319   1.938   .     S
O102   C136    1.282   .     A
O103   C133    1.282   .     A
O104   C134    1.282   .     A
O104   Zn634   1.937   .     S
O105   C139    1.282   .     A
O106   C140    1.282   .     A
O106   Zn324   1.938   .     S
O107   Zn637   1.937   .     S
O107   C137    1.282   .     A
O108   C138    1.282   .     A
C109   C114    1.383   .     A
C109   C213    1.405   .     A
C110   C214    1.405   .     A
C110   C113    1.383   .     A
C111   C215    1.405   .     A
C111   C116    1.383   .     A
C112   C216    1.405   .     A
C112   C115    1.383   .     A
C113   C217    1.405   .     A
C114   C218    1.405   .     A
C115   C219    1.405   .     A
C116   C220    1.405   .     A
C117   C221    1.405   .     A
C117   C122    1.383   1_556 S
C118   C222    1.405   .     A
C118   C121    1.383   1_554 S
C119   C223    1.405   .     A
C119   C124    1.383   1_556 S
C120   C224    1.405   .     A
C120   C123    1.383   1_554 S
C121   C225    1.405   .     A
C121   C118    1.383   1_556 S
C122   C226    1.405   .     A
C122   C117    1.383   1_554 S
C123   C227    1.405   .     A
C123   C120    1.383   1_556 S
C124   C228    1.405   .     A
C124   C119    1.383   1_554 S
C125   O677    1.277   1_545 A
C126   O682    1.277   1_545 A
C127   O367    1.277   1_455 S
C128   O364    1.277   1_455 A
C133   C231    1.456   .     S
C134   C232    1.456   .     S
C135   C233    1.456   .     S
C136   C234    1.456   .     S
C137   C235    1.456   .     S
C138   C236    1.456   .     S
C139   C229    1.456   .     S
C140   C230    1.456   .     S
C141   C239    1.456   .     S
C142   C240    1.456   .     S
C143   C241    1.456   .     S
C144   C242    1.456   .     S
C145   C243    1.456   .     S
C146   C244    1.456   .     S
C147   C237    1.456   .     S
C148   C238    1.456   .     S
C149   C164    1.386   .     A
C149   H181    1.083   .     S
C149   C244    1.402   .     A
C150   C163    1.386   .     A
C150   C243    1.402   .     A
C150   H182    1.083   .     S
C151   H183    1.083   .     S
C151   C162    1.386   .     A
C151   C242    1.402   .     A
C152   C161    1.386   .     A
C152   C241    1.402   .     A
C152   H184    1.083   .     S
C153   C160    1.386   .     A
C153   C240    1.402   .     A
C153   H185    1.083   .     S
C154   H186    1.083   .     S
C154   C159    1.386   .     A
C154   C239    1.402   .     A
C155   C158    1.386   .     A
C155   H187    1.083   .     S
C155   C238    1.402   .     A
C156   C237    1.402   .     A
C156   H188    1.083   .     S
C156   C157    1.386   .     A
C157   C236    1.402   .     A
C157   H189    1.083   .     S
C158   H190    1.083   .     S
C158   C235    1.402   .     A
C159   C234    1.402   .     A
C159   H191    1.083   .     S
C160   H192    1.083   .     S
C160   C233    1.402   .     A
C161   H193    1.083   .     S
C161   C232    1.402   .     A
C162   C231    1.402   .     A
C162   H194    1.083   .     S
C163   C230    1.402   .     A
C163   H195    1.083   .     S
C164   H196    1.083   .     S
C164   C229    1.402   .     A
C165   H197    1.083   .     S
C165   C230    1.402   .     A
C165   C180    1.386   .     A
C166   H198    1.083   .     S
C166   C229    1.402   .     A
C166   C179    1.386   .     A
C167   C178    1.386   .     A
C167   H199    1.083   .     S
C167   C232    1.402   .     A
C168   H200    1.083   .     S
C168   C177    1.386   .     A
C168   C231    1.402   .     A
C169   C176    1.386   .     A
C169   H201    1.083   .     S
C169   C234    1.402   .     A
C170   H202    1.083   .     S
C170   C233    1.402   .     A
C170   C175    1.386   .     A
C171   C174    1.386   .     A
C171   H203    1.083   .     S
C171   C236    1.402   .     A
C172   H204    1.083   .     S
C172   C235    1.402   .     A
C172   C173    1.386   .     A
C173   H205    1.083   .     S
C173   C238    1.402   .     A
C174   H206    1.083   .     S
C174   C237    1.402   .     A
C175   H207    1.083   .     S
C175   C240    1.402   .     A
C176   H208    1.083   .     S
C176   C239    1.402   .     A
C177   H209    1.083   .     S
C177   C242    1.402   .     A
C178   H210    1.083   .     S
C178   C241    1.402   .     A
C179   H211    1.083   .     S
C179   C244    1.402   .     A
C180   H212    1.083   .     S
C180   C243    1.402   .     A
C213   C245    1.417   .     A
C214   C562    1.417   .     A
C215   C879    1.417   .     A
C216   C248    1.417   .     S
C217   C561    1.417   .     S
C218   C246    1.417   .     S
C219   C247    1.417   .     S
C220   C880    1.417   .     A
C221   C881    1.417   .     S
C222   C250    1.417   .     S
C223   C251    1.417   .     S
C224   C568    1.417   .     A
C225   C249    1.417   .     A
C226   C882    1.417   .     A
C227   C567    1.417   .     A
C228   C252    1.417   .     S
C245   C533    1.417   1_455 S
C245   C246    1.421   .     S
C246   C530    1.417   1_455 A
C247   C847    1.417   1_545 A
C247   C248    1.421   .     A
C248   C852    1.417   1_545 A
C249   C853    1.417   1_545 S
C249   C250    1.421   1_556 S
C250   C858    1.417   1_545 A
C250   C249    1.421   1_554 S
C251   C543    1.417   1_455 A
C251   C252    1.421   1_556 S
C252   C540    1.417   1_455 A
C252   C251    1.421   1_554 S
C253   H255    1.110   .     S
C253   H256    1.110   .     S
C253   H254    1.107   .     S
C257   H258    1.107   .     S
C257   H260    1.110   .     S
C257   H259    1.110   .     S
C261   H264    1.110   .     S
C261   H262    1.107   .     S
C261   H263    1.110   .     S
C265   H267    1.110   .     S
C265   H266    1.107   .     S
C265   H268    1.110   .     S
C269   H271    1.110   .     S
C269   H270    1.107   .     S
C269   H272    1.110   .     S
C273   H276    1.110   .     S
C273   H275    1.110   .     S
C273   H274    1.107   .     S
C277   H278    1.107   .     S
C277   H280    1.110   .     S
C277   H279    1.110   .     S
C281   H284    1.110   .     S
C281   H283    1.110   .     S
C281   H282    1.107   .     S
C285   H287    1.110   .     S
C285   H286    1.107   .     S
C285   H288    1.110   .     S
C289   H290    1.107   .     S
C289   H292    1.110   .     S
C289   H291    1.110   .     S
C293   H294    1.107   .     S
C293   H296    1.110   .     S
C293   H295    1.110   .     S
C297   H299    1.110   .     S
C297   H298    1.107   .     S
C297   H300    1.110   .     S
C301   H302    1.107   .     S
C301   H304    1.110   .     S
C301   H303    1.110   .     S
C305   H307    1.110   .     S
C305   H306    1.107   .     S
C305   H308    1.110   .     S
C309   H311    1.110   .     S
C309   H310    1.110   .     S
C309   H312    1.107   .     S
C313   H315    1.107   .     S
C313   H314    1.110   .     S
C313   H316    1.110   .     S
Zn317  O357    1.949   .     S
Zn317  O1048   1.938   1_545 S
Zn317  O372    1.951   .     S
Zn317  O419    1.937   .     S
Zn318  O415    1.938   .     S
Zn318  O358    1.949   .     S
Zn318  O371    1.951   .     S
Zn318  O1052   1.937   1_545 S
Zn319  O359    1.949   .     S
Zn319  O410    1.937   .     S
Zn319  O374    1.951   .     S
Zn320  O418    1.938   .     S
Zn320  O360    1.949   .     S
Zn320  O373    1.951   .     S
Zn321  O1055   1.937   1_545 S
Zn321  O357    1.949   .     S
Zn321  O376    1.951   .     S
Zn321  O412    1.938   .     S
Zn322  O358    1.949   .     S
Zn322  O424    1.937   .     S
Zn322  O375    1.951   .     S
Zn322  O1043   1.938   1_545 S
Zn323  O370    1.951   .     S
Zn323  O359    1.949   .     S
Zn323  O421    1.938   .     S
Zn324  O360    1.949   .     S
Zn324  O369    1.951   .     S
Zn324  O413    1.937   .     S
Zn325  O364    1.951   .     S
Zn325  O403    1.937   .     S
Zn325  O400    1.938   .     S
Zn325  O44     1.949   1_655 S
Zn326  O363    1.951   .     S
Zn326  O399    1.938   .     S
Zn326  O404    1.937   .     S
Zn326  O359    1.949   .     S
Zn327  O401    1.938   .     S
Zn327  O366    1.951   .     S
Zn327  O394    1.937   .     S
Zn327  O990    1.949   .     S
Zn328  O365    1.951   .     S
Zn328  O402    1.938   .     S
Zn328  O393    1.937   .     S
Zn328  O357    1.949   .     S
Zn329  O407    1.937   .     S
Zn329  O360    1.949   .     S
Zn329  O396    1.938   .     S
Zn329  O368    1.951   .     S
Zn330  O395    1.938   .     S
Zn330  O367    1.951   .     S
Zn330  O408    1.937   .     S
Zn330  O43     1.949   1_655 S
Zn331  O358    1.949   .     S
Zn331  O398    1.937   .     S
Zn331  O405    1.938   .     S
Zn331  O362    1.951   .     S
Zn332  O361    1.951   .     S
Zn332  O397    1.937   .     S
Zn332  O989    1.949   .     S
Zn332  O406    1.938   .     S
C333   C569    1.524   .     S
C333   C533    1.412   .     A
C333   C33     1.413   1_655 S
C334   C573    1.524   .     S
C334   C534    1.412   .     A
C334   C350    1.413   .     S
C335   C351    1.413   .     A
C335   C577    1.524   .     S
C335   C535    1.412   .     A
C336   C984    1.413   .     A
C336   C536    1.412   .     A
C336   C581    1.524   .     S
C337   C349    1.413   .     A
C337   C529    1.412   .     A
C337   C585    1.524   .     S
C338   C589    1.524   .     S
C338   C34     1.413   1_655 A
C338   C530    1.412   .     A
C339   C531    1.412   .     A
C339   C593    1.524   .     S
C339   C983    1.413   .     S
C340   C597    1.524   .     S
C340   C532    1.412   .     A
C340   C352    1.413   .     S
C341   C541    1.412   .     A
C341   C601    1.524   .     S
C341   C353    1.413   .     S
C342   C986    1.413   .     A
C342   C542    1.412   .     A
C342   C605    1.524   .     S
C343   C543    1.412   .     A
C343   C609    1.524   .     S
C343   C39     1.413   1_655 A
C344   C544    1.412   .     A
C344   C613    1.524   .     S
C344   C356    1.413   .     S
C345   C537    1.412   .     A
C345   C985    1.413   .     A
C345   C617    1.524   .     S
C346   C538    1.412   .     A
C346   C621    1.524   .     S
C346   C354    1.413   .     S
C347   C625    1.524   .     S
C347   C539    1.412   .     A
C347   C355    1.413   .     S
C348   C540    1.412   .     A
C348   C629    1.524   .     S
C348   C40     1.413   1_655 A
C349   C443    1.453   .     S
C350   C444    1.453   .     S
C351   C971    1.413   1_545 S
C351   C441    1.453   .     S
C352   C442    1.453   .     S
C352   C968    1.413   1_545 A
C353   C447    1.453   .     S
C353   C977    1.413   1_545 A
C354   C974    1.413   1_545 A
C354   C448    1.453   .     S
C355   C445    1.453   .     S
C356   C446    1.453   .     S
O357   Zn964   1.949   1_545 S
O358   Zn959   1.949   1_545 S
O361   C1073   1.277   .     A
O362   C442    1.277   .     S
O363   C443    1.277   .     A
O364   C128    1.277   1_655 A
O365   C441    1.277   .     S
O366   C1074   1.277   .     A
O367   C127    1.277   1_655 S
O368   C444    1.277   .     S
O369   C445    1.277   .     S
O370   C446    1.277   .     A
O371   C447    1.277   .     A
O372   C448    1.277   .     S
O373   C445    1.277   .     A
O374   C446    1.277   .     A
O375   C447    1.277   .     A
O376   C448    1.277   .     S
H377   C425    1.081   .     S
H378   C426    1.081   .     S
H379   C427    1.081   .     S
H380   C428    1.081   .     S
H381   C429    1.081   .     S
H382   C430    1.081   .     S
H383   C431    1.081   .     S
H384   C432    1.081   .     S
H385   C433    1.081   .     S
H386   C434    1.081   .     S
H387   C435    1.081   .     S
H388   C436    1.081   .     S
H389   C437    1.081   .     S
H390   C438    1.081   .     S
H391   C439    1.081   .     S
H392   C440    1.081   .     S
O393   C449    1.282   .     A
O394   C450    1.282   .     A
O395   C451    1.282   .     A
O396   C452    1.282   .     A
O397   C453    1.282   .     A
O398   C454    1.282   .     A
O399   C455    1.282   .     A
O400   C456    1.282   .     A
O401   C457    1.282   .     A
O402   C458    1.282   .     A
O403   C459    1.282   .     A
O404   C460    1.282   .     A
O405   C461    1.282   .     A
O406   C462    1.282   .     A
O407   C463    1.282   .     A
O408   C464    1.282   .     A
O409   C459    1.282   .     A
O409   Zn4     1.937   1_655 S
O410   C460    1.282   .     A
O411   C457    1.282   .     A
O411   Zn954   1.938   .     S
O412   C458    1.282   .     A
O413   C463    1.282   .     A
O414   C464    1.282   .     A
O414   Zn7     1.937   1_655 S
O415   C461    1.282   .     A
O416   Zn949   1.938   .     S
O416   C462    1.282   .     A
O417   C451    1.282   .     A
O417   Zn3     1.938   1_655 S
O418   C452    1.282   .     A
O419   C449    1.282   .     A
O420   C450    1.282   .     A
O420   Zn950   1.937   .     S
O421   C455    1.282   .     A
O422   C456    1.282   .     A
O422   Zn8     1.938   1_655 S
O423   Zn953   1.937   .     S
O423   C453    1.282   .     A
O424   C454    1.282   .     A
C425   C430    1.383   .     A
C425   C529    1.405   .     A
C426   C530    1.405   .     A
C426   C429    1.383   .     A
C427   C531    1.405   .     A
C427   C432    1.383   .     A
C428   C532    1.405   .     A
C428   C431    1.383   .     A
C429   C533    1.405   .     A
C430   C534    1.405   .     A
C431   C535    1.405   .     A
C432   C536    1.405   .     A
C433   C537    1.405   .     A
C433   C438    1.383   1_556 S
C434   C538    1.405   .     A
C434   C437    1.383   1_554 S
C435   C539    1.405   .     A
C435   C440    1.383   1_556 S
C436   C540    1.405   .     A
C436   C439    1.383   1_554 S
C437   C541    1.405   .     A
C437   C434    1.383   1_556 S
C438   C542    1.405   .     A
C438   C433    1.383   1_554 S
C439   C543    1.405   .     A
C439   C436    1.383   1_556 S
C440   C544    1.405   .     A
C440   C435    1.383   1_554 S
C441   O993    1.277   1_545 A
C442   O998    1.277   1_545 A
C449   C547    1.456   .     S
C450   C548    1.456   .     S
C451   C549    1.456   .     S
C452   C550    1.456   .     S
C453   C551    1.456   .     S
C454   C552    1.456   .     S
C455   C545    1.456   .     S
C456   C546    1.456   .     S
C457   C555    1.456   .     S
C458   C556    1.456   .     S
C459   C557    1.456   .     S
C460   C558    1.456   .     S
C461   C559    1.456   .     S
C462   C560    1.456   .     S
C463   C553    1.456   .     S
C464   C554    1.456   .     S
C465   C480    1.386   .     A
C465   H497    1.083   .     S
C465   C560    1.402   .     A
C466   C479    1.386   .     A
C466   C559    1.402   .     A
C466   H498    1.083   .     S
C467   H499    1.083   .     S
C467   C478    1.386   .     A
C467   C558    1.402   .     A
C468   C477    1.386   .     A
C468   C557    1.402   .     A
C468   H500    1.083   .     S
C469   C476    1.386   .     A
C469   C556    1.402   .     A
C469   H501    1.083   .     S
C470   H502    1.083   .     S
C470   C475    1.386   .     A
C470   C555    1.402   .     A
C471   C474    1.386   .     A
C471   H503    1.083   .     S
C471   C554    1.402   .     A
C472   C553    1.402   .     A
C472   H504    1.083   .     S
C472   C473    1.386   .     A
C473   C552    1.402   .     A
C473   H505    1.083   .     S
C474   H506    1.083   .     S
C474   C551    1.402   .     A
C475   C550    1.402   .     A
C475   H507    1.083   .     S
C476   H508    1.083   .     S
C476   C549    1.402   .     A
C477   H509    1.083   .     S
C477   C548    1.402   .     A
C478   C547    1.402   .     A
C478   H510    1.083   .     S
C479   C546    1.402   .     A
C479   H511    1.083   .     S
C480   H512    1.083   .     S
C480   C545    1.402   .     A
C481   H513    1.083   .     S
C481   C546    1.402   .     A
C481   C496    1.386   .     A
C482   H514    1.083   .     S
C482   C545    1.402   .     A
C482   C495    1.386   .     A
C483   C494    1.386   .     A
C483   H515    1.083   .     S
C483   C548    1.402   .     A
C484   H516    1.083   .     S
C484   C493    1.386   .     A
C484   C547    1.402   .     A
C485   C492    1.386   .     A
C485   H517    1.083   .     S
C485   C550    1.402   .     A
C486   H518    1.083   .     S
C486   C549    1.402   .     A
C486   C491    1.386   .     A
C487   C490    1.386   .     A
C487   H519    1.083   .     S
C487   C552    1.402   .     A
C488   H520    1.083   .     S
C488   C551    1.402   .     A
C488   C489    1.386   .     A
C489   H521    1.083   .     S
C489   C554    1.402   .     A
C490   H522    1.083   .     S
C490   C553    1.402   .     A
C491   H523    1.083   .     S
C491   C556    1.402   .     A
C492   H524    1.083   .     S
C492   C555    1.402   .     A
C493   H525    1.083   .     S
C493   C558    1.402   .     A
C494   H526    1.083   .     S
C494   C557    1.402   .     A
C495   H527    1.083   .     S
C495   C560    1.402   .     A
C496   H528    1.083   .     S
C496   C559    1.402   .     A
C529   C561    1.417   .     A
C530   C246    1.417   1_655 A
C531   C1195   1.417   .     A
C532   C564    1.417   .     S
C533   C245    1.417   1_655 S
C534   C562    1.417   .     S
C535   C563    1.417   .     S
C536   C1196   1.417   .     A
C537   C1197   1.417   .     S
C538   C566    1.417   .     S
C539   C567    1.417   .     S
C540   C252    1.417   1_655 A
C541   C565    1.417   .     A
C542   C1198   1.417   .     A
C543   C251    1.417   1_655 A
C544   C568    1.417   .     S
C561   C562    1.421   .     S
C563   C1163   1.417   1_545 A
C563   C564    1.421   .     A
C564   C1168   1.417   1_545 A
C565   C1169   1.417   1_545 S
C565   C566    1.421   1_556 S
C566   C1174   1.417   1_545 A
C566   C565    1.421   1_554 S
C567   C568    1.421   1_556 S
C568   C567    1.421   1_554 S
C569   H571    1.110   .     S
C569   H572    1.110   .     S
C569   H570    1.107   .     S
C573   H574    1.107   .     S
C573   H576    1.110   .     S
C573   H575    1.110   .     S
C577   H580    1.110   .     S
C577   H578    1.107   .     S
C577   H579    1.110   .     S
C581   H583    1.110   .     S
C581   H582    1.107   .     S
C581   H584    1.110   .     S
C585   H587    1.110   .     S
C585   H586    1.107   .     S
C585   H588    1.110   .     S
C589   H592    1.110   .     S
C589   H591    1.110   .     S
C589   H590    1.107   .     S
C593   H594    1.107   .     S
C593   H596    1.110   .     S
C593   H595    1.110   .     S
C597   H600    1.110   .     S
C597   H599    1.110   .     S
C597   H598    1.107   .     S
C601   H603    1.110   .     S
C601   H602    1.107   .     S
C601   H604    1.110   .     S
C605   H606    1.107   .     S
C605   H608    1.110   .     S
C605   H607    1.110   .     S
C609   H610    1.107   .     S
C609   H612    1.110   .     S
C609   H611    1.110   .     S
C613   H615    1.110   .     S
C613   H614    1.107   .     S
C613   H616    1.110   .     S
C617   H618    1.107   .     S
C617   H620    1.110   .     S
C617   H619    1.110   .     S
C621   H623    1.110   .     S
C621   H622    1.107   .     S
C621   H624    1.110   .     S
C625   H627    1.110   .     S
C625   H626    1.110   .     S
C625   H628    1.107   .     S
C629   H631    1.107   .     S
C629   H630    1.110   .     S
C629   H632    1.110   .     S
Zn633  O673    1.949   .     S
Zn633  O688    1.951   .     S
Zn633  O735    1.937   .     S
Zn634  O731    1.938   .     S
Zn634  O674    1.949   .     S
Zn634  O687    1.951   .     S
Zn635  O675    1.949   .     S
Zn635  O726    1.937   .     S
Zn635  O690    1.951   .     S
Zn635  O1049   1.938   1_455 S
Zn636  O734    1.938   .     S
Zn636  O676    1.949   .     S
Zn636  O689    1.951   .     S
Zn636  O1041   1.937   1_455 S
Zn637  O673    1.949   .     S
Zn637  O692    1.951   .     S
Zn637  O728    1.938   .     S
Zn638  O674    1.949   .     S
Zn638  O740    1.937   .     S
Zn638  O691    1.951   .     S
Zn639  O686    1.951   .     S
Zn639  O1046   1.937   1_455 S
Zn639  O675    1.949   .     S
Zn639  O737    1.938   .     S
Zn640  O1054   1.938   1_455 S
Zn640  O676    1.949   .     S
Zn640  O685    1.951   .     S
Zn640  O729    1.937   .     S
Zn641  O680    1.951   .     S
Zn641  O719    1.937   .     S
Zn641  O716    1.938   .     S
Zn641  O992    1.949   .     S
Zn642  O679    1.951   .     S
Zn642  O715    1.938   .     S
Zn642  O720    1.937   .     S
Zn642  O675    1.949   .     S
Zn643  O717    1.938   .     S
Zn643  O682    1.951   .     S
Zn643  O710    1.937   .     S
Zn643  O42     1.949   1_565 S
Zn644  O681    1.951   .     S
Zn644  O718    1.938   .     S
Zn644  O709    1.937   .     S
Zn644  O673    1.949   .     S
Zn645  O723    1.937   .     S
Zn645  O676    1.949   .     S
Zn645  O712    1.938   .     S
Zn645  O684    1.951   .     S
Zn646  O711    1.938   .     S
Zn646  O683    1.951   .     S
Zn646  O724    1.937   .     S
Zn646  O991    1.949   .     S
Zn647  O674    1.949   .     S
Zn647  O714    1.937   .     S
Zn647  O721    1.938   .     S
Zn647  O678    1.951   .     S
Zn648  O677    1.951   .     S
Zn648  O713    1.937   .     S
Zn648  O41     1.949   1_565 S
Zn648  O722    1.938   .     S
C649   C885    1.524   .     S
C649   C849    1.412   .     A
C649   C981    1.413   .     S
C650   C889    1.524   .     S
C650   C850    1.412   .     A
C650   C666    1.413   .     S
C651   C667    1.413   .     A
C651   C893    1.524   .     S
C651   C851    1.412   .     A
C652   C36     1.413   1_565 A
C652   C852    1.412   .     A
C652   C897    1.524   .     S
C653   C665    1.413   .     A
C653   C845    1.412   .     A
C653   C901    1.524   .     S
C654   C905    1.524   .     S
C654   C982    1.413   .     A
C654   C846    1.412   .     A
C655   C847    1.412   .     A
C655   C909    1.524   .     S
C655   C35     1.413   1_565 S
C656   C913    1.524   .     S
C656   C848    1.412   .     A
C656   C668    1.413   .     S
C657   C857    1.412   .     A
C657   C917    1.524   .     S
C657   C669    1.413   .     S
C658   C38     1.413   1_565 A
C658   C858    1.412   .     A
C658   C921    1.524   .     S
C659   C859    1.412   .     A
C659   C925    1.524   .     S
C659   C987    1.413   .     A
C660   C860    1.412   .     A
C660   C929    1.524   .     S
C660   C672    1.413   .     S
C661   C853    1.412   .     A
C661   C37     1.413   1_565 A
C661   C933    1.524   .     S
C662   C854    1.412   .     A
C662   C937    1.524   .     S
C662   C670    1.413   .     S
C663   C941    1.524   .     S
C663   C855    1.412   .     A
C663   C671    1.413   .     S
C664   C856    1.412   .     A
C664   C945    1.524   .     S
C664   C988    1.413   .     A
C665   C759    1.453   .     S
C665   C965    1.413   1_455 S
C666   C970    1.413   1_455 A
C666   C760    1.453   .     S
C667   C757    1.453   .     S
C668   C758    1.453   .     S
C669   C763    1.453   .     S
C670   C764    1.453   .     S
C671   C761    1.453   .     S
C671   C975    1.413   1_455 A
C672   C762    1.453   .     S
C672   C980    1.413   1_455 A
O675   Zn962   1.949   1_455 S
O676   Zn957   1.949   1_455 S
O677   C125    1.277   1_565 A
O678   C758    1.277   .     S
O679   C759    1.277   .     A
O680   C1076   1.277   .     A
O681   C757    1.277   .     S
O682   C126    1.277   1_565 A
O683   C1075   1.277   .     S
O684   C760    1.277   .     S
O685   C761    1.277   .     S
O686   C762    1.277   .     A
O687   C763    1.277   .     A
O688   C764    1.277   .     S
O689   C761    1.277   .     A
O690   C762    1.277   .     A
O691   C763    1.277   .     A
O692   C764    1.277   .     S
H693   C741    1.081   .     S
H694   C742    1.081   .     S
H695   C743    1.081   .     S
H696   C744    1.081   .     S
H697   C745    1.081   .     S
H698   C746    1.081   .     S
H699   C747    1.081   .     S
H700   C748    1.081   .     S
H701   C749    1.081   .     S
H702   C750    1.081   .     S
H703   C751    1.081   .     S
H704   C752    1.081   .     S
H705   C753    1.081   .     S
H706   C754    1.081   .     S
H707   C755    1.081   .     S
H708   C756    1.081   .     S
O709   C765    1.282   .     A
O710   C766    1.282   .     A
O711   C767    1.282   .     A
O712   C768    1.282   .     A
O713   C769    1.282   .     A
O714   C770    1.282   .     A
O715   C771    1.282   .     A
O716   C772    1.282   .     A
O717   C773    1.282   .     A
O718   C774    1.282   .     A
O719   C775    1.282   .     A
O720   C776    1.282   .     A
O721   C777    1.282   .     A
O722   C778    1.282   .     A
O723   C779    1.282   .     A
O724   C780    1.282   .     A
O725   C775    1.282   .     A
O725   Zn952   1.937   .     S
O726   C776    1.282   .     A
O727   C773    1.282   .     A
O727   Zn6     1.938   1_565 S
O728   C774    1.282   .     A
O729   C779    1.282   .     A
O730   C780    1.282   .     A
O730   Zn955   1.937   .     S
O731   C777    1.282   .     A
O732   Zn1     1.938   1_565 S
O732   C778    1.282   .     A
O733   C767    1.282   .     A
O733   Zn951   1.938   .     S
O734   C768    1.282   .     A
O735   C765    1.282   .     A
O736   C766    1.282   .     A
O736   Zn2     1.937   1_565 S
O737   C771    1.282   .     A
O738   C772    1.282   .     A
O738   Zn956   1.938   .     S
O739   Zn5     1.937   1_565 S
O739   C769    1.282   .     A
O740   C770    1.282   .     A
C741   C746    1.383   .     A
C741   C845    1.405   .     A
C742   C846    1.405   .     A
C742   C745    1.383   .     A
C743   C847    1.405   .     A
C743   C748    1.383   .     A
C744   C848    1.405   .     A
C744   C747    1.383   .     A
C745   C849    1.405   .     A
C746   C850    1.405   .     A
C747   C851    1.405   .     A
C748   C852    1.405   .     A
C749   C853    1.405   .     A
C749   C754    1.383   1_556 S
C750   C854    1.405   .     A
C750   C753    1.383   1_554 S
C751   C855    1.405   .     A
C751   C756    1.383   1_556 S
C752   C856    1.405   .     A
C752   C755    1.383   1_554 S
C753   C857    1.405   .     A
C753   C750    1.383   1_556 S
C754   C858    1.405   .     A
C754   C749    1.383   1_554 S
C755   C859    1.405   .     A
C755   C752    1.383   1_556 S
C756   C860    1.405   .     A
C756   C751    1.383   1_554 S
C759   O999    1.277   1_455 S
C760   O996    1.277   1_455 A
C765   C863    1.456   .     S
C766   C864    1.456   .     S
C767   C865    1.456   .     S
C768   C866    1.456   .     S
C769   C867    1.456   .     S
C770   C868    1.456   .     S
C771   C861    1.456   .     S
C772   C862    1.456   .     S
C773   C871    1.456   .     S
C774   C872    1.456   .     S
C775   C873    1.456   .     S
C776   C874    1.456   .     S
C777   C875    1.456   .     S
C778   C876    1.456   .     S
C779   C869    1.456   .     S
C780   C870    1.456   .     S
C781   C796    1.386   .     A
C781   H813    1.083   .     S
C781   C876    1.402   .     A
C782   C795    1.386   .     A
C782   C875    1.402   .     A
C782   H814    1.083   .     S
C783   H815    1.083   .     S
C783   C794    1.386   .     A
C783   C874    1.402   .     A
C784   C793    1.386   .     A
C784   C873    1.402   .     A
C784   H816    1.083   .     S
C785   C792    1.386   .     A
C785   C872    1.402   .     A
C785   H817    1.083   .     S
C786   H818    1.083   .     S
C786   C791    1.386   .     A
C786   C871    1.402   .     A
C787   C790    1.386   .     A
C787   H819    1.083   .     S
C787   C870    1.402   .     A
C788   C869    1.402   .     A
C788   H820    1.083   .     S
C788   C789    1.386   .     A
C789   C868    1.402   .     A
C789   H821    1.083   .     S
C790   H822    1.083   .     S
C790   C867    1.402   .     A
C791   C866    1.402   .     A
C791   H823    1.083   .     S
C792   H824    1.083   .     S
C792   C865    1.402   .     A
C793   H825    1.083   .     S
C793   C864    1.402   .     A
C794   C863    1.402   .     A
C794   H826    1.083   .     S
C795   C862    1.402   .     A
C795   H827    1.083   .     S
C796   H828    1.083   .     S
C796   C861    1.402   .     A
C797   H829    1.083   .     S
C797   C862    1.402   .     A
C797   C812    1.386   .     A
C798   H830    1.083   .     S
C798   C861    1.402   .     A
C798   C811    1.386   .     A
C799   C810    1.386   .     A
C799   H831    1.083   .     S
C799   C864    1.402   .     A
C800   H832    1.083   .     S
C800   C809    1.386   .     A
C800   C863    1.402   .     A
C801   C808    1.386   .     A
C801   H833    1.083   .     S
C801   C866    1.402   .     A
C802   H834    1.083   .     S
C802   C865    1.402   .     A
C802   C807    1.386   .     A
C803   C806    1.386   .     A
C803   H835    1.083   .     S
C803   C868    1.402   .     A
C804   H836    1.083   .     S
C804   C867    1.402   .     A
C804   C805    1.386   .     A
C805   H837    1.083   .     S
C805   C870    1.402   .     A
C806   H838    1.083   .     S
C806   C869    1.402   .     A
C807   H839    1.083   .     S
C807   C872    1.402   .     A
C808   H840    1.083   .     S
C808   C871    1.402   .     A
C809   H841    1.083   .     S
C809   C874    1.402   .     A
C810   H842    1.083   .     S
C810   C873    1.402   .     A
C811   H843    1.083   .     S
C811   C876    1.402   .     A
C812   H844    1.083   .     S
C812   C875    1.402   .     A
C845   C877    1.417   .     A
C846   C1194   1.417   .     A
C847   C247    1.417   1_565 A
C848   C880    1.417   .     S
C849   C1193   1.417   .     S
C850   C878    1.417   .     S
C851   C879    1.417   .     S
C852   C248    1.417   1_565 A
C853   C249    1.417   1_565 S
C854   C882    1.417   .     S
C855   C883    1.417   .     S
C856   C1200   1.417   .     A
C857   C881    1.417   .     A
C858   C250    1.417   1_565 A
C859   C1199   1.417   .     A
C860   C884    1.417   .     S
C877   C1165   1.417   1_455 S
C877   C878    1.421   .     S
C878   C1162   1.417   1_455 A
C879   C880    1.421   .     A
C881   C882    1.421   1_556 S
C882   C881    1.421   1_554 S
C883   C1175   1.417   1_455 A
C883   C884    1.421   1_556 S
C884   C1172   1.417   1_455 A
C884   C883    1.421   1_554 S
C885   H887    1.110   .     S
C885   H888    1.110   .     S
C885   H886    1.107   .     S
C889   H890    1.107   .     S
C889   H892    1.110   .     S
C889   H891    1.110   .     S
C893   H896    1.110   .     S
C893   H894    1.107   .     S
C893   H895    1.110   .     S
C897   H899    1.110   .     S
C897   H898    1.107   .     S
C897   H900    1.110   .     S
C901   H903    1.110   .     S
C901   H902    1.107   .     S
C901   H904    1.110   .     S
C905   H908    1.110   .     S
C905   H907    1.110   .     S
C905   H906    1.107   .     S
C909   H910    1.107   .     S
C909   H912    1.110   .     S
C909   H911    1.110   .     S
C913   H916    1.110   .     S
C913   H915    1.110   .     S
C913   H914    1.107   .     S
C917   H919    1.110   .     S
C917   H918    1.107   .     S
C917   H920    1.110   .     S
C921   H922    1.107   .     S
C921   H924    1.110   .     S
C921   H923    1.110   .     S
C925   H926    1.107   .     S
C925   H928    1.110   .     S
C925   H927    1.110   .     S
C929   H931    1.110   .     S
C929   H930    1.107   .     S
C929   H932    1.110   .     S
C933   H934    1.107   .     S
C933   H936    1.110   .     S
C933   H935    1.110   .     S
C937   H939    1.110   .     S
C937   H938    1.107   .     S
C937   H940    1.110   .     S
C941   H943    1.110   .     S
C941   H942    1.110   .     S
C941   H944    1.107   .     S
C945   H947    1.107   .     S
C945   H946    1.110   .     S
C945   H948    1.110   .     S
Zn949  O989    1.949   .     S
Zn949  O1004   1.951   .     S
Zn949  O1051   1.937   .     S
Zn950  O1047   1.938   .     S
Zn950  O990    1.949   .     S
Zn950  O1003   1.951   .     S
Zn951  O991    1.949   .     S
Zn951  O1042   1.937   .     S
Zn951  O1006   1.951   .     S
Zn952  O1050   1.938   .     S
Zn952  O992    1.949   .     S
Zn952  O1005   1.951   .     S
Zn953  O989    1.949   .     S
Zn953  O1008   1.951   .     S
Zn953  O1044   1.938   .     S
Zn954  O990    1.949   .     S
Zn954  O1056   1.937   .     S
Zn954  O1007   1.951   .     S
Zn955  O1002   1.951   .     S
Zn955  O991    1.949   .     S
Zn955  O1053   1.938   .     S
Zn956  O992    1.949   .     S
Zn956  O1001   1.951   .     S
Zn956  O1045   1.937   .     S
Zn957  O996    1.951   .     S
Zn957  O1035   1.937   .     S
Zn957  O1032   1.938   .     S
Zn957  O676    1.949   1_655 S
Zn958  O995    1.951   .     S
Zn958  O1031   1.938   .     S
Zn958  O1036   1.937   .     S
Zn958  O991    1.949   .     S
Zn959  O1033   1.938   .     S
Zn959  O998    1.951   .     S
Zn959  O1026   1.937   .     S
Zn959  O358    1.949   1_565 S
Zn960  O997    1.951   .     S
Zn960  O1034   1.938   .     S
Zn960  O1025   1.937   .     S
Zn960  O989    1.949   .     S
Zn961  O1039   1.937   .     S
Zn961  O992    1.949   .     S
Zn961  O1028   1.938   .     S
Zn961  O1000   1.951   .     S
Zn962  O1027   1.938   .     S
Zn962  O999    1.951   .     S
Zn962  O1040   1.937   .     S
Zn962  O675    1.949   1_655 S
Zn963  O990    1.949   .     S
Zn963  O1030   1.937   .     S
Zn963  O1037   1.938   .     S
Zn963  O994    1.951   .     S
Zn964  O993    1.951   .     S
Zn964  O1029   1.937   .     S
Zn964  O357    1.949   1_565 S
Zn964  O1038   1.938   .     S
C965   C1201   1.524   .     S
C965   C1165   1.412   .     A
C965   C665    1.413   1_655 S
C966   C1205   1.524   .     S
C966   C1166   1.412   .     A
C966   C982    1.413   .     S
C967   C983    1.413   .     A
C967   C1209   1.524   .     S
C967   C1167   1.412   .     A
C968   C352    1.413   1_565 A
C968   C1168   1.412   .     A
C968   C1213   1.524   .     S
C969   C981    1.413   .     A
C969   C1161   1.412   .     A
C969   C1217   1.524   .     S
C970   C1221   1.524   .     S
C970   C666    1.413   1_655 A
C970   C1162   1.412   .     A
C971   C1163   1.412   .     A
C971   C1225   1.524   .     S
C971   C351    1.413   1_565 S
C972   C1229   1.524   .     S
C972   C1164   1.412   .     A
C972   C984    1.413   .     S
C973   C1173   1.412   .     A
C973   C1233   1.524   .     S
C973   C985    1.413   .     S
C974   C354    1.413   1_565 A
C974   C1174   1.412   .     A
C974   C1237   1.524   .     S
C975   C1175   1.412   .     A
C975   C1241   1.524   .     S
C975   C671    1.413   1_655 A
C976   C1176   1.412   .     A
C976   C1245   1.524   .     S
C976   C988    1.413   .     S
C977   C1169   1.412   .     A
C977   C353    1.413   1_565 A
C977   C1249   1.524   .     S
C978   C1170   1.412   .     A
C978   C1253   1.524   .     S
C978   C986    1.413   .     S
C979   C1257   1.524   .     S
C979   C1171   1.412   .     A
C979   C987    1.413   .     S
C980   C1172   1.412   .     A
C980   C1261   1.524   .     S
C980   C672    1.413   1_655 A
C981   C1075   1.453   .     S
C982   C1076   1.453   .     S
C983   C1073   1.453   .     S
C984   C1074   1.453   .     S
C985   C1079   1.453   .     S
C986   C1080   1.453   .     S
C987   C1077   1.453   .     S
C988   C1078   1.453   .     S
O993   C441    1.277   1_565 A
O994   C1074   1.277   .     S
O995   C1075   1.277   .     A
O996   C760    1.277   1_655 A
O997   C1073   1.277   .     S
O998   C442    1.277   1_565 A
O999   C759    1.277   1_655 S
O1000  C1076   1.277   .     S
O1001  C1077   1.277   .     S
O1002  C1078   1.277   .     A
O1003  C1079   1.277   .     A
O1004  C1080   1.277   .     S
O1005  C1077   1.277   .     A
O1006  C1078   1.277   .     A
O1007  C1079   1.277   .     A
O1008  C1080   1.277   .     S
H1009  C1057   1.081   .     S
H1010  C1058   1.081   .     S
H1011  C1059   1.081   .     S
H1012  C1060   1.081   .     S
H1013  C1061   1.081   .     S
H1014  C1062   1.081   .     S
H1015  C1063   1.081   .     S
H1016  C1064   1.081   .     S
H1017  C1065   1.081   .     S
H1018  C1066   1.081   .     S
H1019  C1067   1.081   .     S
H1020  C1068   1.081   .     S
H1021  C1069   1.081   .     S
H1022  C1070   1.081   .     S
H1023  C1071   1.081   .     S
H1024  C1072   1.081   .     S
O1025  C1081   1.282   .     A
O1026  C1082   1.282   .     A
O1027  C1083   1.282   .     A
O1028  C1084   1.282   .     A
O1029  C1085   1.282   .     A
O1030  C1086   1.282   .     A
O1031  C1087   1.282   .     A
O1032  C1088   1.282   .     A
O1033  C1089   1.282   .     A
O1034  C1090   1.282   .     A
O1035  C1091   1.282   .     A
O1036  C1092   1.282   .     A
O1037  C1093   1.282   .     A
O1038  C1094   1.282   .     A
O1039  C1095   1.282   .     A
O1040  C1096   1.282   .     A
O1041  C1091   1.282   .     A
O1041  Zn636   1.937   1_655 S
O1042  C1092   1.282   .     A
O1043  C1089   1.282   .     A
O1043  Zn322   1.938   1_565 S
O1044  C1090   1.282   .     A
O1045  C1095   1.282   .     A
O1046  C1096   1.282   .     A
O1046  Zn639   1.937   1_655 S
O1047  C1093   1.282   .     A
O1048  Zn317   1.938   1_565 S
O1048  C1094   1.282   .     A
O1049  C1083   1.282   .     A
O1049  Zn635   1.938   1_655 S
O1050  C1084   1.282   .     A
O1051  C1081   1.282   .     A
O1052  C1082   1.282   .     A
O1052  Zn318   1.937   1_565 S
O1053  C1087   1.282   .     A
O1054  C1088   1.282   .     A
O1054  Zn640   1.938   1_655 S
O1055  Zn321   1.937   1_565 S
O1055  C1085   1.282   .     A
O1056  C1086   1.282   .     A
C1057  C1062   1.383   .     A
C1057  C1161   1.405   .     A
C1058  C1162   1.405   .     A
C1058  C1061   1.383   .     A
C1059  C1163   1.405   .     A
C1059  C1064   1.383   .     A
C1060  C1164   1.405   .     A
C1060  C1063   1.383   .     A
C1061  C1165   1.405   .     A
C1062  C1166   1.405   .     A
C1063  C1167   1.405   .     A
C1064  C1168   1.405   .     A
C1065  C1169   1.405   .     A
C1065  C1070   1.383   1_556 S
C1066  C1170   1.405   .     A
C1066  C1069   1.383   1_554 S
C1067  C1171   1.405   .     A
C1067  C1072   1.383   1_556 S
C1068  C1172   1.405   .     A
C1068  C1071   1.383   1_554 S
C1069  C1173   1.405   .     A
C1069  C1066   1.383   1_556 S
C1070  C1174   1.405   .     A
C1070  C1065   1.383   1_554 S
C1071  C1175   1.405   .     A
C1071  C1068   1.383   1_556 S
C1072  C1176   1.405   .     A
C1072  C1067   1.383   1_554 S
C1081  C1179   1.456   .     S
C1082  C1180   1.456   .     S
C1083  C1181   1.456   .     S
C1084  C1182   1.456   .     S
C1085  C1183   1.456   .     S
C1086  C1184   1.456   .     S
C1087  C1177   1.456   .     S
C1088  C1178   1.456   .     S
C1089  C1187   1.456   .     S
C1090  C1188   1.456   .     S
C1091  C1189   1.456   .     S
C1092  C1190   1.456   .     S
C1093  C1191   1.456   .     S
C1094  C1192   1.456   .     S
C1095  C1185   1.456   .     S
C1096  C1186   1.456   .     S
C1097  C1112   1.386   .     A
C1097  H1129   1.083   .     S
C1097  C1192   1.402   .     A
C1098  C1111   1.386   .     A
C1098  C1191   1.402   .     A
C1098  H1130   1.083   .     S
C1099  H1131   1.083   .     S
C1099  C1110   1.386   .     A
C1099  C1190   1.402   .     A
C1100  C1109   1.386   .     A
C1100  C1189   1.402   .     A
C1100  H1132   1.083   .     S
C1101  C1108   1.386   .     A
C1101  C1188   1.402   .     A
C1101  H1133   1.083   .     S
C1102  H1134   1.083   .     S
C1102  C1107   1.386   .     A
C1102  C1187   1.402   .     A
C1103  C1106   1.386   .     A
C1103  H1135   1.083   .     S
C1103  C1186   1.402   .     A
C1104  C1185   1.402   .     A
C1104  H1136   1.083   .     S
C1104  C1105   1.386   .     A
C1105  C1184   1.402   .     A
C1105  H1137   1.083   .     S
C1106  H1138   1.083   .     S
C1106  C1183   1.402   .     A
C1107  C1182   1.402   .     A
C1107  H1139   1.083   .     S
C1108  H1140   1.083   .     S
C1108  C1181   1.402   .     A
C1109  H1141   1.083   .     S
C1109  C1180   1.402   .     A
C1110  C1179   1.402   .     A
C1110  H1142   1.083   .     S
C1111  C1178   1.402   .     A
C1111  H1143   1.083   .     S
C1112  H1144   1.083   .     S
C1112  C1177   1.402   .     A
C1113  H1145   1.083   .     S
C1113  C1178   1.402   .     A
C1113  C1128   1.386   .     A
C1114  H1146   1.083   .     S
C1114  C1177   1.402   .     A
C1114  C1127   1.386   .     A
C1115  C1126   1.386   .     A
C1115  H1147   1.083   .     S
C1115  C1180   1.402   .     A
C1116  H1148   1.083   .     S
C1116  C1125   1.386   .     A
C1116  C1179   1.402   .     A
C1117  C1124   1.386   .     A
C1117  H1149   1.083   .     S
C1117  C1182   1.402   .     A
C1118  H1150   1.083   .     S
C1118  C1181   1.402   .     A
C1118  C1123   1.386   .     A
C1119  C1122   1.386   .     A
C1119  H1151   1.083   .     S
C1119  C1184   1.402   .     A
C1120  H1152   1.083   .     S
C1120  C1183   1.402   .     A
C1120  C1121   1.386   .     A
C1121  H1153   1.083   .     S
C1121  C1186   1.402   .     A
C1122  H1154   1.083   .     S
C1122  C1185   1.402   .     A
C1123  H1155   1.083   .     S
C1123  C1188   1.402   .     A
C1124  H1156   1.083   .     S
C1124  C1187   1.402   .     A
C1125  H1157   1.083   .     S
C1125  C1190   1.402   .     A
C1126  H1158   1.083   .     S
C1126  C1189   1.402   .     A
C1127  H1159   1.083   .     S
C1127  C1192   1.402   .     A
C1128  H1160   1.083   .     S
C1128  C1191   1.402   .     A
C1161  C1193   1.417   .     A
C1162  C878    1.417   1_655 A
C1163  C563    1.417   1_565 A
C1164  C1196   1.417   .     S
C1165  C877    1.417   1_655 S
C1166  C1194   1.417   .     S
C1167  C1195   1.417   .     S
C1168  C564    1.417   1_565 A
C1169  C565    1.417   1_565 S
C1170  C1198   1.417   .     S
C1171  C1199   1.417   .     S
C1172  C884    1.417   1_655 A
C1173  C1197   1.417   .     A
C1174  C566    1.417   1_565 A
C1175  C883    1.417   1_655 A
C1176  C1200   1.417   .     S
C1193  C1194   1.421   .     S
C1195  C1196   1.421   .     A
C1197  C1198   1.421   1_556 S
C1198  C1197   1.421   1_554 S
C1199  C1200   1.421   1_556 S
C1200  C1199   1.421   1_554 S
C1201  H1203   1.110   .     S
C1201  H1204   1.110   .     S
C1201  H1202   1.107   .     S
C1205  H1206   1.107   .     S
C1205  H1208   1.110   .     S
C1205  H1207   1.110   .     S
C1209  H1212   1.110   .     S
C1209  H1210   1.107   .     S
C1209  H1211   1.110   .     S
C1213  H1215   1.110   .     S
C1213  H1214   1.107   .     S
C1213  H1216   1.110   .     S
C1217  H1219   1.110   .     S
C1217  H1218   1.107   .     S
C1217  H1220   1.110   .     S
C1221  H1224   1.110   .     S
C1221  H1223   1.110   .     S
C1221  H1222   1.107   .     S
C1225  H1226   1.107   .     S
C1225  H1228   1.110   .     S
C1225  H1227   1.110   .     S
C1229  H1232   1.110   .     S
C1229  H1231   1.110   .     S
C1229  H1230   1.107   .     S
C1233  H1235   1.110   .     S
C1233  H1234   1.107   .     S
C1233  H1236   1.110   .     S
C1237  H1238   1.107   .     S
C1237  H1240   1.110   .     S
C1237  H1239   1.110   .     S
C1241  H1242   1.107   .     S
C1241  H1244   1.110   .     S
C1241  H1243   1.110   .     S
C1245  H1247   1.110   .     S
C1245  H1246   1.107   .     S
C1245  H1248   1.110   .     S
C1249  H1250   1.107   .     S
C1249  H1252   1.110   .     S
C1249  H1251   1.110   .     S
C1253  H1255   1.110   .     S
C1253  H1254   1.107   .     S
C1253  H1256   1.110   .     S
C1257  H1259   1.110   .     S
C1257  H1258   1.110   .     S
C1257  H1260   1.107   .     S
C1261  H1263   1.107   .     S
C1261  H1262   1.110   .     S
C1261  H1264   1.110   .     S
