data_str_m1_o1_o17_pcu_sym.140
_audit_creation_date              2020-01-03
_audit_creation_method            'Materials Studio'
_symmetry_space_group_name_H-M    'P1'
_symmetry_Int_Tables_number       1
_symmetry_cell_setting            triclinic
loop_
_symmetry_equiv_pos_as_xyz
  x,y,z
_cell_length_a                    36.7292
_cell_length_b                    36.8308
_cell_length_c                    34.3298
_cell_angle_alpha                 89.9250
_cell_angle_beta                  90.1647
_cell_angle_gamma                 89.7639
loop_
_atom_site_label
_atom_site_type_symbol
_atom_site_fract_x
_atom_site_fract_y
_atom_site_fract_z
_atom_site_U_iso_or_equiv
_atom_site_adp_type
_atom_site_occupancy
C1     C     0.01243   0.28162   0.41737   0.00000  Uiso   1.00
C2     C     0.22495   0.47953   0.08106   0.00000  Uiso   1.00
C3     C     0.22152   0.48254   0.54148   0.00000  Uiso   1.00
C4     C     0.01583   0.28082   0.45841   0.00000  Uiso   1.00
C5     C     0.47701   0.22638   0.54032   0.00000  Uiso   1.00
C6     C     0.22451   0.47886   0.45929   0.00000  Uiso   1.00
C7     C     0.28081   0.01504   0.54174   0.00000  Uiso   1.00
C8     C     0.23447   0.47098   0.95886   0.00000  Uiso   1.00
C9     C     0.27039   0.02719   0.04064   0.00000  Uiso   1.00
C10    C     0.02743   0.26974   0.95934   0.00000  Uiso   1.00
C11    C     0.47498   0.22956   0.04135   0.00000  Uiso   1.00
C12    C     0.26509   0.03045   0.95863   0.00000  Uiso   1.00
C13    C     0.48097   0.22288   0.91880   0.00000  Uiso   1.00
C14    C     0.22928   0.47482   0.04064   0.00000  Uiso   1.00
C15    C     0.47743   0.22579   0.95953   0.00000  Uiso   1.00
C16    C     0.03192   0.26529   0.04150   0.00000  Uiso   1.00
C17    C     0.09774   0.34865   0.25036   0.00000  Uiso   1.00
C18    C     0.40225   0.15162   0.74957   0.00000  Uiso   1.00
C19    C     0.15167   0.09748   0.24951   0.00000  Uiso   1.00
C20    C     0.34855   0.40203   0.74965   0.00000  Uiso   1.00
C21    C     0.40263   0.15100   0.25094   0.00000  Uiso   1.00
C22    C     0.09787   0.34824   0.74958   0.00000  Uiso   1.00
C23    C     0.34775   0.40198   0.24945   0.00000  Uiso   1.00
C24    C     0.03213   0.26334   0.08274   0.00000  Uiso   1.00
C25    C     0.15126   0.09780   0.74926   0.00000  Uiso   1.00
C26    C     0.09780   0.15190   0.74956   0.00000  Uiso   1.00
C27    C     0.40174   0.34837   0.24955   0.00000  Uiso   1.00
C28    C     0.15158   0.40204   0.74960   0.00000  Uiso   1.00
C29    C     0.34828   0.09787   0.25041   0.00000  Uiso   1.00
C30    C     0.40205   0.34796   0.74979   0.00000  Uiso   1.00
C31    C     0.09879   0.15219   0.24905   0.00000  Uiso   1.00
C32    C     0.34858   0.09782   0.74950   0.00000  Uiso   1.00
C33    C     0.15192   0.40197   0.24940   0.00000  Uiso   1.00
C34    C     0.49860   0.25202   0.47895   0.00000  Uiso   1.00
C35    C     0.24012   0.46888   0.91821   0.00000  Uiso   1.00
C36    C     0.49856   0.25186   0.51987   0.00000  Uiso   1.00
C37    C     0.25148   0.49835   0.48008   0.00000  Uiso   1.00
C38    C     0.25129   0.49860   0.52115   0.00000  Uiso   1.00
C39    C     0.24989   0.00075   0.97921   0.00000  Uiso   1.00
C40    C     0.24998   0.00084   0.02010   0.00000  Uiso   1.00
C41    C     0.00294   0.24740   0.98002   0.00000  Uiso   1.00
C42    C     0.00345   0.24724   0.02098   0.00000  Uiso   1.00
C43    C     0.09131   0.46332   0.24466   0.00000  Uiso   1.00
C44    C     0.07965   0.49957   0.22681   0.00000  Uiso   1.00
C45    C     0.06162   0.02413   0.25693   0.00000  Uiso   1.00
C46    C     0.27520   0.02238   0.08123   0.00000  Uiso   1.00
C47    C     0.37536   0.06413   0.82940   0.00000  Uiso   1.00
C48    C     0.40399   0.08139   0.85587   0.00000  Uiso   1.00
C49    C     0.39425   0.07728   0.89874   0.00000  Uiso   1.00
C50    C     0.05413   0.11599   0.17909   0.00000  Uiso   1.00
C51    C     0.06032   0.08255   0.15351   0.00000  Uiso   1.00
C52    C     0.02448   0.06327   0.14495   0.00000  Uiso   1.00
C53    C     0.39402   0.33200   0.83789   0.00000  Uiso   1.00
C54    C     0.41350   0.32332   0.87616   0.00000  Uiso   1.00
C55    C     0.39447   0.29305   0.89850   0.00000  Uiso   1.00
C56    C     0.40825   0.03683   0.24529   0.00000  Uiso   1.00
C57    C     0.02156   0.27476   0.91903   0.00000  Uiso   1.00
C58    C     0.41588   0.49890   0.22930   0.00000  Uiso   1.00
C59    C     0.43386   0.47469   0.25998   0.00000  Uiso   1.00
C60    C     0.12408   0.43565   0.82891   0.00000  Uiso   1.00
C61    C     0.09567   0.41712   0.85454   0.00000  Uiso   1.00
C62    C     0.10552   0.41966   0.89757   0.00000  Uiso   1.00
C63    C     0.44862   0.38692   0.18398   0.00000  Uiso   1.00
C64    C     0.44440   0.42097   0.15886   0.00000  Uiso   1.00
C65    C     0.47959   0.44286   0.15774   0.00000  Uiso   1.00
C66    C     0.10582   0.16675   0.83749   0.00000  Uiso   1.00
C67    C     0.08636   0.17566   0.87555   0.00000  Uiso   1.00
C68    C     0.47205   0.23530   0.08176   0.00000  Uiso   1.00
C69    C     0.10596   0.20537   0.89824   0.00000  Uiso   1.00
C70    C     0.10924   0.04882   0.81000   0.00000  Uiso   1.00
C71    C     0.07260   0.05381   0.83034   0.00000  Uiso   1.00
C72    C     0.05219   0.01784   0.83321   0.00000  Uiso   1.00
C73    C     0.32445   0.40281   0.16535   0.00000  Uiso   1.00
C74    C     0.32836   0.37644   0.13148   0.00000  Uiso   1.00
C75    C     0.29173   0.36930   0.11188   0.00000  Uiso   1.00
C76    C     0.03556   0.40724   0.75003   0.00000  Uiso   1.00
C77    C     0.49801   0.41717   0.76586   0.00000  Uiso   1.00
C78    C     0.47306   0.43174   0.73379   0.00000  Uiso   1.00
C79    C     0.49993   0.25071   0.39789   0.00000  Uiso   1.00
C80    C     0.43235   0.12275   0.16730   0.00000  Uiso   1.00
C81    C     0.42291   0.08923   0.14282   0.00000  Uiso   1.00
C82    C     0.42463   0.09727   0.09930   0.00000  Uiso   1.00
C83    C     0.38799   0.44898   0.81496   0.00000  Uiso   1.00
C84    C     0.42294   0.44396   0.83868   0.00000  Uiso   1.00
C85    C     0.44416   0.47944   0.84138   0.00000  Uiso   1.00
C86    C     0.16896   0.10785   0.16051   0.00000  Uiso   1.00
C87    C     0.17965   0.08679   0.12393   0.00000  Uiso   1.00
C88    C     0.21037   0.10539   0.10186   0.00000  Uiso   1.00
C89    C     0.46769   0.09712   0.75415   0.00000  Uiso   1.00
C90    C     0.49961   0.25058   0.60136   0.00000  Uiso   1.00
C91    C     0.47625   0.05685   0.76048   0.00000  Uiso   1.00
C92    C     0.00748   0.04424   0.73449   0.00000  Uiso   1.00
C93    C     0.06584   0.37312   0.16852   0.00000  Uiso   1.00
C94    C     0.08434   0.40083   0.14198   0.00000  Uiso   1.00
C95    C     0.08260   0.38938   0.09940   0.00000  Uiso   1.00
C96    C     0.34318   0.21333   0.74747   0.00000  Uiso   1.00
C97    C     0.33333   0.25080   0.73140   0.00000  Uiso   1.00
C98    C     0.31924   0.27588   0.76337   0.00000  Uiso   1.00
C99    C     0.12853   0.33075   0.33695   0.00000  Uiso   1.00
C100   C     0.14099   0.30337   0.36782   0.00000  Uiso   1.00
C101   C     0.25100   0.49927   0.39847   0.00000  Uiso   1.00
C102   C     0.11081   0.27698   0.37864   0.00000  Uiso   1.00
C103   C     0.30142   0.36328   0.68350   0.00000  Uiso   1.00
C104   C     0.30633   0.32890   0.65909   0.00000  Uiso   1.00
C105   C     0.27042   0.30847   0.65485   0.00000  Uiso   1.00
C106   C     0.13092   0.07967   0.33619   0.00000  Uiso   1.00
C107   C     0.14024   0.07296   0.37902   0.00000  Uiso   1.00
C108   C     0.17541   0.05141   0.38353   0.00000  Uiso   1.00
C109   C     0.15700   0.28635   0.74847   0.00000  Uiso   1.00
C110   C     0.16643   0.24875   0.73264   0.00000  Uiso   1.00
C111   C     0.18098   0.22383   0.76468   0.00000  Uiso   1.00
C112   C     0.47343   0.23052   0.58095   0.00000  Uiso   1.00
C113   C     0.25042   0.49990   0.60228   0.00000  Uiso   1.00
C114   C     0.38095   0.16568   0.33900   0.00000  Uiso   1.00
C115   C     0.36788   0.18897   0.37302   0.00000  Uiso   1.00
C116   C     0.39033   0.22339   0.37733   0.00000  Uiso   1.00
C117   C     0.19898   0.13774   0.68454   0.00000  Uiso   1.00
C118   C     0.19422   0.17238   0.66041   0.00000  Uiso   1.00
C119   C     0.22998   0.19322   0.65747   0.00000  Uiso   1.00
C120   C     0.35942   0.41504   0.33980   0.00000  Uiso   1.00
C121   C     0.33758   0.42876   0.37463   0.00000  Uiso   1.00
C122   C     0.35961   0.45508   0.39947   0.00000  Uiso   1.00
C123   C     0.35249   0.31007   0.32060   0.00000  Uiso   1.00
C124   C     0.25013   0.00026   0.89805   0.00000  Uiso   1.00
C125   C     0.34194   0.30959   0.36361   0.00000  Uiso   1.00
C126   C     0.30949   0.28469   0.37071   0.00000  Uiso   1.00
C127   C     0.08385   0.14362   0.66001   0.00000  Uiso   1.00
C128   C     0.07278   0.16538   0.62393   0.00000  Uiso   1.00
C129   C     0.04322   0.14619   0.60049   0.00000  Uiso   1.00
C130   C     0.28466   0.15351   0.26640   0.00000  Uiso   1.00
C131   C     0.28341   0.19469   0.27231   0.00000  Uiso   1.00
C132   C     0.25146   0.21176   0.25035   0.00000  Uiso   1.00
C133   C     0.18520   0.37575   0.67008   0.00000  Uiso   1.00
C134   C     0.16691   0.34783   0.64364   0.00000  Uiso   1.00
C135   C     0.25010   0.00078   0.10149   0.00000  Uiso   1.00
C136   C     0.16921   0.35880   0.60092   0.00000  Uiso   1.00
C137   C     0.14092   0.19444   0.31679   0.00000  Uiso   1.00
C138   C     0.17722   0.18275   0.33530   0.00000  Uiso   1.00
C139   C     0.20027   0.21566   0.34606   0.00000  Uiso   1.00
C140   C     0.41700   0.35636   0.66086   0.00000  Uiso   1.00
C141   C     0.42711   0.33524   0.62418   0.00000  Uiso   1.00
C142   C     0.45741   0.35388   0.60146   0.00000  Uiso   1.00
C143   C     0.21248   0.34250   0.25095   0.00000  Uiso   1.00
C144   C     0.25021   0.33129   0.26562   0.00000  Uiso   1.00
C145   C     0.27340   0.31635   0.23236   0.00000  Uiso   1.00
C146   C     0.00057   0.24944   0.89855   0.00000  Uiso   1.00
C147   C     0.31529   0.12344   0.66926   0.00000  Uiso   1.00
C148   C     0.33371   0.15110   0.64262   0.00000  Uiso   1.00
C149   C     0.33108   0.14003   0.59996   0.00000  Uiso   1.00
C150   C     0.49285   0.33303   0.38646   0.00000  Uiso   1.00
C151   C     0.00330   0.35958   0.35413   0.00000  Uiso   1.00
C152   C     0.47102   0.38321   0.34178   0.00000  Uiso   1.00
C153   C     0.41226   0.23548   0.59171   0.00000  Uiso   1.00
C154   C     0.38726   0.23637   0.62715   0.00000  Uiso   1.00
C155   C     0.34919   0.24950   0.61615   0.00000  Uiso   1.00
C156   C     0.22908   0.41578   0.40181   0.00000  Uiso   1.00
C157   C     0.00159   0.24952   0.10208   0.00000  Uiso   1.00
C158   C     0.21060   0.38705   0.37677   0.00000  Uiso   1.00
C159   C     0.23338   0.35240   0.37457   0.00000  Uiso   1.00
C160   C     0.33208   0.49811   0.61768   0.00000  Uiso   1.00
C161   C     0.35283   0.01034   0.65403   0.00000  Uiso   1.00
C162   C     0.37771   0.48036   0.66967   0.00000  Uiso   1.00
C163   C     0.01051   0.16294   0.40790   0.00000  Uiso   1.00
C164   C     0.04729   0.17226   0.38927   0.00000  Uiso   1.00
C165   C     0.07641   0.14491   0.40154   0.00000  Uiso   1.00
C166   C     0.08635   0.26618   0.59107   0.00000  Uiso   1.00
C167   C     0.11149   0.26413   0.62654   0.00000  Uiso   1.00
C168   C     0.46098   0.19705   0.47915   0.00000  Uiso   1.00
C169   C     0.14934   0.25063   0.61545   0.00000  Uiso   1.00
C170   C     0.27727   0.08306   0.40800   0.00000  Uiso   1.00
C171   C     0.28747   0.11042   0.37662   0.00000  Uiso   1.00
C172   C     0.27260   0.14803   0.38617   0.00000  Uiso   1.00
C173   C     0.16877   0.00124   0.61588   0.00000  Uiso   1.00
C174   C     0.14892   0.49011   0.65312   0.00000  Uiso   1.00
C175   C     0.12400   0.02036   0.66784   0.00000  Uiso   1.00
C176   C     0.23453   0.08831   0.90616   0.00000  Uiso   1.00
C177   C     0.19816   0.07790   0.88715   0.00000  Uiso   1.00
C178   C     0.16798   0.10384   0.90005   0.00000  Uiso   1.00
C179   C     0.03721   0.30576   0.52041   0.00000  Uiso   1.00
C180   C     0.16364   0.48447   0.09031   0.00000  Uiso   1.00
C181   C     0.13799   0.48618   0.12516   0.00000  Uiso   1.00
C182   C     0.10026   0.49938   0.11298   0.00000  Uiso   1.00
C183   C     0.48580   0.16197   0.90663   0.00000  Uiso   1.00
C184   C     0.48728   0.13841   0.87011   0.00000  Uiso   1.00
C185   C     0.00086   0.10024   0.87943   0.00000  Uiso   1.00
C186   C     0.08324   0.24979   0.11830   0.00000  Uiso   1.00
C187   C     0.10438   0.26347   0.15375   0.00000  Uiso   1.00
C188   C     0.12941   0.23411   0.17045   0.00000  Uiso   1.00
C189   C     0.26399   0.41184   0.90759   0.00000  Uiso   1.00
C190   C     0.30884   0.03186   0.47972   0.00000  Uiso   1.00
C191   C     0.30061   0.42113   0.88868   0.00000  Uiso   1.00
C192   C     0.32987   0.39388   0.90118   0.00000  Uiso   1.00
C193   C     0.33729   0.02655   0.09067   0.00000  Uiso   1.00
C194   C     0.34603   0.48961   0.10919   0.00000  Uiso   1.00
C195   C     0.38290   0.47537   0.09571   0.00000  Uiso   1.00
C196   C     0.01599   0.33592   0.90935   0.00000  Uiso   1.00
C197   C     0.01346   0.36087   0.87386   0.00000  Uiso   1.00
C198   C     0.49912   0.39836   0.88479   0.00000  Uiso   1.00
C199   C     0.41373   0.25640   0.09104   0.00000  Uiso   1.00
C200   C     0.42144   0.29356   0.10958   0.00000  Uiso   1.00
C201   C     0.19344   0.46496   0.52010   0.00000  Uiso   1.00
C202   C     0.39688   0.32270   0.09191   0.00000  Uiso   1.00
C203   C     0.03494   0.30786   0.47962   0.00000  Uiso   1.00
C204   C     0.22839   0.47522   0.41863   0.00000  Uiso   1.00
C205   C     0.45930   0.19824   0.51984   0.00000  Uiso   1.00
C206   C     0.19488   0.46343   0.47939   0.00000  Uiso   1.00
C207   C     0.30964   0.03141   0.52048   0.00000  Uiso   1.00
C208   C     0.21492   0.44418   0.97971   0.00000  Uiso   1.00
C209   C     0.28564   0.05676   0.02017   0.00000  Uiso   1.00
C210   C     0.05667   0.28626   0.97922   0.00000  Uiso   1.00
C211   C     0.44939   0.20823   0.02075   0.00000  Uiso   1.00
C212   C     0.28378   0.05795   0.97940   0.00000  Uiso   1.00
C213   C     0.21275   0.44586   0.02040   0.00000  Uiso   1.00
C214   C     0.44986   0.20734   0.98006   0.00000  Uiso   1.00
C215   C     0.28085   0.01349   0.58284   0.00000  Uiso   1.00
C216   C     0.05924   0.28376   0.01996   0.00000  Uiso   1.00
C217   C     0.25034   0.49989   0.35589   0.00000  Uiso   1.00
C218   C     0.25012   0.00001   0.64442   0.00000  Uiso   1.00
C219   C     0.00005   0.24990   0.35569   0.00000  Uiso   1.00
C220   C     0.49993   0.25010   0.64402   0.00000  Uiso   1.00
C221   C     0.00001   0.24992   0.85593   0.00000  Uiso   1.00
C222   C     0.00016   0.24999   0.14432   0.00000  Uiso   1.00
C223   C     0.25005   0.00005   0.85576   0.00000  Uiso   1.00
C224   C     0.25000   0.00035   0.14407   0.00000  Uiso   1.00
C225   C     0.17987   0.06978   0.24999   0.00000  Uiso   1.00
C226   C     0.48767   0.22035   0.41814   0.00000  Uiso   1.00
C227   C     0.32019   0.43002   0.74989   0.00000  Uiso   1.00
C228   C     0.43024   0.17962   0.25041   0.00000  Uiso   1.00
C229   C     0.06997   0.32007   0.74989   0.00000  Uiso   1.00
C230   C     0.32009   0.43022   0.25016   0.00000  Uiso   1.00
C231   C     0.17976   0.06992   0.74973   0.00000  Uiso   1.00
C232   C     0.06986   0.32031   0.25033   0.00000  Uiso   1.00
C233   C     0.43004   0.17989   0.74987   0.00000  Uiso   1.00
C234   C     0.17986   0.43000   0.74990   0.00000  Uiso   1.00
C235   C     0.32005   0.07000   0.25007   0.00000  Uiso   1.00
C236   C     0.43003   0.31998   0.74990   0.00000  Uiso   1.00
C237   C     0.02507   0.27150   0.58099   0.00000  Uiso   1.00
C238   C     0.07035   0.18016   0.24963   0.00000  Uiso   1.00
C239   C     0.32021   0.06996   0.74987   0.00000  Uiso   1.00
C240   C     0.18000   0.42993   0.24979   0.00000  Uiso   1.00
C241   C     0.06988   0.17996   0.74982   0.00000  Uiso   1.00
C242   C     0.42986   0.32006   0.24984   0.00000  Uiso   1.00
C243   C     0.11781   0.40889   0.23190   0.00000  Uiso   1.00
C244   C     0.38161   0.09218   0.77004   0.00000  Uiso   1.00
C245   C     0.10475   0.13116   0.21510   0.00000  Uiso   1.00
C246   C     0.39514   0.36781   0.78396   0.00000  Uiso   1.00
C247   C     0.38183   0.09124   0.23185   0.00000  Uiso   1.00
C248   C     0.27447   0.02222   0.41891   0.00000  Uiso   1.00
C249   C     0.11838   0.40784   0.76950   0.00000  Uiso   1.00
C250   C     0.39626   0.37028   0.21599   0.00000  Uiso   1.00
C251   C     0.10439   0.13140   0.78341   0.00000  Uiso   1.00
C252   C     0.12824   0.10205   0.78194   0.00000  Uiso   1.00
C253   C     0.36682   0.39432   0.21475   0.00000  Uiso   1.00
C254   C     0.09042   0.38264   0.76566   0.00000  Uiso   1.00
C255   C     0.40709   0.11920   0.22832   0.00000  Uiso   1.00
C256   C     0.37089   0.39694   0.78287   0.00000  Uiso   1.00
C257   C     0.13341   0.10611   0.21459   0.00000  Uiso   1.00
C258   C     0.40954   0.11742   0.76656   0.00000  Uiso   1.00
C259   C     0.22055   0.48546   0.58245   0.00000  Uiso   1.00
C260   C     0.09268   0.38080   0.22832   0.00000  Uiso   1.00
C261   C     0.36800   0.15861   0.73250   0.00000  Uiso   1.00
C262   C     0.12985   0.34411   0.27250   0.00000  Uiso   1.00
C263   C     0.35347   0.37990   0.71632   0.00000  Uiso   1.00
C264   C     0.14282   0.11549   0.28409   0.00000  Uiso   1.00
C265   C     0.13225   0.34107   0.73314   0.00000  Uiso   1.00
C266   C     0.37164   0.15475   0.27480   0.00000  Uiso   1.00
C267   C     0.14669   0.12054   0.71628   0.00000  Uiso   1.00
C268   C     0.35541   0.38267   0.28372   0.00000  Uiso   1.00
C269   C     0.37973   0.35352   0.28272   0.00000  Uiso   1.00
C270   C     0.25973   0.03198   0.91783   0.00000  Uiso   1.00
C271   C     0.11777   0.14515   0.71539   0.00000  Uiso   1.00
C272   C     0.34278   0.13072   0.27066   0.00000  Uiso   1.00
C273   C     0.15737   0.36906   0.72936   0.00000  Uiso   1.00
C274   C     0.11979   0.14554   0.28283   0.00000  Uiso   1.00
C275   C     0.38228   0.35519   0.71550   0.00000  Uiso   1.00
C276   C     0.15861   0.36816   0.26722   0.00000  Uiso   1.00
C277   C     0.34295   0.13059   0.72873   0.00000  Uiso   1.00
C278   C     0.48180   0.22301   0.45857   0.00000  Uiso   1.00
C279   C     0.02044   0.27684   0.54053   0.00000  Uiso   1.00
C280   C     0.27868   0.01758   0.45950   0.00000  Uiso   1.00
Cl281  Cl    0.43367   0.16455   0.45477   0.00000  Uiso   1.00
Cl282  Cl    0.30336   0.09512   0.04495   0.00000  Uiso   1.00
Cl283  Cl    0.09328   0.30621   0.95323   0.00000  Uiso   1.00
Cl284  Cl    0.41798   0.17974   0.04504   0.00000  Uiso   1.00
Cl285  Cl    0.30839   0.09258   0.95532   0.00000  Uiso   1.00
Cl286  Cl    0.19328   0.40856   0.04555   0.00000  Uiso   1.00
Cl287  Cl    0.41212   0.18752   0.95574   0.00000  Uiso   1.00
Cl288  Cl    0.09702   0.30518   0.04228   0.00000  Uiso   1.00
Cl289  Cl    0.05724   0.34253   0.54599   0.00000  Uiso   1.00
Cl290  Cl    0.34839   0.04645   0.45448   0.00000  Uiso   1.00
Cl291  Cl    0.15597   0.44312   0.54257   0.00000  Uiso   1.00
Cl292  Cl    0.05886   0.34362   0.45646   0.00000  Uiso   1.00
Cl293  Cl    0.43929   0.16093   0.54448   0.00000  Uiso   1.00
Cl294  Cl    0.15656   0.44562   0.45415   0.00000  Uiso   1.00
Cl295  Cl    0.34710   0.05332   0.54303   0.00000  Uiso   1.00
Cl296  Cl    0.18962   0.40996   0.95576   0.00000  Uiso   1.00
H297   H     0.10987   0.46867   0.26974   0.00000  Uiso   1.00
H298   H     0.43097   0.06861   0.85055   0.00000  Uiso   1.00
H299   H     0.45819   0.10151   0.72352   0.00000  Uiso   1.00
H300   H     0.48390   0.05218   0.79141   0.00000  Uiso   1.00
H301   H     0.45165   0.04048   0.75389   0.00000  Uiso   1.00
H302   H     0.00016   0.04788   0.70331   0.00000  Uiso   1.00
H303   H     0.01313   0.01504   0.73991   0.00000  Uiso   1.00
H304   H     0.03258   0.05986   0.74102   0.00000  Uiso   1.00
H305   H     0.03828   0.36728   0.15677   0.00000  Uiso   1.00
H306   H     0.08116   0.34689   0.16788   0.00000  Uiso   1.00
H307   H     0.07103   0.42779   0.14533   0.00000  Uiso   1.00
H308   H     0.11340   0.40287   0.15050   0.00000  Uiso   1.00
H309   H     0.40538   0.11078   0.84906   0.00000  Uiso   1.00
H310   H     0.09682   0.36302   0.09569   0.00000  Uiso   1.00
H311   H     0.09635   0.41002   0.08106   0.00000  Uiso   1.00
H312   H     0.05386   0.38685   0.08964   0.00000  Uiso   1.00
H313   H     0.36259   0.21675   0.77222   0.00000  Uiso   1.00
H314   H     0.31784   0.20019   0.75829   0.00000  Uiso   1.00
H315   H     0.35777   0.26321   0.71788   0.00000  Uiso   1.00
H316   H     0.31193   0.24788   0.70871   0.00000  Uiso   1.00
H317   H     0.29408   0.26458   0.77644   0.00000  Uiso   1.00
H318   H     0.31289   0.30295   0.75084   0.00000  Uiso   1.00
H319   H     0.34018   0.27930   0.78644   0.00000  Uiso   1.00
H320   H     0.36772   0.09065   0.90443   0.00000  Uiso   1.00
H321   H     0.09935   0.33805   0.34141   0.00000  Uiso   1.00
H322   H     0.14487   0.35579   0.34146   0.00000  Uiso   1.00
H323   H     0.16502   0.28822   0.35685   0.00000  Uiso   1.00
H324   H     0.14950   0.31803   0.39462   0.00000  Uiso   1.00
H325   H     0.09023   0.29103   0.39673   0.00000  Uiso   1.00
H326   H     0.12225   0.25403   0.39580   0.00000  Uiso   1.00
H327   H     0.09739   0.26636   0.35207   0.00000  Uiso   1.00
H328   H     0.27901   0.37957   0.67038   0.00000  Uiso   1.00
H329   H     0.29233   0.35594   0.71351   0.00000  Uiso   1.00
H330   H     0.31658   0.33627   0.62971   0.00000  Uiso   1.00
H331   H     0.41534   0.09052   0.91702   0.00000  Uiso   1.00
H332   H     0.32648   0.31077   0.67338   0.00000  Uiso   1.00
H333   H     0.25962   0.30089   0.68393   0.00000  Uiso   1.00
H334   H     0.27474   0.28333   0.63768   0.00000  Uiso   1.00
H335   H     0.25008   0.32557   0.63932   0.00000  Uiso   1.00
H336   H     0.13119   0.05334   0.32029   0.00000  Uiso   1.00
H337   H     0.10270   0.09097   0.33516   0.00000  Uiso   1.00
H338   H     0.14309   0.09935   0.39434   0.00000  Uiso   1.00
H339   H     0.11775   0.05760   0.39292   0.00000  Uiso   1.00
H340   H     0.17266   0.02429   0.36972   0.00000  Uiso   1.00
H341   H     0.18175   0.04764   0.41492   0.00000  Uiso   1.00
H342   H     0.39267   0.04813   0.90688   0.00000  Uiso   1.00
H343   H     0.19804   0.06639   0.36962   0.00000  Uiso   1.00
H344   H     0.13773   0.28317   0.77327   0.00000  Uiso   1.00
H345   H     0.18252   0.29935   0.75912   0.00000  Uiso   1.00
H346   H     0.14171   0.23636   0.71959   0.00000  Uiso   1.00
H347   H     0.18742   0.25145   0.70958   0.00000  Uiso   1.00
H348   H     0.20653   0.23501   0.77713   0.00000  Uiso   1.00
H349   H     0.18680   0.19659   0.75241   0.00000  Uiso   1.00
H350   H     0.16052   0.22081   0.78819   0.00000  Uiso   1.00
H351   H     0.41118   0.16330   0.33970   0.00000  Uiso   1.00
H352   H     0.36953   0.13799   0.34360   0.00000  Uiso   1.00
H353   H     0.03223   0.13276   0.16561   0.00000  Uiso   1.00
H354   H     0.33880   0.19619   0.36869   0.00000  Uiso   1.00
H355   H     0.37006   0.17301   0.40042   0.00000  Uiso   1.00
H356   H     0.41905   0.21635   0.38356   0.00000  Uiso   1.00
H357   H     0.37971   0.23966   0.40202   0.00000  Uiso   1.00
H358   H     0.38913   0.23974   0.35024   0.00000  Uiso   1.00
H359   H     0.22158   0.12167   0.67164   0.00000  Uiso   1.00
H360   H     0.20775   0.14471   0.71479   0.00000  Uiso   1.00
H361   H     0.18464   0.16529   0.63065   0.00000  Uiso   1.00
H362   H     0.17358   0.19010   0.67430   0.00000  Uiso   1.00
H363   H     0.24008   0.20058   0.68696   0.00000  Uiso   1.00
H364   H     0.04374   0.10748   0.20823   0.00000  Uiso   1.00
H365   H     0.22575   0.21853   0.64045   0.00000  Uiso   1.00
H366   H     0.25084   0.17651   0.64243   0.00000  Uiso   1.00
H367   H     0.36752   0.43898   0.32191   0.00000  Uiso   1.00
H368   H     0.38430   0.40081   0.35060   0.00000  Uiso   1.00
H369   H     0.31281   0.44294   0.36388   0.00000  Uiso   1.00
H370   H     0.32908   0.40536   0.39291   0.00000  Uiso   1.00
H371   H     0.38459   0.44157   0.41077   0.00000  Uiso   1.00
H372   H     0.34290   0.46419   0.42456   0.00000  Uiso   1.00
H373   H     0.36735   0.47927   0.38205   0.00000  Uiso   1.00
H374   H     0.35899   0.28208   0.31079   0.00000  Uiso   1.00
H375   H     0.07308   0.09085   0.12558   0.00000  Uiso   1.00
H376   H     0.32813   0.31919   0.30368   0.00000  Uiso   1.00
H377   H     0.36549   0.30037   0.38142   0.00000  Uiso   1.00
H378   H     0.33464   0.33752   0.37302   0.00000  Uiso   1.00
H379   H     0.28544   0.29423   0.35387   0.00000  Uiso   1.00
H380   H     0.30256   0.28467   0.40216   0.00000  Uiso   1.00
H381   H     0.31604   0.25653   0.36165   0.00000  Uiso   1.00
H382   H     0.05903   0.13870   0.67789   0.00000  Uiso   1.00
H383   H     0.09548   0.11707   0.65056   0.00000  Uiso   1.00
H384   H     0.06227   0.19228   0.63311   0.00000  Uiso   1.00
H385   H     0.09700   0.16963   0.60516   0.00000  Uiso   1.00
H386   H     0.07878   0.06327   0.16869   0.00000  Uiso   1.00
H387   H     0.05308   0.11923   0.59051   0.00000  Uiso   1.00
H388   H     0.03599   0.16285   0.57458   0.00000  Uiso   1.00
H389   H     0.01839   0.14262   0.61848   0.00000  Uiso   1.00
H390   H     0.25781   0.14208   0.27470   0.00000  Uiso   1.00
H391   H     0.28850   0.14705   0.23487   0.00000  Uiso   1.00
H392   H     0.28058   0.20089   0.30379   0.00000  Uiso   1.00
H393   H     0.30917   0.20696   0.26183   0.00000  Uiso   1.00
H394   H     0.25540   0.20890   0.21843   0.00000  Uiso   1.00
H395   H     0.24960   0.24101   0.25772   0.00000  Uiso   1.00
H396   H     0.22546   0.19864   0.25874   0.00000  Uiso   1.00
H397   H     0.01139   0.05446   0.17251   0.00000  Uiso   1.00
H398   H     0.21294   0.38129   0.65887   0.00000  Uiso   1.00
H399   H     0.17003   0.40206   0.66854   0.00000  Uiso   1.00
H400   H     0.18006   0.32087   0.64770   0.00000  Uiso   1.00
H401   H     0.13775   0.34609   0.65164   0.00000  Uiso   1.00
H402   H     0.15528   0.38526   0.59652   0.00000  Uiso   1.00
H403   H     0.15545   0.33811   0.58263   0.00000  Uiso   1.00
H404   H     0.19807   0.36096   0.59165   0.00000  Uiso   1.00
H405   H     0.12908   0.21626   0.33480   0.00000  Uiso   1.00
H406   H     0.14570   0.20655   0.28740   0.00000  Uiso   1.00
H407   H     0.17205   0.16652   0.36203   0.00000  Uiso   1.00
H408   H     0.06647   0.44913   0.25532   0.00000  Uiso   1.00
H409   H     0.02954   0.03899   0.12663   0.00000  Uiso   1.00
H410   H     0.19277   0.16576   0.31440   0.00000  Uiso   1.00
H411   H     0.20260   0.23456   0.32095   0.00000  Uiso   1.00
H412   H     0.22799   0.20680   0.35467   0.00000  Uiso   1.00
H413   H     0.18787   0.23006   0.37114   0.00000  Uiso   1.00
H414   H     0.44200   0.35936   0.67902   0.00000  Uiso   1.00
H415   H     0.40670   0.38374   0.65226   0.00000  Uiso   1.00
H416   H     0.43656   0.30771   0.63264   0.00000  Uiso   1.00
H417   H     0.40270   0.33250   0.60521   0.00000  Uiso   1.00
H418   H     0.44868   0.38153   0.59234   0.00000  Uiso   1.00
H419   H     0.46388   0.33775   0.57503   0.00000  Uiso   1.00
H420   H     0.00578   0.08171   0.12885   0.00000  Uiso   1.00
H421   H     0.48241   0.35585   0.61962   0.00000  Uiso   1.00
H422   H     0.21590   0.36195   0.22631   0.00000  Uiso   1.00
H423   H     0.19825   0.31774   0.24019   0.00000  Uiso   1.00
H424   H     0.26414   0.35515   0.27861   0.00000  Uiso   1.00
H425   H     0.24737   0.31012   0.28850   0.00000  Uiso   1.00
H426   H     0.25940   0.29338   0.21784   0.00000  Uiso   1.00
H427   H     0.29999   0.30659   0.24369   0.00000  Uiso   1.00
H428   H     0.27842   0.33786   0.21043   0.00000  Uiso   1.00
H429   H     0.28755   0.11789   0.65786   0.00000  Uiso   1.00
H430   H     0.33038   0.09708   0.66819   0.00000  Uiso   1.00
H431   H     0.39336   0.30685   0.81993   0.00000  Uiso   1.00
H432   H     0.32080   0.17817   0.64648   0.00000  Uiso   1.00
H433   H     0.36293   0.15270   0.65064   0.00000  Uiso   1.00
H434   H     0.34448   0.11330   0.59568   0.00000  Uiso   1.00
H435   H     0.34510   0.16046   0.58158   0.00000  Uiso   1.00
H436   H     0.30214   0.13837   0.59066   0.00000  Uiso   1.00
H437   H     0.48443   0.34858   0.41274   0.00000  Uiso   1.00
H438   H     0.46924   0.31668   0.37607   0.00000  Uiso   1.00
H439   H     0.02576   0.37728   0.36450   0.00000  Uiso   1.00
H440   H     0.01315   0.34408   0.32842   0.00000  Uiso   1.00
H441   H     0.46076   0.39918   0.36691   0.00000  Uiso   1.00
H442   H     0.36560   0.34072   0.84433   0.00000  Uiso   1.00
H443   H     0.44874   0.36603   0.33019   0.00000  Uiso   1.00
H444   H     0.47963   0.40230   0.31852   0.00000  Uiso   1.00
H445   H     0.39807   0.22162   0.56731   0.00000  Uiso   1.00
H446   H     0.41736   0.26416   0.58265   0.00000  Uiso   1.00
H447   H     0.38555   0.20885   0.63992   0.00000  Uiso   1.00
H448   H     0.39868   0.25470   0.64971   0.00000  Uiso   1.00
H449   H     0.35027   0.27775   0.60487   0.00000  Uiso   1.00
H450   H     0.33156   0.24879   0.64224   0.00000  Uiso   1.00
H451   H     0.33705   0.23157   0.59365   0.00000  Uiso   1.00
H452   H     0.22919   0.40627   0.43264   0.00000  Uiso   1.00
H453   H     0.44177   0.31451   0.86979   0.00000  Uiso   1.00
H454   H     0.25773   0.41886   0.39187   0.00000  Uiso   1.00
H455   H     0.18358   0.38073   0.38947   0.00000  Uiso   1.00
H456   H     0.20650   0.39786   0.34686   0.00000  Uiso   1.00
H457   H     0.26022   0.35821   0.36111   0.00000  Uiso   1.00
H458   H     0.21911   0.33203   0.35636   0.00000  Uiso   1.00
H459   H     0.23764   0.34085   0.40414   0.00000  Uiso   1.00
H460   H     0.35185   0.49116   0.59436   0.00000  Uiso   1.00
H461   H     0.31669   0.47300   0.62513   0.00000  Uiso   1.00
H462   H     0.36946   0.03460   0.64692   0.00000  Uiso   1.00
H463   H     0.33302   0.01801   0.67706   0.00000  Uiso   1.00
H464   H     0.41454   0.34810   0.89457   0.00000  Uiso   1.00
H465   H     0.39830   0.47271   0.64748   0.00000  Uiso   1.00
H466   H     0.36152   0.45606   0.67752   0.00000  Uiso   1.00
H467   H     0.39207   0.49009   0.69617   0.00000  Uiso   1.00
H468   H     0.00190   0.13589   0.39703   0.00000  Uiso   1.00
H469   H     0.01370   0.16004   0.44002   0.00000  Uiso   1.00
H470   H     0.04455   0.17221   0.35702   0.00000  Uiso   1.00
H471   H     0.05632   0.19963   0.39868   0.00000  Uiso   1.00
H472   H     0.07922   0.14437   0.43377   0.00000  Uiso   1.00
H473   H     0.10301   0.15285   0.38904   0.00000  Uiso   1.00
H474   H     0.06918   0.11736   0.39108   0.00000  Uiso   1.00
H475   H     0.36619   0.30130   0.90588   0.00000  Uiso   1.00
H476   H     0.10049   0.28062   0.56707   0.00000  Uiso   1.00
H477   H     0.08098   0.23776   0.58127   0.00000  Uiso   1.00
H478   H     0.11363   0.29132   0.63994   0.00000  Uiso   1.00
H479   H     0.09991   0.24551   0.64868   0.00000  Uiso   1.00
H480   H     0.14786   0.22254   0.60387   0.00000  Uiso   1.00
H481   H     0.16707   0.25077   0.64161   0.00000  Uiso   1.00
H482   H     0.16165   0.26866   0.59317   0.00000  Uiso   1.00
H483   H     0.28787   0.09272   0.43651   0.00000  Uiso   1.00
H484   H     0.24698   0.08197   0.40966   0.00000  Uiso   1.00
H485   H     0.31756   0.11174   0.37419   0.00000  Uiso   1.00
H486   H     0.40957   0.28734   0.92593   0.00000  Uiso   1.00
H487   H     0.27606   0.10145   0.34823   0.00000  Uiso   1.00
H488   H     0.24246   0.14727   0.38853   0.00000  Uiso   1.00
H489   H     0.28009   0.16711   0.36260   0.00000  Uiso   1.00
H490   H     0.28439   0.15802   0.41397   0.00000  Uiso   1.00
H491   H     0.14845   0.00683   0.59254   0.00000  Uiso   1.00
H492   H     0.18377   0.02694   0.62181   0.00000  Uiso   1.00
H493   H     0.13245   0.46541   0.64740   0.00000  Uiso   1.00
H494   H     0.16927   0.48352   0.67613   0.00000  Uiso   1.00
H495   H     0.10289   0.02696   0.64568   0.00000  Uiso   1.00
H496   H     0.14006   0.04510   0.67432   0.00000  Uiso   1.00
H497   H     0.39382   0.26781   0.88082   0.00000  Uiso   1.00
H498   H     0.11031   0.01143   0.69500   0.00000  Uiso   1.00
H499   H     0.24236   0.11559   0.89525   0.00000  Uiso   1.00
H500   H     0.23091   0.09128   0.93819   0.00000  Uiso   1.00
H501   H     0.20084   0.07886   0.85492   0.00000  Uiso   1.00
H502   H     0.19036   0.04994   0.89581   0.00000  Uiso   1.00
H503   H     0.16465   0.10267   0.93218   0.00000  Uiso   1.00
H504   H     0.14175   0.09602   0.88645   0.00000  Uiso   1.00
H505   H     0.17467   0.13208   0.89142   0.00000  Uiso   1.00
H506   H     0.14994   0.47009   0.06593   0.00000  Uiso   1.00
H507   H     0.16891   0.01302   0.08078   0.00000  Uiso   1.00
H508   H     0.39108   0.03420   0.27190   0.00000  Uiso   1.00
H509   H     0.13583   0.45892   0.13849   0.00000  Uiso   1.00
H510   H     0.14911   0.00490   0.14753   0.00000  Uiso   1.00
H511   H     0.10181   0.02733   0.10095   0.00000  Uiso   1.00
H512   H     0.08212   0.49951   0.13867   0.00000  Uiso   1.00
H513   H     0.08837   0.48101   0.09074   0.00000  Uiso   1.00
H514   H     0.47167   0.14682   0.93010   0.00000  Uiso   1.00
H515   H     0.01437   0.16685   0.91651   0.00000  Uiso   1.00
H516   H     0.45982   0.13690   0.85695   0.00000  Uiso   1.00
H517   H     0.00567   0.15075   0.84825   0.00000  Uiso   1.00
H518   H     0.02906   0.10129   0.89110   0.00000  Uiso   1.00
H519   H     0.10386   0.01356   0.21464   0.00000  Uiso   1.00
H520   H     0.43467   0.04968   0.25325   0.00000  Uiso   1.00
H521   H     0.00058   0.08382   0.85243   0.00000  Uiso   1.00
H522   H     0.48293   0.08697   0.90114   0.00000  Uiso   1.00
H523   H     0.10275   0.24225   0.09490   0.00000  Uiso   1.00
H524   H     0.06818   0.22485   0.12705   0.00000  Uiso   1.00
H525   H     0.12094   0.28741   0.14529   0.00000  Uiso   1.00
H526   H     0.08483   0.27206   0.17666   0.00000  Uiso   1.00
H527   H     0.14959   0.22538   0.14828   0.00000  Uiso   1.00
H528   H     0.11326   0.21027   0.17988   0.00000  Uiso   1.00
H529   H     0.14423   0.24498   0.19612   0.00000  Uiso   1.00
H530   H     0.25546   0.38465   0.89705   0.00000  Uiso   1.00
H531   H     0.38990   0.48629   0.21981   0.00000  Uiso   1.00
H532   H     0.26750   0.40918   0.93969   0.00000  Uiso   1.00
H533   H     0.29771   0.42072   0.85645   0.00000  Uiso   1.00
H534   H     0.30945   0.44868   0.89770   0.00000  Uiso   1.00
H535   H     0.33290   0.39385   0.93339   0.00000  Uiso   1.00
H536   H     0.35646   0.40138   0.88837   0.00000  Uiso   1.00
H537   H     0.32251   0.36616   0.89133   0.00000  Uiso   1.00
H538   H     0.35789   0.04635   0.10086   0.00000  Uiso   1.00
H539   H     0.34048   0.02490   0.05849   0.00000  Uiso   1.00
H540   H     0.34654   0.49221   0.14142   0.00000  Uiso   1.00
H541   H     0.32488   0.46961   0.10077   0.00000  Uiso   1.00
H542   H     0.43404   0.00102   0.20356   0.00000  Uiso   1.00
H543   H     0.38395   0.47404   0.06341   0.00000  Uiso   1.00
H544   H     0.38698   0.44758   0.10733   0.00000  Uiso   1.00
H545   H     0.40509   0.49314   0.10656   0.00000  Uiso   1.00
H546   H     0.03070   0.35013   0.93317   0.00000  Uiso   1.00
H547   H     0.48764   0.33045   0.91951   0.00000  Uiso   1.00
H548   H     0.04069   0.36350   0.86060   0.00000  Uiso   1.00
H549   H     0.49511   0.34893   0.85162   0.00000  Uiso   1.00
H550   H     0.47080   0.39637   0.89582   0.00000  Uiso   1.00
H551   H     0.49938   0.41601   0.85862   0.00000  Uiso   1.00
H552   H     0.01660   0.41096   0.90743   0.00000  Uiso   1.00
H553   H     0.46091   0.48570   0.26824   0.00000  Uiso   1.00
H554   H     0.38669   0.24706   0.10133   0.00000  Uiso   1.00
H555   H     0.41120   0.25921   0.05884   0.00000  Uiso   1.00
H556   H     0.41691   0.29201   0.14154   0.00000  Uiso   1.00
H557   H     0.44999   0.30191   0.10441   0.00000  Uiso   1.00
H558   H     0.40313   0.32625   0.06050   0.00000  Uiso   1.00
H559   H     0.40172   0.34893   0.10686   0.00000  Uiso   1.00
H560   H     0.36787   0.31492   0.09497   0.00000  Uiso   1.00
H561   H     0.43761   0.44697   0.24812   0.00000  Uiso   1.00
H562   H     0.41648   0.47284   0.28631   0.00000  Uiso   1.00
H563   H     0.12918   0.46329   0.84047   0.00000  Uiso   1.00
H564   H     0.15053   0.42072   0.83104   0.00000  Uiso   1.00
H565   H     0.06854   0.42979   0.84963   0.00000  Uiso   1.00
H566   H     0.09460   0.38799   0.84656   0.00000  Uiso   1.00
H567   H     0.05995   0.49449   0.20283   0.00000  Uiso   1.00
H568   H     0.13202   0.40600   0.90279   0.00000  Uiso   1.00
H569   H     0.08448   0.40579   0.91525   0.00000  Uiso   1.00
H570   H     0.10717   0.44850   0.90684   0.00000  Uiso   1.00
H571   H     0.47123   0.37043   0.17171   0.00000  Uiso   1.00
H572   H     0.45719   0.39447   0.21413   0.00000  Uiso   1.00
H573   H     0.43706   0.41281   0.12871   0.00000  Uiso   1.00
H574   H     0.42246   0.43843   0.17078   0.00000  Uiso   1.00
H575   H     0.48805   0.45071   0.18766   0.00000  Uiso   1.00
H576   H     0.47524   0.46794   0.14033   0.00000  Uiso   1.00
H577   H     0.00164   0.42670   0.14399   0.00000  Uiso   1.00
H578   H     0.03675   0.01107   0.26869   0.00000  Uiso   1.00
H579   H     0.10677   0.19192   0.81951   0.00000  Uiso   1.00
H580   H     0.13416   0.15782   0.84414   0.00000  Uiso   1.00
H581   H     0.05839   0.18521   0.86878   0.00000  Uiso   1.00
H582   H     0.08463   0.15082   0.89386   0.00000  Uiso   1.00
H583   H     0.13399   0.19644   0.90595   0.00000  Uiso   1.00
H584   H     0.09083   0.21126   0.92549   0.00000  Uiso   1.00
H585   H     0.10728   0.23068   0.88066   0.00000  Uiso   1.00
H586   H     0.12390   0.02591   0.82414   0.00000  Uiso   1.00
H587   H     0.10473   0.04071   0.77899   0.00000  Uiso   1.00
H588   H     0.07717   0.06461   0.86015   0.00000  Uiso   1.00
H589   H     0.05376   0.05024   0.24308   0.00000  Uiso   1.00
H590   H     0.05575   0.07352   0.81362   0.00000  Uiso   1.00
H591   H     0.04832   0.00580   0.80385   0.00000  Uiso   1.00
H592   H     0.02506   0.02235   0.84653   0.00000  Uiso   1.00
H593   H     0.06760   0.49846   0.85182   0.00000  Uiso   1.00
H594   H     0.31109   0.42801   0.15464   0.00000  Uiso   1.00
H595   H     0.30574   0.39085   0.18732   0.00000  Uiso   1.00
H596   H     0.34741   0.38788   0.10963   0.00000  Uiso   1.00
H597   H     0.33955   0.35044   0.14284   0.00000  Uiso   1.00
H598   H     0.27227   0.35751   0.13309   0.00000  Uiso   1.00
H599   H     0.29551   0.34978   0.08758   0.00000  Uiso   1.00
H600   H     0.08077   0.02985   0.28119   0.00000  Uiso   1.00
H601   H     0.28021   0.39494   0.09990   0.00000  Uiso   1.00
H602   H     0.03211   0.38784   0.72539   0.00000  Uiso   1.00
H603   H     0.04882   0.43248   0.73917   0.00000  Uiso   1.00
H604   H     0.48536   0.39272   0.77905   0.00000  Uiso   1.00
H605   H     0.00104   0.43817   0.78884   0.00000  Uiso   1.00
H606   H     0.48465   0.45676   0.72080   0.00000  Uiso   1.00
H607   H     0.44595   0.43829   0.74613   0.00000  Uiso   1.00
H608   H     0.46948   0.41108   0.71062   0.00000  Uiso   1.00
H609   H     0.45820   0.13441   0.15624   0.00000  Uiso   1.00
H610   H     0.41115   0.14429   0.16328   0.00000  Uiso   1.00
H611   H     0.36932   0.03643   0.84032   0.00000  Uiso   1.00
H612   H     0.44203   0.06670   0.14989   0.00000  Uiso   1.00
H613   H     0.39483   0.08032   0.14956   0.00000  Uiso   1.00
H614   H     0.40295   0.11700   0.09131   0.00000  Uiso   1.00
H615   H     0.42013   0.07185   0.08265   0.00000  Uiso   1.00
H616   H     0.45164   0.10840   0.09124   0.00000  Uiso   1.00
H617   H     0.37198   0.47130   0.82841   0.00000  Uiso   1.00
H618   H     0.39463   0.45811   0.78478   0.00000  Uiso   1.00
H619   H     0.41610   0.43452   0.86852   0.00000  Uiso   1.00
H620   H     0.44035   0.42321   0.82457   0.00000  Uiso   1.00
H621   H     0.45132   0.48936   0.81182   0.00000  Uiso   1.00
H622   H     0.34933   0.07978   0.83127   0.00000  Uiso   1.00
H623   H     0.46965   0.47506   0.85818   0.00000  Uiso   1.00
H624   H     0.42771   0.00038   0.85658   0.00000  Uiso   1.00
H625   H     0.19364   0.11114   0.17917   0.00000  Uiso   1.00
H626   H     0.15855   0.13514   0.15173   0.00000  Uiso   1.00
H627   H     0.18876   0.05912   0.13236   0.00000  Uiso   1.00
H628   H     0.15555   0.08423   0.10448   0.00000  Uiso   1.00
H629   H     0.20197   0.13318   0.09288   0.00000  Uiso   1.00
H630   H     0.21704   0.08944   0.07537   0.00000  Uiso   1.00
H631   H     0.23515   0.10700   0.12041   0.00000  Uiso   1.00
H632   H     0.49327   0.11283   0.75759   0.00000  Uiso   1.00
O633   O     0.25000   0.00000   0.25000   0.00000  Uiso   1.00
O634   O     0.25000   0.46963   0.66245   0.00000  Uiso   1.00
O635   O     0.43987   0.22970   0.10201   0.00000  Uiso   1.00
O636   O     0.46964   0.25000   0.33755   0.00000  Uiso   1.00
O637   O     0.03037   0.25000   0.66245   0.00000  Uiso   1.00
O638   O     0.00000   0.21964   0.83755   0.00000  Uiso   1.00
O639   O     0.00000   0.28037   0.16245   0.00000  Uiso   1.00
O640   O     0.28037   0.00000   0.83755   0.00000  Uiso   1.00
O641   O     0.21964   0.00000   0.16245   0.00000  Uiso   1.00
O642   O     0.00000   0.28037   0.83755   0.00000  Uiso   1.00
O643   O     0.00000   0.21963   0.16245   0.00000  Uiso   1.00
O644   O     0.21964   0.00000   0.83755   0.00000  Uiso   1.00
O645   O     0.25000   0.00000   0.75000   0.00000  Uiso   1.00
O646   O     0.28037   0.00000   0.16245   0.00000  Uiso   1.00
O647   O     0.20725   0.07308   0.27302   0.00000  Uiso   1.00
O648   O     0.29276   0.42692   0.72698   0.00000  Uiso   1.00
O649   O     0.42693   0.20725   0.27302   0.00000  Uiso   1.00
O650   O     0.07308   0.29275   0.72698   0.00000  Uiso   1.00
O651   O     0.29276   0.42692   0.27302   0.00000  Uiso   1.00
O652   O     0.20725   0.07308   0.72698   0.00000  Uiso   1.00
O653   O     0.07308   0.29275   0.27302   0.00000  Uiso   1.00
O654   O     0.42693   0.20725   0.72698   0.00000  Uiso   1.00
O655   O     0.20725   0.42692   0.72698   0.00000  Uiso   1.00
O656   O     0.00000   0.25000   0.25000   0.00000  Uiso   1.00
O657   O     0.29276   0.07308   0.27302   0.00000  Uiso   1.00
O658   O     0.42693   0.29276   0.72698   0.00000  Uiso   1.00
O659   O     0.07308   0.20724   0.27302   0.00000  Uiso   1.00
O660   O     0.29276   0.07308   0.72698   0.00000  Uiso   1.00
O661   O     0.20725   0.42692   0.27302   0.00000  Uiso   1.00
O662   O     0.07308   0.20724   0.72698   0.00000  Uiso   1.00
O663   O     0.42693   0.29276   0.27302   0.00000  Uiso   1.00
O664   O     0.45725   0.32308   0.77302   0.00000  Uiso   1.00
O665   O     0.04276   0.17692   0.22698   0.00000  Uiso   1.00
O666   O     0.17693   0.45724   0.77302   0.00000  Uiso   1.00
O667   O     0.00000   0.25000   0.75000   0.00000  Uiso   1.00
O668   O     0.32308   0.04276   0.22698   0.00000  Uiso   1.00
O669   O     0.04276   0.17692   0.77302   0.00000  Uiso   1.00
O670   O     0.45725   0.32308   0.22698   0.00000  Uiso   1.00
O671   O     0.32308   0.04276   0.77302   0.00000  Uiso   1.00
O672   O     0.17693   0.45724   0.22698   0.00000  Uiso   1.00
O673   O     0.45725   0.17693   0.22698   0.00000  Uiso   1.00
O674   O     0.04276   0.32307   0.77302   0.00000  Uiso   1.00
O675   O     0.17693   0.04276   0.22698   0.00000  Uiso   1.00
O676   O     0.32308   0.45724   0.77302   0.00000  Uiso   1.00
O677   O     0.04276   0.32307   0.22698   0.00000  Uiso   1.00
O678   O     0.25000   0.46963   0.33755   0.00000  Uiso   1.00
O679   O     0.45725   0.17693   0.77302   0.00000  Uiso   1.00
O680   O     0.32308   0.45724   0.22698   0.00000  Uiso   1.00
O681   O     0.17693   0.04276   0.77302   0.00000  Uiso   1.00
O682   O     0.10941   0.44248   0.21607   0.00000  Uiso   1.00
O683   O     0.38842   0.06051   0.79072   0.00000  Uiso   1.00
O684   O     0.08581   0.13788   0.18084   0.00000  Uiso   1.00
O685   O     0.41309   0.35987   0.81846   0.00000  Uiso   1.00
O686   O     0.39007   0.05750   0.21647   0.00000  Uiso   1.00
O687   O     0.11146   0.43951   0.79000   0.00000  Uiso   1.00
O688   O     0.41668   0.36537   0.18247   0.00000  Uiso   1.00
O689   O     0.25000   0.03037   0.66245   0.00000  Uiso   1.00
O690   O     0.08661   0.13898   0.81797   0.00000  Uiso   1.00
O691   O     0.13137   0.08003   0.81448   0.00000  Uiso   1.00
O692   O     0.35929   0.41230   0.18003   0.00000  Uiso   1.00
O693   O     0.05636   0.39123   0.78019   0.00000  Uiso   1.00
O694   O     0.43836   0.11299   0.20680   0.00000  Uiso   1.00
O695   O     0.36615   0.41733   0.81637   0.00000  Uiso   1.00
O696   O     0.14174   0.08826   0.18032   0.00000  Uiso   1.00
O697   O     0.44307   0.10932   0.78306   0.00000  Uiso   1.00
O698   O     0.06134   0.38708   0.20671   0.00000  Uiso   1.00
O699   O     0.35918   0.19243   0.71753   0.00000  Uiso   1.00
O700   O     0.03037   0.25000   0.33755   0.00000  Uiso   1.00
O701   O     0.13373   0.31611   0.29916   0.00000  Uiso   1.00
O702   O     0.33319   0.38508   0.68262   0.00000  Uiso   1.00
O703   O     0.15647   0.10378   0.31957   0.00000  Uiso   1.00
O704   O     0.14097   0.30721   0.71838   0.00000  Uiso   1.00
O705   O     0.36938   0.18126   0.30323   0.00000  Uiso   1.00
O706   O     0.16727   0.11590   0.68283   0.00000  Uiso   1.00
O707   O     0.33758   0.39089   0.31808   0.00000  Uiso   1.00
O708   O     0.38385   0.33195   0.31555   0.00000  Uiso   1.00
O709   O     0.11001   0.16357   0.68120   0.00000  Uiso   1.00
O710   O     0.31114   0.13760   0.29124   0.00000  Uiso   1.00
O711   O     0.46964   0.25000   0.66245   0.00000  Uiso   1.00
O712   O     0.18902   0.36231   0.70865   0.00000  Uiso   1.00
O713   O     0.11527   0.16579   0.31632   0.00000  Uiso   1.00
O714   O     0.38993   0.33700   0.68123   0.00000  Uiso   1.00
O715   O     0.19265   0.35884   0.28155   0.00000  Uiso   1.00
O716   O     0.31138   0.13722   0.70762   0.00000  Uiso   1.00
O717   O     0.02346   0.31115   0.39548   0.00000  Uiso   1.00
O718   O     0.44441   0.21583   0.60113   0.00000  Uiso   1.00
O719   O     0.20975   0.44890   0.39806   0.00000  Uiso   1.00
O720   O     0.30938   0.02702   0.60490   0.00000  Uiso   1.00
O721   O     0.48285   0.18826   0.39762   0.00000  Uiso   1.00
O722   O     0.25000   0.03037   0.33755   0.00000  Uiso   1.00
O723   O     0.05442   0.28587   0.60100   0.00000  Uiso   1.00
O724   O     0.29286   0.04896   0.39867   0.00000  Uiso   1.00
O725   O     0.19173   0.47223   0.60415   0.00000  Uiso   1.00
O726   O     0.26307   0.06381   0.89645   0.00000  Uiso   1.00
O727   O     0.19562   0.46500   0.10083   0.00000  Uiso   1.00
O728   O     0.46595   0.19422   0.89830   0.00000  Uiso   1.00
O729   O     0.06004   0.27797   0.10482   0.00000  Uiso   1.00
O730   O     0.23611   0.43693   0.89723   0.00000  Uiso   1.00
O731   O     0.30252   0.03981   0.10202   0.00000  Uiso   1.00
O732   O     0.03579   0.30417   0.89919   0.00000  Uiso   1.00
Zn733  Zn    0.20660   0.00000   0.21735   0.00000  Uiso   1.00
Zn734  Zn    0.04341   0.25000   0.28265   0.00000  Uiso   1.00
Zn735  Zn    0.25000   0.45659   0.71735   0.00000  Uiso   1.00
Zn736  Zn    0.25000   0.04341   0.28265   0.00000  Uiso   1.00
Zn737  Zn    0.04341   0.25000   0.71735   0.00000  Uiso   1.00
Zn738  Zn    0.45660   0.25000   0.28265   0.00000  Uiso   1.00
Zn739  Zn    0.25000   0.04341   0.71735   0.00000  Uiso   1.00
Zn740  Zn    0.25000   0.45659   0.28265   0.00000  Uiso   1.00
Zn741  Zn    0.29341   0.00000   0.78265   0.00000  Uiso   1.00
Zn742  Zn    0.00000   0.20660   0.21735   0.00000  Uiso   1.00
Zn743  Zn    0.00000   0.29341   0.78265   0.00000  Uiso   1.00
Zn744  Zn    0.29341   0.00000   0.21735   0.00000  Uiso   1.00
Zn745  Zn    0.20660   0.00000   0.78265   0.00000  Uiso   1.00
Zn746  Zn    0.00000   0.29340   0.21735   0.00000  Uiso   1.00
Zn747  Zn    0.00000   0.20660   0.78265   0.00000  Uiso   1.00
Zn748  Zn    0.45660   0.25000   0.71735   0.00000  Uiso   1.00
C749   C     0.51243   0.28162   0.41737   0.00000  Uiso   1.00
C750   C     0.72495   0.47953   0.08106   0.00000  Uiso   1.00
C751   C     0.72152   0.48254   0.54148   0.00000  Uiso   1.00
C752   C     0.51583   0.28082   0.45841   0.00000  Uiso   1.00
C753   C     0.97701   0.22638   0.54032   0.00000  Uiso   1.00
C754   C     0.72451   0.47886   0.45929   0.00000  Uiso   1.00
C755   C     0.78081   0.01504   0.54174   0.00000  Uiso   1.00
C756   C     0.73447   0.47098   0.95886   0.00000  Uiso   1.00
C757   C     0.77039   0.02719   0.04064   0.00000  Uiso   1.00
C758   C     0.52743   0.26974   0.95934   0.00000  Uiso   1.00
C759   C     0.97498   0.22956   0.04135   0.00000  Uiso   1.00
C760   C     0.76509   0.03045   0.95863   0.00000  Uiso   1.00
C761   C     0.98097   0.22288   0.91880   0.00000  Uiso   1.00
C762   C     0.72928   0.47482   0.04064   0.00000  Uiso   1.00
C763   C     0.97743   0.22579   0.95953   0.00000  Uiso   1.00
C764   C     0.53192   0.26529   0.04150   0.00000  Uiso   1.00
C765   C     0.59774   0.34865   0.25036   0.00000  Uiso   1.00
C766   C     0.90225   0.15162   0.74957   0.00000  Uiso   1.00
C767   C     0.65167   0.09748   0.24951   0.00000  Uiso   1.00
C768   C     0.84855   0.40203   0.74965   0.00000  Uiso   1.00
C769   C     0.90263   0.15100   0.25094   0.00000  Uiso   1.00
C770   C     0.59787   0.34824   0.74958   0.00000  Uiso   1.00
C771   C     0.84775   0.40198   0.24945   0.00000  Uiso   1.00
C772   C     0.53213   0.26334   0.08274   0.00000  Uiso   1.00
C773   C     0.65126   0.09780   0.74926   0.00000  Uiso   1.00
C774   C     0.59780   0.15190   0.74956   0.00000  Uiso   1.00
C775   C     0.90174   0.34837   0.24955   0.00000  Uiso   1.00
C776   C     0.65158   0.40204   0.74960   0.00000  Uiso   1.00
C777   C     0.84828   0.09787   0.25041   0.00000  Uiso   1.00
C778   C     0.90205   0.34796   0.74979   0.00000  Uiso   1.00
C779   C     0.59879   0.15219   0.24905   0.00000  Uiso   1.00
C780   C     0.84858   0.09782   0.74950   0.00000  Uiso   1.00
C781   C     0.65192   0.40197   0.24940   0.00000  Uiso   1.00
C782   C     0.99860   0.25202   0.47895   0.00000  Uiso   1.00
C783   C     0.74012   0.46888   0.91821   0.00000  Uiso   1.00
C784   C     0.99856   0.25186   0.51987   0.00000  Uiso   1.00
C785   C     0.75148   0.49835   0.48008   0.00000  Uiso   1.00
C786   C     0.75129   0.49860   0.52115   0.00000  Uiso   1.00
C787   C     0.74989   0.00075   0.97921   0.00000  Uiso   1.00
C788   C     0.74998   0.00084   0.02010   0.00000  Uiso   1.00
C789   C     0.50294   0.24740   0.98002   0.00000  Uiso   1.00
C790   C     0.50345   0.24724   0.02098   0.00000  Uiso   1.00
C791   C     0.59131   0.46332   0.24466   0.00000  Uiso   1.00
C792   C     0.57965   0.49957   0.22681   0.00000  Uiso   1.00
C793   C     0.56162   0.02413   0.25693   0.00000  Uiso   1.00
C794   C     0.77520   0.02238   0.08123   0.00000  Uiso   1.00
C795   C     0.87536   0.06413   0.82940   0.00000  Uiso   1.00
C796   C     0.90399   0.08139   0.85587   0.00000  Uiso   1.00
C797   C     0.89425   0.07728   0.89874   0.00000  Uiso   1.00
C798   C     0.55413   0.11599   0.17909   0.00000  Uiso   1.00
C799   C     0.56032   0.08255   0.15351   0.00000  Uiso   1.00
C800   C     0.52448   0.06327   0.14495   0.00000  Uiso   1.00
C801   C     0.89402   0.33200   0.83789   0.00000  Uiso   1.00
C802   C     0.91350   0.32332   0.87616   0.00000  Uiso   1.00
C803   C     0.89447   0.29305   0.89850   0.00000  Uiso   1.00
C804   C     0.90825   0.03683   0.24529   0.00000  Uiso   1.00
C805   C     0.52156   0.27476   0.91903   0.00000  Uiso   1.00
C806   C     0.91588   0.49890   0.22930   0.00000  Uiso   1.00
C807   C     0.93386   0.47469   0.25998   0.00000  Uiso   1.00
C808   C     0.62408   0.43565   0.82891   0.00000  Uiso   1.00
C809   C     0.59567   0.41712   0.85454   0.00000  Uiso   1.00
C810   C     0.60552   0.41966   0.89757   0.00000  Uiso   1.00
C811   C     0.94862   0.38692   0.18398   0.00000  Uiso   1.00
C812   C     0.94440   0.42097   0.15886   0.00000  Uiso   1.00
C813   C     0.97959   0.44286   0.15774   0.00000  Uiso   1.00
C814   C     0.60582   0.16675   0.83749   0.00000  Uiso   1.00
C815   C     0.58636   0.17566   0.87555   0.00000  Uiso   1.00
C816   C     0.97205   0.23530   0.08176   0.00000  Uiso   1.00
C817   C     0.60596   0.20537   0.89824   0.00000  Uiso   1.00
C818   C     0.60924   0.04882   0.81000   0.00000  Uiso   1.00
C819   C     0.57260   0.05381   0.83034   0.00000  Uiso   1.00
C820   C     0.55219   0.01784   0.83321   0.00000  Uiso   1.00
C821   C     0.82445   0.40281   0.16535   0.00000  Uiso   1.00
C822   C     0.82836   0.37644   0.13148   0.00000  Uiso   1.00
C823   C     0.79173   0.36930   0.11188   0.00000  Uiso   1.00
C824   C     0.53556   0.40724   0.75003   0.00000  Uiso   1.00
C825   C     0.99801   0.41717   0.76586   0.00000  Uiso   1.00
C826   C     0.97306   0.43174   0.73379   0.00000  Uiso   1.00
C827   C     0.99993   0.25071   0.39789   0.00000  Uiso   1.00
C828   C     0.93235   0.12275   0.16730   0.00000  Uiso   1.00
C829   C     0.92291   0.08923   0.14282   0.00000  Uiso   1.00
C830   C     0.92463   0.09727   0.09930   0.00000  Uiso   1.00
C831   C     0.88799   0.44898   0.81496   0.00000  Uiso   1.00
C832   C     0.92294   0.44396   0.83868   0.00000  Uiso   1.00
C833   C     0.94416   0.47944   0.84138   0.00000  Uiso   1.00
C834   C     0.66896   0.10785   0.16051   0.00000  Uiso   1.00
C835   C     0.67965   0.08679   0.12393   0.00000  Uiso   1.00
C836   C     0.71037   0.10539   0.10186   0.00000  Uiso   1.00
C837   C     0.96769   0.09712   0.75415   0.00000  Uiso   1.00
C838   C     0.99961   0.25058   0.60136   0.00000  Uiso   1.00
C839   C     0.97625   0.05685   0.76048   0.00000  Uiso   1.00
C840   C     0.50748   0.04424   0.73449   0.00000  Uiso   1.00
C841   C     0.56584   0.37312   0.16852   0.00000  Uiso   1.00
C842   C     0.58434   0.40083   0.14198   0.00000  Uiso   1.00
C843   C     0.58260   0.38938   0.09940   0.00000  Uiso   1.00
C844   C     0.84318   0.21333   0.74747   0.00000  Uiso   1.00
C845   C     0.83333   0.25080   0.73140   0.00000  Uiso   1.00
C846   C     0.81924   0.27588   0.76337   0.00000  Uiso   1.00
C847   C     0.62853   0.33075   0.33695   0.00000  Uiso   1.00
C848   C     0.64099   0.30337   0.36782   0.00000  Uiso   1.00
C849   C     0.75100   0.49927   0.39847   0.00000  Uiso   1.00
C850   C     0.61081   0.27698   0.37864   0.00000  Uiso   1.00
C851   C     0.80142   0.36328   0.68350   0.00000  Uiso   1.00
C852   C     0.80633   0.32890   0.65909   0.00000  Uiso   1.00
C853   C     0.77042   0.30847   0.65485   0.00000  Uiso   1.00
C854   C     0.63092   0.07967   0.33619   0.00000  Uiso   1.00
C855   C     0.64024   0.07296   0.37902   0.00000  Uiso   1.00
C856   C     0.67541   0.05141   0.38353   0.00000  Uiso   1.00
C857   C     0.65700   0.28635   0.74847   0.00000  Uiso   1.00
C858   C     0.66643   0.24875   0.73264   0.00000  Uiso   1.00
C859   C     0.68098   0.22383   0.76468   0.00000  Uiso   1.00
C860   C     0.97343   0.23052   0.58095   0.00000  Uiso   1.00
C861   C     0.75042   0.49990   0.60228   0.00000  Uiso   1.00
C862   C     0.88095   0.16568   0.33900   0.00000  Uiso   1.00
C863   C     0.86788   0.18897   0.37302   0.00000  Uiso   1.00
C864   C     0.89033   0.22339   0.37733   0.00000  Uiso   1.00
C865   C     0.69898   0.13774   0.68454   0.00000  Uiso   1.00
C866   C     0.69422   0.17238   0.66041   0.00000  Uiso   1.00
C867   C     0.72998   0.19322   0.65747   0.00000  Uiso   1.00
C868   C     0.85942   0.41504   0.33980   0.00000  Uiso   1.00
C869   C     0.83758   0.42876   0.37463   0.00000  Uiso   1.00
C870   C     0.85961   0.45508   0.39947   0.00000  Uiso   1.00
C871   C     0.85249   0.31007   0.32060   0.00000  Uiso   1.00
C872   C     0.75013   0.00026   0.89805   0.00000  Uiso   1.00
C873   C     0.84194   0.30959   0.36361   0.00000  Uiso   1.00
C874   C     0.80949   0.28469   0.37071   0.00000  Uiso   1.00
C875   C     0.58385   0.14362   0.66001   0.00000  Uiso   1.00
C876   C     0.57278   0.16538   0.62393   0.00000  Uiso   1.00
C877   C     0.54322   0.14619   0.60049   0.00000  Uiso   1.00
C878   C     0.78466   0.15351   0.26640   0.00000  Uiso   1.00
C879   C     0.78341   0.19469   0.27231   0.00000  Uiso   1.00
C880   C     0.75146   0.21176   0.25035   0.00000  Uiso   1.00
C881   C     0.68520   0.37575   0.67008   0.00000  Uiso   1.00
C882   C     0.66691   0.34783   0.64364   0.00000  Uiso   1.00
C883   C     0.75010   0.00078   0.10149   0.00000  Uiso   1.00
C884   C     0.66921   0.35880   0.60092   0.00000  Uiso   1.00
C885   C     0.64092   0.19444   0.31679   0.00000  Uiso   1.00
C886   C     0.67722   0.18275   0.33530   0.00000  Uiso   1.00
C887   C     0.70027   0.21566   0.34606   0.00000  Uiso   1.00
C888   C     0.91700   0.35636   0.66086   0.00000  Uiso   1.00
C889   C     0.92711   0.33524   0.62418   0.00000  Uiso   1.00
C890   C     0.95741   0.35388   0.60146   0.00000  Uiso   1.00
C891   C     0.71248   0.34250   0.25095   0.00000  Uiso   1.00
C892   C     0.75021   0.33129   0.26562   0.00000  Uiso   1.00
C893   C     0.77340   0.31635   0.23236   0.00000  Uiso   1.00
C894   C     0.50057   0.24944   0.89855   0.00000  Uiso   1.00
C895   C     0.81529   0.12344   0.66926   0.00000  Uiso   1.00
C896   C     0.83371   0.15110   0.64262   0.00000  Uiso   1.00
C897   C     0.83108   0.14003   0.59996   0.00000  Uiso   1.00
C898   C     0.99285   0.33303   0.38646   0.00000  Uiso   1.00
C899   C     0.50330   0.35958   0.35413   0.00000  Uiso   1.00
C900   C     0.97102   0.38321   0.34178   0.00000  Uiso   1.00
C901   C     0.91226   0.23548   0.59171   0.00000  Uiso   1.00
C902   C     0.88726   0.23637   0.62715   0.00000  Uiso   1.00
C903   C     0.84919   0.24950   0.61615   0.00000  Uiso   1.00
C904   C     0.72908   0.41578   0.40181   0.00000  Uiso   1.00
C905   C     0.50159   0.24952   0.10208   0.00000  Uiso   1.00
C906   C     0.71060   0.38705   0.37677   0.00000  Uiso   1.00
C907   C     0.73338   0.35240   0.37457   0.00000  Uiso   1.00
C908   C     0.83208   0.49811   0.61768   0.00000  Uiso   1.00
C909   C     0.85283   0.01034   0.65403   0.00000  Uiso   1.00
C910   C     0.87771   0.48036   0.66967   0.00000  Uiso   1.00
C911   C     0.51051   0.16294   0.40790   0.00000  Uiso   1.00
C912   C     0.54729   0.17226   0.38927   0.00000  Uiso   1.00
C913   C     0.57641   0.14491   0.40154   0.00000  Uiso   1.00
C914   C     0.58635   0.26618   0.59107   0.00000  Uiso   1.00
C915   C     0.61149   0.26413   0.62654   0.00000  Uiso   1.00
C916   C     0.96098   0.19705   0.47915   0.00000  Uiso   1.00
C917   C     0.64934   0.25063   0.61545   0.00000  Uiso   1.00
C918   C     0.77727   0.08306   0.40800   0.00000  Uiso   1.00
C919   C     0.78747   0.11042   0.37662   0.00000  Uiso   1.00
C920   C     0.77260   0.14803   0.38617   0.00000  Uiso   1.00
C921   C     0.66877   0.00124   0.61588   0.00000  Uiso   1.00
C922   C     0.64892   0.49011   0.65312   0.00000  Uiso   1.00
C923   C     0.62400   0.02036   0.66784   0.00000  Uiso   1.00
C924   C     0.73453   0.08831   0.90616   0.00000  Uiso   1.00
C925   C     0.69816   0.07790   0.88715   0.00000  Uiso   1.00
C926   C     0.66798   0.10384   0.90005   0.00000  Uiso   1.00
C927   C     0.53721   0.30576   0.52041   0.00000  Uiso   1.00
C928   C     0.66364   0.48447   0.09031   0.00000  Uiso   1.00
C929   C     0.63799   0.48618   0.12516   0.00000  Uiso   1.00
C930   C     0.60026   0.49938   0.11298   0.00000  Uiso   1.00
C931   C     0.98580   0.16197   0.90663   0.00000  Uiso   1.00
C932   C     0.98728   0.13841   0.87011   0.00000  Uiso   1.00
C933   C     0.50086   0.10024   0.87943   0.00000  Uiso   1.00
C934   C     0.58324   0.24979   0.11830   0.00000  Uiso   1.00
C935   C     0.60438   0.26347   0.15375   0.00000  Uiso   1.00
C936   C     0.62941   0.23411   0.17045   0.00000  Uiso   1.00
C937   C     0.76399   0.41184   0.90759   0.00000  Uiso   1.00
C938   C     0.80884   0.03186   0.47972   0.00000  Uiso   1.00
C939   C     0.80061   0.42113   0.88868   0.00000  Uiso   1.00
C940   C     0.82987   0.39388   0.90118   0.00000  Uiso   1.00
C941   C     0.83729   0.02655   0.09067   0.00000  Uiso   1.00
C942   C     0.84603   0.48961   0.10919   0.00000  Uiso   1.00
C943   C     0.88290   0.47537   0.09571   0.00000  Uiso   1.00
C944   C     0.51599   0.33592   0.90935   0.00000  Uiso   1.00
C945   C     0.51346   0.36087   0.87386   0.00000  Uiso   1.00
C946   C     0.99912   0.39836   0.88479   0.00000  Uiso   1.00
C947   C     0.91373   0.25640   0.09104   0.00000  Uiso   1.00
C948   C     0.92144   0.29356   0.10958   0.00000  Uiso   1.00
C949   C     0.69344   0.46496   0.52010   0.00000  Uiso   1.00
C950   C     0.89688   0.32270   0.09191   0.00000  Uiso   1.00
C951   C     0.53494   0.30786   0.47962   0.00000  Uiso   1.00
C952   C     0.72839   0.47522   0.41863   0.00000  Uiso   1.00
C953   C     0.95930   0.19824   0.51984   0.00000  Uiso   1.00
C954   C     0.69488   0.46343   0.47939   0.00000  Uiso   1.00
C955   C     0.80964   0.03141   0.52048   0.00000  Uiso   1.00
C956   C     0.71492   0.44418   0.97971   0.00000  Uiso   1.00
C957   C     0.78564   0.05676   0.02017   0.00000  Uiso   1.00
C958   C     0.55667   0.28626   0.97922   0.00000  Uiso   1.00
C959   C     0.94939   0.20823   0.02075   0.00000  Uiso   1.00
C960   C     0.78378   0.05795   0.97940   0.00000  Uiso   1.00
C961   C     0.71275   0.44586   0.02040   0.00000  Uiso   1.00
C962   C     0.94986   0.20734   0.98006   0.00000  Uiso   1.00
C963   C     0.78085   0.01349   0.58284   0.00000  Uiso   1.00
C964   C     0.55924   0.28376   0.01996   0.00000  Uiso   1.00
C965   C     0.75034   0.49989   0.35589   0.00000  Uiso   1.00
C966   C     0.75012   0.00001   0.64442   0.00000  Uiso   1.00
C967   C     0.50005   0.24990   0.35569   0.00000  Uiso   1.00
C968   C     0.99993   0.25010   0.64402   0.00000  Uiso   1.00
C969   C     0.50001   0.24992   0.85593   0.00000  Uiso   1.00
C970   C     0.50016   0.24999   0.14432   0.00000  Uiso   1.00
C971   C     0.75005   0.00005   0.85576   0.00000  Uiso   1.00
C972   C     0.75000   0.00035   0.14407   0.00000  Uiso   1.00
C973   C     0.67987   0.06978   0.24999   0.00000  Uiso   1.00
C974   C     0.98767   0.22035   0.41814   0.00000  Uiso   1.00
C975   C     0.82019   0.43002   0.74989   0.00000  Uiso   1.00
C976   C     0.93024   0.17962   0.25041   0.00000  Uiso   1.00
C977   C     0.56997   0.32007   0.74989   0.00000  Uiso   1.00
C978   C     0.82009   0.43022   0.25016   0.00000  Uiso   1.00
C979   C     0.67976   0.06992   0.74973   0.00000  Uiso   1.00
C980   C     0.56986   0.32031   0.25033   0.00000  Uiso   1.00
C981   C     0.93004   0.17989   0.74987   0.00000  Uiso   1.00
C982   C     0.67986   0.43000   0.74990   0.00000  Uiso   1.00
C983   C     0.82005   0.07000   0.25007   0.00000  Uiso   1.00
C984   C     0.93003   0.31998   0.74990   0.00000  Uiso   1.00
C985   C     0.52507   0.27150   0.58099   0.00000  Uiso   1.00
C986   C     0.57035   0.18016   0.24963   0.00000  Uiso   1.00
C987   C     0.82021   0.06996   0.74987   0.00000  Uiso   1.00
C988   C     0.68000   0.42993   0.24979   0.00000  Uiso   1.00
C989   C     0.56988   0.17996   0.74982   0.00000  Uiso   1.00
C990   C     0.92986   0.32006   0.24984   0.00000  Uiso   1.00
C991   C     0.61781   0.40889   0.23190   0.00000  Uiso   1.00
C992   C     0.88161   0.09218   0.77004   0.00000  Uiso   1.00
C993   C     0.60475   0.13116   0.21510   0.00000  Uiso   1.00
C994   C     0.89514   0.36781   0.78396   0.00000  Uiso   1.00
C995   C     0.88183   0.09124   0.23185   0.00000  Uiso   1.00
C996   C     0.77447   0.02222   0.41891   0.00000  Uiso   1.00
C997   C     0.61838   0.40784   0.76950   0.00000  Uiso   1.00
C998   C     0.89626   0.37028   0.21599   0.00000  Uiso   1.00
C999   C     0.60439   0.13140   0.78341   0.00000  Uiso   1.00
C1000  C     0.62824   0.10205   0.78194   0.00000  Uiso   1.00
C1001  C     0.86682   0.39432   0.21475   0.00000  Uiso   1.00
C1002  C     0.59042   0.38264   0.76566   0.00000  Uiso   1.00
C1003  C     0.90709   0.11920   0.22832   0.00000  Uiso   1.00
C1004  C     0.87089   0.39694   0.78287   0.00000  Uiso   1.00
C1005  C     0.63341   0.10611   0.21459   0.00000  Uiso   1.00
C1006  C     0.90954   0.11742   0.76656   0.00000  Uiso   1.00
C1007  C     0.72055   0.48546   0.58245   0.00000  Uiso   1.00
C1008  C     0.59268   0.38080   0.22832   0.00000  Uiso   1.00
C1009  C     0.86800   0.15861   0.73250   0.00000  Uiso   1.00
C1010  C     0.62985   0.34411   0.27250   0.00000  Uiso   1.00
C1011  C     0.85347   0.37990   0.71632   0.00000  Uiso   1.00
C1012  C     0.64282   0.11549   0.28409   0.00000  Uiso   1.00
C1013  C     0.63225   0.34107   0.73314   0.00000  Uiso   1.00
C1014  C     0.87164   0.15475   0.27480   0.00000  Uiso   1.00
C1015  C     0.64669   0.12054   0.71628   0.00000  Uiso   1.00
C1016  C     0.85541   0.38267   0.28372   0.00000  Uiso   1.00
C1017  C     0.87973   0.35352   0.28272   0.00000  Uiso   1.00
C1018  C     0.75973   0.03198   0.91783   0.00000  Uiso   1.00
C1019  C     0.61777   0.14515   0.71539   0.00000  Uiso   1.00
C1020  C     0.84278   0.13072   0.27066   0.00000  Uiso   1.00
C1021  C     0.65737   0.36906   0.72936   0.00000  Uiso   1.00
C1022  C     0.61979   0.14554   0.28283   0.00000  Uiso   1.00
C1023  C     0.88228   0.35519   0.71550   0.00000  Uiso   1.00
C1024  C     0.65861   0.36816   0.26722   0.00000  Uiso   1.00
C1025  C     0.84295   0.13059   0.72873   0.00000  Uiso   1.00
C1026  C     0.98180   0.22301   0.45857   0.00000  Uiso   1.00
C1027  C     0.52044   0.27684   0.54053   0.00000  Uiso   1.00
C1028  C     0.77868   0.01758   0.45950   0.00000  Uiso   1.00
Cl1029 Cl    0.93367   0.16455   0.45477   0.00000  Uiso   1.00
Cl1030 Cl    0.80336   0.09512   0.04495   0.00000  Uiso   1.00
Cl1031 Cl    0.59328   0.30621   0.95323   0.00000  Uiso   1.00
Cl1032 Cl    0.91798   0.17974   0.04504   0.00000  Uiso   1.00
Cl1033 Cl    0.80839   0.09258   0.95532   0.00000  Uiso   1.00
Cl1034 Cl    0.69328   0.40856   0.04555   0.00000  Uiso   1.00
Cl1035 Cl    0.91212   0.18752   0.95574   0.00000  Uiso   1.00
Cl1036 Cl    0.59702   0.30518   0.04228   0.00000  Uiso   1.00
Cl1037 Cl    0.55724   0.34253   0.54599   0.00000  Uiso   1.00
Cl1038 Cl    0.84839   0.04645   0.45448   0.00000  Uiso   1.00
Cl1039 Cl    0.65597   0.44312   0.54257   0.00000  Uiso   1.00
Cl1040 Cl    0.55886   0.34362   0.45646   0.00000  Uiso   1.00
Cl1041 Cl    0.93929   0.16093   0.54448   0.00000  Uiso   1.00
Cl1042 Cl    0.65656   0.44562   0.45415   0.00000  Uiso   1.00
Cl1043 Cl    0.84710   0.05332   0.54303   0.00000  Uiso   1.00
Cl1044 Cl    0.68962   0.40996   0.95576   0.00000  Uiso   1.00
H1045  H     0.60987   0.46867   0.26974   0.00000  Uiso   1.00
H1046  H     0.93097   0.06861   0.85055   0.00000  Uiso   1.00
H1047  H     0.95819   0.10151   0.72352   0.00000  Uiso   1.00
H1048  H     0.98390   0.05218   0.79141   0.00000  Uiso   1.00
H1049  H     0.95165   0.04048   0.75389   0.00000  Uiso   1.00
H1050  H     0.50016   0.04788   0.70331   0.00000  Uiso   1.00
H1051  H     0.51313   0.01504   0.73991   0.00000  Uiso   1.00
H1052  H     0.53258   0.05986   0.74102   0.00000  Uiso   1.00
H1053  H     0.53828   0.36728   0.15677   0.00000  Uiso   1.00
H1054  H     0.58116   0.34689   0.16788   0.00000  Uiso   1.00
H1055  H     0.57103   0.42779   0.14533   0.00000  Uiso   1.00
H1056  H     0.61340   0.40287   0.15050   0.00000  Uiso   1.00
H1057  H     0.90538   0.11078   0.84906   0.00000  Uiso   1.00
H1058  H     0.59682   0.36302   0.09569   0.00000  Uiso   1.00
H1059  H     0.59635   0.41002   0.08106   0.00000  Uiso   1.00
H1060  H     0.55386   0.38685   0.08964   0.00000  Uiso   1.00
H1061  H     0.86259   0.21675   0.77222   0.00000  Uiso   1.00
H1062  H     0.81784   0.20019   0.75829   0.00000  Uiso   1.00
H1063  H     0.85777   0.26321   0.71788   0.00000  Uiso   1.00
H1064  H     0.81193   0.24788   0.70871   0.00000  Uiso   1.00
H1065  H     0.79408   0.26458   0.77644   0.00000  Uiso   1.00
H1066  H     0.81289   0.30295   0.75084   0.00000  Uiso   1.00
H1067  H     0.84018   0.27930   0.78644   0.00000  Uiso   1.00
H1068  H     0.86772   0.09065   0.90443   0.00000  Uiso   1.00
H1069  H     0.59935   0.33805   0.34141   0.00000  Uiso   1.00
H1070  H     0.64487   0.35579   0.34146   0.00000  Uiso   1.00
H1071  H     0.66502   0.28822   0.35685   0.00000  Uiso   1.00
H1072  H     0.64950   0.31803   0.39462   0.00000  Uiso   1.00
H1073  H     0.59023   0.29103   0.39673   0.00000  Uiso   1.00
H1074  H     0.62225   0.25403   0.39580   0.00000  Uiso   1.00
H1075  H     0.59739   0.26636   0.35207   0.00000  Uiso   1.00
H1076  H     0.77901   0.37957   0.67038   0.00000  Uiso   1.00
H1077  H     0.79233   0.35594   0.71351   0.00000  Uiso   1.00
H1078  H     0.81658   0.33627   0.62971   0.00000  Uiso   1.00
H1079  H     0.91534   0.09052   0.91702   0.00000  Uiso   1.00
H1080  H     0.82648   0.31077   0.67338   0.00000  Uiso   1.00
H1081  H     0.75962   0.30089   0.68393   0.00000  Uiso   1.00
H1082  H     0.77474   0.28333   0.63768   0.00000  Uiso   1.00
H1083  H     0.75008   0.32557   0.63932   0.00000  Uiso   1.00
H1084  H     0.63119   0.05334   0.32029   0.00000  Uiso   1.00
H1085  H     0.60270   0.09097   0.33516   0.00000  Uiso   1.00
H1086  H     0.64309   0.09935   0.39434   0.00000  Uiso   1.00
H1087  H     0.61775   0.05760   0.39292   0.00000  Uiso   1.00
H1088  H     0.67266   0.02429   0.36972   0.00000  Uiso   1.00
H1089  H     0.68175   0.04764   0.41492   0.00000  Uiso   1.00
H1090  H     0.89267   0.04813   0.90688   0.00000  Uiso   1.00
H1091  H     0.69804   0.06639   0.36962   0.00000  Uiso   1.00
H1092  H     0.63773   0.28317   0.77327   0.00000  Uiso   1.00
H1093  H     0.68252   0.29935   0.75912   0.00000  Uiso   1.00
H1094  H     0.64171   0.23636   0.71959   0.00000  Uiso   1.00
H1095  H     0.68742   0.25145   0.70958   0.00000  Uiso   1.00
H1096  H     0.70653   0.23501   0.77713   0.00000  Uiso   1.00
H1097  H     0.68680   0.19659   0.75241   0.00000  Uiso   1.00
H1098  H     0.66052   0.22081   0.78819   0.00000  Uiso   1.00
H1099  H     0.91118   0.16330   0.33970   0.00000  Uiso   1.00
H1100  H     0.86953   0.13799   0.34360   0.00000  Uiso   1.00
H1101  H     0.53223   0.13276   0.16561   0.00000  Uiso   1.00
H1102  H     0.83880   0.19619   0.36869   0.00000  Uiso   1.00
H1103  H     0.87006   0.17301   0.40042   0.00000  Uiso   1.00
H1104  H     0.91905   0.21635   0.38356   0.00000  Uiso   1.00
H1105  H     0.87971   0.23966   0.40202   0.00000  Uiso   1.00
H1106  H     0.88913   0.23974   0.35024   0.00000  Uiso   1.00
H1107  H     0.72158   0.12167   0.67164   0.00000  Uiso   1.00
H1108  H     0.70775   0.14471   0.71479   0.00000  Uiso   1.00
H1109  H     0.68464   0.16529   0.63065   0.00000  Uiso   1.00
H1110  H     0.67358   0.19010   0.67430   0.00000  Uiso   1.00
H1111  H     0.74008   0.20058   0.68696   0.00000  Uiso   1.00
H1112  H     0.54374   0.10748   0.20823   0.00000  Uiso   1.00
H1113  H     0.72575   0.21853   0.64045   0.00000  Uiso   1.00
H1114  H     0.75084   0.17651   0.64243   0.00000  Uiso   1.00
H1115  H     0.86752   0.43898   0.32191   0.00000  Uiso   1.00
H1116  H     0.88430   0.40081   0.35060   0.00000  Uiso   1.00
H1117  H     0.81281   0.44294   0.36388   0.00000  Uiso   1.00
H1118  H     0.82908   0.40536   0.39291   0.00000  Uiso   1.00
H1119  H     0.88459   0.44157   0.41077   0.00000  Uiso   1.00
H1120  H     0.84290   0.46419   0.42456   0.00000  Uiso   1.00
H1121  H     0.86735   0.47927   0.38205   0.00000  Uiso   1.00
H1122  H     0.85899   0.28208   0.31079   0.00000  Uiso   1.00
H1123  H     0.57308   0.09085   0.12558   0.00000  Uiso   1.00
H1124  H     0.82813   0.31919   0.30368   0.00000  Uiso   1.00
H1125  H     0.86549   0.30037   0.38142   0.00000  Uiso   1.00
H1126  H     0.83464   0.33752   0.37302   0.00000  Uiso   1.00
H1127  H     0.78544   0.29423   0.35387   0.00000  Uiso   1.00
H1128  H     0.80256   0.28467   0.40216   0.00000  Uiso   1.00
H1129  H     0.81604   0.25653   0.36165   0.00000  Uiso   1.00
H1130  H     0.55903   0.13870   0.67789   0.00000  Uiso   1.00
H1131  H     0.59548   0.11707   0.65056   0.00000  Uiso   1.00
H1132  H     0.56227   0.19228   0.63311   0.00000  Uiso   1.00
H1133  H     0.59700   0.16963   0.60516   0.00000  Uiso   1.00
H1134  H     0.57878   0.06327   0.16869   0.00000  Uiso   1.00
H1135  H     0.55308   0.11923   0.59051   0.00000  Uiso   1.00
H1136  H     0.53599   0.16285   0.57458   0.00000  Uiso   1.00
H1137  H     0.51839   0.14262   0.61848   0.00000  Uiso   1.00
H1138  H     0.75781   0.14208   0.27470   0.00000  Uiso   1.00
H1139  H     0.78850   0.14705   0.23487   0.00000  Uiso   1.00
H1140  H     0.78058   0.20089   0.30379   0.00000  Uiso   1.00
H1141  H     0.80917   0.20696   0.26183   0.00000  Uiso   1.00
H1142  H     0.75540   0.20890   0.21843   0.00000  Uiso   1.00
H1143  H     0.74960   0.24101   0.25772   0.00000  Uiso   1.00
H1144  H     0.72546   0.19864   0.25874   0.00000  Uiso   1.00
H1145  H     0.51139   0.05446   0.17251   0.00000  Uiso   1.00
H1146  H     0.71294   0.38129   0.65887   0.00000  Uiso   1.00
H1147  H     0.67003   0.40206   0.66854   0.00000  Uiso   1.00
H1148  H     0.68006   0.32087   0.64770   0.00000  Uiso   1.00
H1149  H     0.63775   0.34609   0.65164   0.00000  Uiso   1.00
H1150  H     0.65528   0.38526   0.59652   0.00000  Uiso   1.00
H1151  H     0.65545   0.33811   0.58263   0.00000  Uiso   1.00
H1152  H     0.69807   0.36096   0.59165   0.00000  Uiso   1.00
H1153  H     0.62908   0.21626   0.33480   0.00000  Uiso   1.00
H1154  H     0.64570   0.20655   0.28740   0.00000  Uiso   1.00
H1155  H     0.67205   0.16652   0.36203   0.00000  Uiso   1.00
H1156  H     0.56647   0.44913   0.25532   0.00000  Uiso   1.00
H1157  H     0.52954   0.03899   0.12663   0.00000  Uiso   1.00
H1158  H     0.69277   0.16576   0.31440   0.00000  Uiso   1.00
H1159  H     0.70260   0.23456   0.32095   0.00000  Uiso   1.00
H1160  H     0.72799   0.20680   0.35467   0.00000  Uiso   1.00
H1161  H     0.68787   0.23006   0.37114   0.00000  Uiso   1.00
H1162  H     0.94200   0.35936   0.67902   0.00000  Uiso   1.00
H1163  H     0.90670   0.38374   0.65226   0.00000  Uiso   1.00
H1164  H     0.93656   0.30771   0.63264   0.00000  Uiso   1.00
H1165  H     0.90270   0.33250   0.60521   0.00000  Uiso   1.00
H1166  H     0.94868   0.38153   0.59234   0.00000  Uiso   1.00
H1167  H     0.96388   0.33775   0.57503   0.00000  Uiso   1.00
H1168  H     0.50578   0.08171   0.12885   0.00000  Uiso   1.00
H1169  H     0.98241   0.35585   0.61962   0.00000  Uiso   1.00
H1170  H     0.71590   0.36195   0.22631   0.00000  Uiso   1.00
H1171  H     0.69825   0.31774   0.24019   0.00000  Uiso   1.00
H1172  H     0.76414   0.35515   0.27861   0.00000  Uiso   1.00
H1173  H     0.74737   0.31012   0.28850   0.00000  Uiso   1.00
H1174  H     0.75940   0.29338   0.21784   0.00000  Uiso   1.00
H1175  H     0.79999   0.30659   0.24369   0.00000  Uiso   1.00
H1176  H     0.77842   0.33786   0.21043   0.00000  Uiso   1.00
H1177  H     0.78755   0.11789   0.65786   0.00000  Uiso   1.00
H1178  H     0.83038   0.09708   0.66819   0.00000  Uiso   1.00
H1179  H     0.89336   0.30685   0.81993   0.00000  Uiso   1.00
H1180  H     0.82080   0.17817   0.64648   0.00000  Uiso   1.00
H1181  H     0.86293   0.15270   0.65064   0.00000  Uiso   1.00
H1182  H     0.84448   0.11330   0.59568   0.00000  Uiso   1.00
H1183  H     0.84510   0.16046   0.58158   0.00000  Uiso   1.00
H1184  H     0.80214   0.13837   0.59066   0.00000  Uiso   1.00
H1185  H     0.98443   0.34858   0.41274   0.00000  Uiso   1.00
H1186  H     0.96924   0.31668   0.37607   0.00000  Uiso   1.00
H1187  H     0.52576   0.37728   0.36450   0.00000  Uiso   1.00
H1188  H     0.51315   0.34408   0.32842   0.00000  Uiso   1.00
H1189  H     0.96076   0.39918   0.36691   0.00000  Uiso   1.00
H1190  H     0.86560   0.34072   0.84433   0.00000  Uiso   1.00
H1191  H     0.94874   0.36603   0.33019   0.00000  Uiso   1.00
H1192  H     0.97963   0.40230   0.31852   0.00000  Uiso   1.00
H1193  H     0.89807   0.22162   0.56731   0.00000  Uiso   1.00
H1194  H     0.91736   0.26416   0.58265   0.00000  Uiso   1.00
H1195  H     0.88555   0.20885   0.63992   0.00000  Uiso   1.00
H1196  H     0.89868   0.25470   0.64971   0.00000  Uiso   1.00
H1197  H     0.85027   0.27775   0.60487   0.00000  Uiso   1.00
H1198  H     0.83156   0.24879   0.64224   0.00000  Uiso   1.00
H1199  H     0.83705   0.23157   0.59365   0.00000  Uiso   1.00
H1200  H     0.72919   0.40627   0.43264   0.00000  Uiso   1.00
H1201  H     0.94177   0.31451   0.86979   0.00000  Uiso   1.00
H1202  H     0.75773   0.41886   0.39187   0.00000  Uiso   1.00
H1203  H     0.68358   0.38073   0.38947   0.00000  Uiso   1.00
H1204  H     0.70650   0.39786   0.34686   0.00000  Uiso   1.00
H1205  H     0.76022   0.35821   0.36111   0.00000  Uiso   1.00
H1206  H     0.71911   0.33203   0.35636   0.00000  Uiso   1.00
H1207  H     0.73764   0.34085   0.40414   0.00000  Uiso   1.00
H1208  H     0.85185   0.49116   0.59436   0.00000  Uiso   1.00
H1209  H     0.81669   0.47300   0.62513   0.00000  Uiso   1.00
H1210  H     0.86946   0.03460   0.64692   0.00000  Uiso   1.00
H1211  H     0.83302   0.01801   0.67706   0.00000  Uiso   1.00
H1212  H     0.91454   0.34810   0.89457   0.00000  Uiso   1.00
H1213  H     0.89830   0.47271   0.64748   0.00000  Uiso   1.00
H1214  H     0.86152   0.45606   0.67752   0.00000  Uiso   1.00
H1215  H     0.89207   0.49009   0.69617   0.00000  Uiso   1.00
H1216  H     0.50190   0.13589   0.39703   0.00000  Uiso   1.00
H1217  H     0.51370   0.16004   0.44002   0.00000  Uiso   1.00
H1218  H     0.54455   0.17221   0.35702   0.00000  Uiso   1.00
H1219  H     0.55632   0.19963   0.39868   0.00000  Uiso   1.00
H1220  H     0.57922   0.14437   0.43377   0.00000  Uiso   1.00
H1221  H     0.60301   0.15285   0.38904   0.00000  Uiso   1.00
H1222  H     0.56918   0.11736   0.39108   0.00000  Uiso   1.00
H1223  H     0.86619   0.30130   0.90588   0.00000  Uiso   1.00
H1224  H     0.60049   0.28062   0.56707   0.00000  Uiso   1.00
H1225  H     0.58098   0.23776   0.58127   0.00000  Uiso   1.00
H1226  H     0.61363   0.29132   0.63994   0.00000  Uiso   1.00
H1227  H     0.59991   0.24551   0.64868   0.00000  Uiso   1.00
H1228  H     0.64786   0.22254   0.60387   0.00000  Uiso   1.00
H1229  H     0.66707   0.25077   0.64161   0.00000  Uiso   1.00
H1230  H     0.66165   0.26866   0.59317   0.00000  Uiso   1.00
H1231  H     0.78787   0.09272   0.43651   0.00000  Uiso   1.00
H1232  H     0.74698   0.08197   0.40966   0.00000  Uiso   1.00
H1233  H     0.81756   0.11174   0.37419   0.00000  Uiso   1.00
H1234  H     0.90957   0.28734   0.92593   0.00000  Uiso   1.00
H1235  H     0.77606   0.10145   0.34823   0.00000  Uiso   1.00
H1236  H     0.74246   0.14727   0.38853   0.00000  Uiso   1.00
H1237  H     0.78009   0.16711   0.36260   0.00000  Uiso   1.00
H1238  H     0.78439   0.15802   0.41397   0.00000  Uiso   1.00
H1239  H     0.64845   0.00683   0.59254   0.00000  Uiso   1.00
H1240  H     0.68377   0.02694   0.62181   0.00000  Uiso   1.00
H1241  H     0.63245   0.46541   0.64740   0.00000  Uiso   1.00
H1242  H     0.66927   0.48352   0.67613   0.00000  Uiso   1.00
H1243  H     0.60289   0.02696   0.64568   0.00000  Uiso   1.00
H1244  H     0.64006   0.04510   0.67432   0.00000  Uiso   1.00
H1245  H     0.89382   0.26781   0.88082   0.00000  Uiso   1.00
H1246  H     0.61031   0.01143   0.69500   0.00000  Uiso   1.00
H1247  H     0.74236   0.11559   0.89525   0.00000  Uiso   1.00
H1248  H     0.73091   0.09128   0.93819   0.00000  Uiso   1.00
H1249  H     0.70084   0.07886   0.85492   0.00000  Uiso   1.00
H1250  H     0.69036   0.04994   0.89581   0.00000  Uiso   1.00
H1251  H     0.66465   0.10267   0.93218   0.00000  Uiso   1.00
H1252  H     0.64175   0.09602   0.88645   0.00000  Uiso   1.00
H1253  H     0.67467   0.13208   0.89142   0.00000  Uiso   1.00
H1254  H     0.64994   0.47009   0.06593   0.00000  Uiso   1.00
H1255  H     0.66891   0.01302   0.08078   0.00000  Uiso   1.00
H1256  H     0.89108   0.03420   0.27190   0.00000  Uiso   1.00
H1257  H     0.63583   0.45892   0.13849   0.00000  Uiso   1.00
H1258  H     0.64911   0.00490   0.14753   0.00000  Uiso   1.00
H1259  H     0.60181   0.02733   0.10095   0.00000  Uiso   1.00
H1260  H     0.58212   0.49951   0.13867   0.00000  Uiso   1.00
H1261  H     0.58837   0.48101   0.09074   0.00000  Uiso   1.00
H1262  H     0.97167   0.14682   0.93010   0.00000  Uiso   1.00
H1263  H     0.51437   0.16685   0.91651   0.00000  Uiso   1.00
H1264  H     0.95982   0.13690   0.85695   0.00000  Uiso   1.00
H1265  H     0.50567   0.15075   0.84825   0.00000  Uiso   1.00
H1266  H     0.52906   0.10129   0.89110   0.00000  Uiso   1.00
H1267  H     0.60386   0.01356   0.21464   0.00000  Uiso   1.00
H1268  H     0.93467   0.04968   0.25325   0.00000  Uiso   1.00
H1269  H     0.50058   0.08382   0.85243   0.00000  Uiso   1.00
H1270  H     0.98293   0.08697   0.90114   0.00000  Uiso   1.00
H1271  H     0.60275   0.24225   0.09490   0.00000  Uiso   1.00
H1272  H     0.56818   0.22485   0.12705   0.00000  Uiso   1.00
H1273  H     0.62094   0.28741   0.14529   0.00000  Uiso   1.00
H1274  H     0.58483   0.27206   0.17666   0.00000  Uiso   1.00
H1275  H     0.64959   0.22538   0.14828   0.00000  Uiso   1.00
H1276  H     0.61326   0.21027   0.17988   0.00000  Uiso   1.00
H1277  H     0.64423   0.24498   0.19612   0.00000  Uiso   1.00
H1278  H     0.75546   0.38465   0.89705   0.00000  Uiso   1.00
H1279  H     0.88990   0.48629   0.21981   0.00000  Uiso   1.00
H1280  H     0.76750   0.40918   0.93969   0.00000  Uiso   1.00
H1281  H     0.79771   0.42072   0.85645   0.00000  Uiso   1.00
H1282  H     0.80945   0.44868   0.89770   0.00000  Uiso   1.00
H1283  H     0.83290   0.39385   0.93339   0.00000  Uiso   1.00
H1284  H     0.85646   0.40138   0.88837   0.00000  Uiso   1.00
H1285  H     0.82251   0.36616   0.89133   0.00000  Uiso   1.00
H1286  H     0.85789   0.04635   0.10086   0.00000  Uiso   1.00
H1287  H     0.84048   0.02490   0.05849   0.00000  Uiso   1.00
H1288  H     0.84654   0.49221   0.14142   0.00000  Uiso   1.00
H1289  H     0.82488   0.46961   0.10077   0.00000  Uiso   1.00
H1290  H     0.93404   0.00102   0.20356   0.00000  Uiso   1.00
H1291  H     0.88395   0.47404   0.06341   0.00000  Uiso   1.00
H1292  H     0.88698   0.44758   0.10733   0.00000  Uiso   1.00
H1293  H     0.90509   0.49314   0.10656   0.00000  Uiso   1.00
H1294  H     0.53070   0.35013   0.93317   0.00000  Uiso   1.00
H1295  H     0.98764   0.33045   0.91951   0.00000  Uiso   1.00
H1296  H     0.54069   0.36350   0.86060   0.00000  Uiso   1.00
H1297  H     0.99511   0.34893   0.85162   0.00000  Uiso   1.00
H1298  H     0.97080   0.39637   0.89582   0.00000  Uiso   1.00
H1299  H     0.99938   0.41601   0.85862   0.00000  Uiso   1.00
H1300  H     0.51660   0.41096   0.90743   0.00000  Uiso   1.00
H1301  H     0.96091   0.48570   0.26824   0.00000  Uiso   1.00
H1302  H     0.88669   0.24706   0.10133   0.00000  Uiso   1.00
H1303  H     0.91120   0.25921   0.05884   0.00000  Uiso   1.00
H1304  H     0.91691   0.29201   0.14154   0.00000  Uiso   1.00
H1305  H     0.94999   0.30191   0.10441   0.00000  Uiso   1.00
H1306  H     0.90313   0.32625   0.06050   0.00000  Uiso   1.00
H1307  H     0.90172   0.34893   0.10686   0.00000  Uiso   1.00
H1308  H     0.86787   0.31492   0.09497   0.00000  Uiso   1.00
H1309  H     0.93761   0.44697   0.24812   0.00000  Uiso   1.00
H1310  H     0.91648   0.47284   0.28631   0.00000  Uiso   1.00
H1311  H     0.62918   0.46329   0.84047   0.00000  Uiso   1.00
H1312  H     0.65053   0.42072   0.83104   0.00000  Uiso   1.00
H1313  H     0.56854   0.42979   0.84963   0.00000  Uiso   1.00
H1314  H     0.59460   0.38799   0.84656   0.00000  Uiso   1.00
H1315  H     0.55995   0.49449   0.20283   0.00000  Uiso   1.00
H1316  H     0.63202   0.40600   0.90279   0.00000  Uiso   1.00
H1317  H     0.58448   0.40579   0.91525   0.00000  Uiso   1.00
H1318  H     0.60717   0.44850   0.90684   0.00000  Uiso   1.00
H1319  H     0.97123   0.37043   0.17171   0.00000  Uiso   1.00
H1320  H     0.95719   0.39447   0.21413   0.00000  Uiso   1.00
H1321  H     0.93706   0.41281   0.12871   0.00000  Uiso   1.00
H1322  H     0.92246   0.43843   0.17078   0.00000  Uiso   1.00
H1323  H     0.98805   0.45071   0.18766   0.00000  Uiso   1.00
H1324  H     0.97524   0.46794   0.14033   0.00000  Uiso   1.00
H1325  H     0.50164   0.42670   0.14399   0.00000  Uiso   1.00
H1326  H     0.53675   0.01107   0.26869   0.00000  Uiso   1.00
H1327  H     0.60677   0.19192   0.81951   0.00000  Uiso   1.00
H1328  H     0.63416   0.15782   0.84414   0.00000  Uiso   1.00
H1329  H     0.55839   0.18521   0.86878   0.00000  Uiso   1.00
H1330  H     0.58463   0.15082   0.89386   0.00000  Uiso   1.00
H1331  H     0.63399   0.19644   0.90595   0.00000  Uiso   1.00
H1332  H     0.59083   0.21126   0.92549   0.00000  Uiso   1.00
H1333  H     0.60728   0.23068   0.88066   0.00000  Uiso   1.00
H1334  H     0.62390   0.02591   0.82414   0.00000  Uiso   1.00
H1335  H     0.60473   0.04071   0.77899   0.00000  Uiso   1.00
H1336  H     0.57717   0.06461   0.86015   0.00000  Uiso   1.00
H1337  H     0.55376   0.05024   0.24308   0.00000  Uiso   1.00
H1338  H     0.55575   0.07352   0.81362   0.00000  Uiso   1.00
H1339  H     0.54832   0.00580   0.80385   0.00000  Uiso   1.00
H1340  H     0.52506   0.02235   0.84653   0.00000  Uiso   1.00
H1341  H     0.56760   0.49846   0.85182   0.00000  Uiso   1.00
H1342  H     0.81109   0.42801   0.15464   0.00000  Uiso   1.00
H1343  H     0.80574   0.39085   0.18732   0.00000  Uiso   1.00
H1344  H     0.84741   0.38788   0.10963   0.00000  Uiso   1.00
H1345  H     0.83955   0.35044   0.14284   0.00000  Uiso   1.00
H1346  H     0.77227   0.35751   0.13309   0.00000  Uiso   1.00
H1347  H     0.79551   0.34978   0.08758   0.00000  Uiso   1.00
H1348  H     0.58077   0.02985   0.28119   0.00000  Uiso   1.00
H1349  H     0.78021   0.39494   0.09990   0.00000  Uiso   1.00
H1350  H     0.53211   0.38784   0.72539   0.00000  Uiso   1.00
H1351  H     0.54882   0.43248   0.73917   0.00000  Uiso   1.00
H1352  H     0.98536   0.39272   0.77905   0.00000  Uiso   1.00
H1353  H     0.50104   0.43817   0.78884   0.00000  Uiso   1.00
H1354  H     0.98465   0.45676   0.72080   0.00000  Uiso   1.00
H1355  H     0.94595   0.43829   0.74613   0.00000  Uiso   1.00
H1356  H     0.96948   0.41108   0.71062   0.00000  Uiso   1.00
H1357  H     0.95820   0.13441   0.15624   0.00000  Uiso   1.00
H1358  H     0.91115   0.14429   0.16328   0.00000  Uiso   1.00
H1359  H     0.86932   0.03643   0.84032   0.00000  Uiso   1.00
H1360  H     0.94203   0.06670   0.14989   0.00000  Uiso   1.00
H1361  H     0.89483   0.08032   0.14956   0.00000  Uiso   1.00
H1362  H     0.90295   0.11700   0.09131   0.00000  Uiso   1.00
H1363  H     0.92013   0.07185   0.08265   0.00000  Uiso   1.00
H1364  H     0.95164   0.10840   0.09124   0.00000  Uiso   1.00
H1365  H     0.87198   0.47130   0.82841   0.00000  Uiso   1.00
H1366  H     0.89463   0.45811   0.78478   0.00000  Uiso   1.00
H1367  H     0.91610   0.43452   0.86852   0.00000  Uiso   1.00
H1368  H     0.94035   0.42321   0.82457   0.00000  Uiso   1.00
H1369  H     0.95132   0.48936   0.81182   0.00000  Uiso   1.00
H1370  H     0.84933   0.07978   0.83127   0.00000  Uiso   1.00
H1371  H     0.96965   0.47506   0.85818   0.00000  Uiso   1.00
H1372  H     0.92771   0.00038   0.85658   0.00000  Uiso   1.00
H1373  H     0.69364   0.11114   0.17917   0.00000  Uiso   1.00
H1374  H     0.65855   0.13514   0.15173   0.00000  Uiso   1.00
H1375  H     0.68876   0.05912   0.13236   0.00000  Uiso   1.00
H1376  H     0.65555   0.08423   0.10448   0.00000  Uiso   1.00
H1377  H     0.70197   0.13318   0.09288   0.00000  Uiso   1.00
H1378  H     0.71704   0.08944   0.07537   0.00000  Uiso   1.00
H1379  H     0.73515   0.10700   0.12041   0.00000  Uiso   1.00
H1380  H     0.99327   0.11283   0.75759   0.00000  Uiso   1.00
O1381  O     0.75000   0.00000   0.25000   0.00000  Uiso   1.00
O1382  O     0.75000   0.46963   0.66245   0.00000  Uiso   1.00
O1383  O     0.93987   0.22970   0.10201   0.00000  Uiso   1.00
O1384  O     0.96964   0.25000   0.33755   0.00000  Uiso   1.00
O1385  O     0.53037   0.25000   0.66245   0.00000  Uiso   1.00
O1386  O     0.50000   0.21964   0.83755   0.00000  Uiso   1.00
O1387  O     0.50000   0.28037   0.16245   0.00000  Uiso   1.00
O1388  O     0.78037   0.00000   0.83755   0.00000  Uiso   1.00
O1389  O     0.71964   0.00000   0.16245   0.00000  Uiso   1.00
O1390  O     0.50000   0.28037   0.83755   0.00000  Uiso   1.00
O1391  O     0.50000   0.21963   0.16245   0.00000  Uiso   1.00
O1392  O     0.71964   0.00000   0.83755   0.00000  Uiso   1.00
O1393  O     0.75000   0.00000   0.75000   0.00000  Uiso   1.00
O1394  O     0.78037   0.00000   0.16245   0.00000  Uiso   1.00
O1395  O     0.70725   0.07308   0.27302   0.00000  Uiso   1.00
O1396  O     0.79276   0.42692   0.72698   0.00000  Uiso   1.00
O1397  O     0.92693   0.20725   0.27302   0.00000  Uiso   1.00
O1398  O     0.57308   0.29275   0.72698   0.00000  Uiso   1.00
O1399  O     0.79276   0.42692   0.27302   0.00000  Uiso   1.00
O1400  O     0.70725   0.07308   0.72698   0.00000  Uiso   1.00
O1401  O     0.57308   0.29275   0.27302   0.00000  Uiso   1.00
O1402  O     0.92693   0.20725   0.72698   0.00000  Uiso   1.00
O1403  O     0.70725   0.42692   0.72698   0.00000  Uiso   1.00
O1404  O     0.50000   0.25000   0.25000   0.00000  Uiso   1.00
O1405  O     0.79276   0.07308   0.27302   0.00000  Uiso   1.00
O1406  O     0.92693   0.29276   0.72698   0.00000  Uiso   1.00
O1407  O     0.57308   0.20724   0.27302   0.00000  Uiso   1.00
O1408  O     0.79276   0.07308   0.72698   0.00000  Uiso   1.00
O1409  O     0.70725   0.42692   0.27302   0.00000  Uiso   1.00
O1410  O     0.57308   0.20724   0.72698   0.00000  Uiso   1.00
O1411  O     0.92693   0.29276   0.27302   0.00000  Uiso   1.00
O1412  O     0.95725   0.32308   0.77302   0.00000  Uiso   1.00
O1413  O     0.54276   0.17692   0.22698   0.00000  Uiso   1.00
O1414  O     0.67693   0.45724   0.77302   0.00000  Uiso   1.00
O1415  O     0.50000   0.25000   0.75000   0.00000  Uiso   1.00
O1416  O     0.82308   0.04276   0.22698   0.00000  Uiso   1.00
O1417  O     0.54276   0.17692   0.77302   0.00000  Uiso   1.00
O1418  O     0.95725   0.32308   0.22698   0.00000  Uiso   1.00
O1419  O     0.82308   0.04276   0.77302   0.00000  Uiso   1.00
O1420  O     0.67693   0.45724   0.22698   0.00000  Uiso   1.00
O1421  O     0.95725   0.17693   0.22698   0.00000  Uiso   1.00
O1422  O     0.54276   0.32307   0.77302   0.00000  Uiso   1.00
O1423  O     0.67693   0.04276   0.22698   0.00000  Uiso   1.00
O1424  O     0.82308   0.45724   0.77302   0.00000  Uiso   1.00
O1425  O     0.54276   0.32307   0.22698   0.00000  Uiso   1.00
O1426  O     0.75000   0.46963   0.33755   0.00000  Uiso   1.00
O1427  O     0.95725   0.17693   0.77302   0.00000  Uiso   1.00
O1428  O     0.82308   0.45724   0.22698   0.00000  Uiso   1.00
O1429  O     0.67693   0.04276   0.77302   0.00000  Uiso   1.00
O1430  O     0.60941   0.44248   0.21607   0.00000  Uiso   1.00
O1431  O     0.88842   0.06051   0.79072   0.00000  Uiso   1.00
O1432  O     0.58581   0.13788   0.18084   0.00000  Uiso   1.00
O1433  O     0.91309   0.35987   0.81846   0.00000  Uiso   1.00
O1434  O     0.89007   0.05750   0.21647   0.00000  Uiso   1.00
O1435  O     0.61146   0.43951   0.79000   0.00000  Uiso   1.00
O1436  O     0.91668   0.36537   0.18247   0.00000  Uiso   1.00
O1437  O     0.75000   0.03037   0.66245   0.00000  Uiso   1.00
O1438  O     0.58661   0.13898   0.81797   0.00000  Uiso   1.00
O1439  O     0.63137   0.08003   0.81448   0.00000  Uiso   1.00
O1440  O     0.85929   0.41230   0.18003   0.00000  Uiso   1.00
O1441  O     0.55636   0.39123   0.78019   0.00000  Uiso   1.00
O1442  O     0.93836   0.11299   0.20680   0.00000  Uiso   1.00
O1443  O     0.86615   0.41733   0.81637   0.00000  Uiso   1.00
O1444  O     0.64174   0.08826   0.18032   0.00000  Uiso   1.00
O1445  O     0.94307   0.10932   0.78306   0.00000  Uiso   1.00
O1446  O     0.56134   0.38708   0.20671   0.00000  Uiso   1.00
O1447  O     0.85918   0.19243   0.71753   0.00000  Uiso   1.00
O1448  O     0.53037   0.25000   0.33755   0.00000  Uiso   1.00
O1449  O     0.63373   0.31611   0.29916   0.00000  Uiso   1.00
O1450  O     0.83319   0.38508   0.68262   0.00000  Uiso   1.00
O1451  O     0.65647   0.10378   0.31957   0.00000  Uiso   1.00
O1452  O     0.64097   0.30721   0.71838   0.00000  Uiso   1.00
O1453  O     0.86938   0.18126   0.30323   0.00000  Uiso   1.00
O1454  O     0.66727   0.11590   0.68283   0.00000  Uiso   1.00
O1455  O     0.83758   0.39089   0.31808   0.00000  Uiso   1.00
O1456  O     0.88385   0.33195   0.31555   0.00000  Uiso   1.00
O1457  O     0.61001   0.16357   0.68120   0.00000  Uiso   1.00
O1458  O     0.81114   0.13760   0.29124   0.00000  Uiso   1.00
O1459  O     0.96964   0.25000   0.66245   0.00000  Uiso   1.00
O1460  O     0.68902   0.36231   0.70865   0.00000  Uiso   1.00
O1461  O     0.61527   0.16579   0.31632   0.00000  Uiso   1.00
O1462  O     0.88993   0.33700   0.68123   0.00000  Uiso   1.00
O1463  O     0.69265   0.35884   0.28155   0.00000  Uiso   1.00
O1464  O     0.81138   0.13722   0.70762   0.00000  Uiso   1.00
O1465  O     0.52346   0.31115   0.39548   0.00000  Uiso   1.00
O1466  O     0.94441   0.21583   0.60113   0.00000  Uiso   1.00
O1467  O     0.70975   0.44890   0.39806   0.00000  Uiso   1.00
O1468  O     0.80938   0.02702   0.60490   0.00000  Uiso   1.00
O1469  O     0.98285   0.18826   0.39762   0.00000  Uiso   1.00
O1470  O     0.75000   0.03037   0.33755   0.00000  Uiso   1.00
O1471  O     0.55442   0.28587   0.60100   0.00000  Uiso   1.00
O1472  O     0.79286   0.04896   0.39867   0.00000  Uiso   1.00
O1473  O     0.69173   0.47223   0.60415   0.00000  Uiso   1.00
O1474  O     0.76307   0.06381   0.89645   0.00000  Uiso   1.00
O1475  O     0.69562   0.46500   0.10083   0.00000  Uiso   1.00
O1476  O     0.96595   0.19422   0.89830   0.00000  Uiso   1.00
O1477  O     0.56004   0.27797   0.10482   0.00000  Uiso   1.00
O1478  O     0.73611   0.43693   0.89723   0.00000  Uiso   1.00
O1479  O     0.80252   0.03981   0.10202   0.00000  Uiso   1.00
O1480  O     0.53579   0.30417   0.89919   0.00000  Uiso   1.00
Zn1481 Zn    0.70660   0.00000   0.21735   0.00000  Uiso   1.00
Zn1482 Zn    0.54341   0.25000   0.28265   0.00000  Uiso   1.00
Zn1483 Zn    0.75000   0.45659   0.71735   0.00000  Uiso   1.00
Zn1484 Zn    0.75000   0.04341   0.28265   0.00000  Uiso   1.00
Zn1485 Zn    0.54341   0.25000   0.71735   0.00000  Uiso   1.00
Zn1486 Zn    0.95660   0.25000   0.28265   0.00000  Uiso   1.00
Zn1487 Zn    0.75000   0.04341   0.71735   0.00000  Uiso   1.00
Zn1488 Zn    0.75000   0.45659   0.28265   0.00000  Uiso   1.00
Zn1489 Zn    0.79341   0.00000   0.78265   0.00000  Uiso   1.00
Zn1490 Zn    0.50000   0.20660   0.21735   0.00000  Uiso   1.00
Zn1491 Zn    0.50000   0.29341   0.78265   0.00000  Uiso   1.00
Zn1492 Zn    0.79341   0.00000   0.21735   0.00000  Uiso   1.00
Zn1493 Zn    0.70660   0.00000   0.78265   0.00000  Uiso   1.00
Zn1494 Zn    0.50000   0.29340   0.21735   0.00000  Uiso   1.00
Zn1495 Zn    0.50000   0.20660   0.78265   0.00000  Uiso   1.00
Zn1496 Zn    0.95660   0.25000   0.71735   0.00000  Uiso   1.00
C1497  C     0.01243   0.78162   0.41737   0.00000  Uiso   1.00
C1498  C     0.22495   0.97953   0.08106   0.00000  Uiso   1.00
C1499  C     0.22152   0.98254   0.54148   0.00000  Uiso   1.00
C1500  C     0.01583   0.78082   0.45841   0.00000  Uiso   1.00
C1501  C     0.47701   0.72638   0.54032   0.00000  Uiso   1.00
C1502  C     0.22451   0.97886   0.45929   0.00000  Uiso   1.00
C1503  C     0.28081   0.51504   0.54174   0.00000  Uiso   1.00
C1504  C     0.23447   0.97098   0.95886   0.00000  Uiso   1.00
C1505  C     0.27039   0.52719   0.04064   0.00000  Uiso   1.00
C1506  C     0.02743   0.76974   0.95934   0.00000  Uiso   1.00
C1507  C     0.47498   0.72956   0.04135   0.00000  Uiso   1.00
C1508  C     0.26509   0.53045   0.95863   0.00000  Uiso   1.00
C1509  C     0.48097   0.72288   0.91880   0.00000  Uiso   1.00
C1510  C     0.22928   0.97482   0.04064   0.00000  Uiso   1.00
C1511  C     0.47743   0.72579   0.95953   0.00000  Uiso   1.00
C1512  C     0.03192   0.76529   0.04150   0.00000  Uiso   1.00
C1513  C     0.09774   0.84865   0.25036   0.00000  Uiso   1.00
C1514  C     0.40225   0.65162   0.74957   0.00000  Uiso   1.00
C1515  C     0.15167   0.59748   0.24951   0.00000  Uiso   1.00
C1516  C     0.34855   0.90203   0.74965   0.00000  Uiso   1.00
C1517  C     0.40263   0.65100   0.25094   0.00000  Uiso   1.00
C1518  C     0.09787   0.84824   0.74958   0.00000  Uiso   1.00
C1519  C     0.34775   0.90198   0.24945   0.00000  Uiso   1.00
C1520  C     0.03213   0.76334   0.08274   0.00000  Uiso   1.00
C1521  C     0.15126   0.59780   0.74926   0.00000  Uiso   1.00
C1522  C     0.09780   0.65190   0.74956   0.00000  Uiso   1.00
C1523  C     0.40174   0.84837   0.24955   0.00000  Uiso   1.00
C1524  C     0.15158   0.90204   0.74960   0.00000  Uiso   1.00
C1525  C     0.34828   0.59787   0.25041   0.00000  Uiso   1.00
C1526  C     0.40205   0.84796   0.74979   0.00000  Uiso   1.00
C1527  C     0.09879   0.65219   0.24905   0.00000  Uiso   1.00
C1528  C     0.34858   0.59782   0.74950   0.00000  Uiso   1.00
C1529  C     0.15192   0.90197   0.24940   0.00000  Uiso   1.00
C1530  C     0.49860   0.75202   0.47895   0.00000  Uiso   1.00
C1531  C     0.24012   0.96888   0.91821   0.00000  Uiso   1.00
C1532  C     0.49856   0.75186   0.51987   0.00000  Uiso   1.00
C1533  C     0.25148   0.99835   0.48008   0.00000  Uiso   1.00
C1534  C     0.25129   0.99860   0.52115   0.00000  Uiso   1.00
C1535  C     0.24989   0.50075   0.97921   0.00000  Uiso   1.00
C1536  C     0.24998   0.50084   0.02010   0.00000  Uiso   1.00
C1537  C     0.00294   0.74740   0.98002   0.00000  Uiso   1.00
C1538  C     0.00345   0.74724   0.02098   0.00000  Uiso   1.00
C1539  C     0.09131   0.96332   0.24466   0.00000  Uiso   1.00
C1540  C     0.07965   0.99957   0.22681   0.00000  Uiso   1.00
C1541  C     0.06162   0.52413   0.25693   0.00000  Uiso   1.00
C1542  C     0.27520   0.52238   0.08123   0.00000  Uiso   1.00
C1543  C     0.37536   0.56413   0.82940   0.00000  Uiso   1.00
C1544  C     0.40399   0.58139   0.85587   0.00000  Uiso   1.00
C1545  C     0.39425   0.57728   0.89874   0.00000  Uiso   1.00
C1546  C     0.05413   0.61599   0.17909   0.00000  Uiso   1.00
C1547  C     0.06032   0.58255   0.15351   0.00000  Uiso   1.00
C1548  C     0.02448   0.56327   0.14495   0.00000  Uiso   1.00
C1549  C     0.39402   0.83200   0.83789   0.00000  Uiso   1.00
C1550  C     0.41350   0.82332   0.87616   0.00000  Uiso   1.00
C1551  C     0.39447   0.79305   0.89850   0.00000  Uiso   1.00
C1552  C     0.40825   0.53683   0.24529   0.00000  Uiso   1.00
C1553  C     0.02156   0.77476   0.91903   0.00000  Uiso   1.00
C1554  C     0.41588   0.99890   0.22930   0.00000  Uiso   1.00
C1555  C     0.43386   0.97469   0.25998   0.00000  Uiso   1.00
C1556  C     0.12408   0.93565   0.82891   0.00000  Uiso   1.00
C1557  C     0.09567   0.91712   0.85454   0.00000  Uiso   1.00
C1558  C     0.10552   0.91966   0.89757   0.00000  Uiso   1.00
C1559  C     0.44862   0.88692   0.18398   0.00000  Uiso   1.00
C1560  C     0.44440   0.92097   0.15886   0.00000  Uiso   1.00
C1561  C     0.47959   0.94286   0.15774   0.00000  Uiso   1.00
C1562  C     0.10582   0.66675   0.83749   0.00000  Uiso   1.00
C1563  C     0.08636   0.67566   0.87555   0.00000  Uiso   1.00
C1564  C     0.47205   0.73530   0.08176   0.00000  Uiso   1.00
C1565  C     0.10596   0.70537   0.89824   0.00000  Uiso   1.00
C1566  C     0.10924   0.54882   0.81000   0.00000  Uiso   1.00
C1567  C     0.07260   0.55381   0.83034   0.00000  Uiso   1.00
C1568  C     0.05219   0.51784   0.83321   0.00000  Uiso   1.00
C1569  C     0.32445   0.90281   0.16535   0.00000  Uiso   1.00
C1570  C     0.32836   0.87644   0.13148   0.00000  Uiso   1.00
C1571  C     0.29173   0.86930   0.11188   0.00000  Uiso   1.00
C1572  C     0.03556   0.90724   0.75003   0.00000  Uiso   1.00
C1573  C     0.49801   0.91717   0.76586   0.00000  Uiso   1.00
C1574  C     0.47306   0.93174   0.73379   0.00000  Uiso   1.00
C1575  C     0.49993   0.75071   0.39789   0.00000  Uiso   1.00
C1576  C     0.43235   0.62275   0.16730   0.00000  Uiso   1.00
C1577  C     0.42291   0.58923   0.14282   0.00000  Uiso   1.00
C1578  C     0.42463   0.59727   0.09930   0.00000  Uiso   1.00
C1579  C     0.38799   0.94898   0.81496   0.00000  Uiso   1.00
C1580  C     0.42294   0.94396   0.83868   0.00000  Uiso   1.00
C1581  C     0.44416   0.97944   0.84138   0.00000  Uiso   1.00
C1582  C     0.16896   0.60785   0.16051   0.00000  Uiso   1.00
C1583  C     0.17965   0.58679   0.12393   0.00000  Uiso   1.00
C1584  C     0.21037   0.60539   0.10186   0.00000  Uiso   1.00
C1585  C     0.46769   0.59712   0.75415   0.00000  Uiso   1.00
C1586  C     0.49961   0.75058   0.60136   0.00000  Uiso   1.00
C1587  C     0.47625   0.55685   0.76048   0.00000  Uiso   1.00
C1588  C     0.00748   0.54424   0.73449   0.00000  Uiso   1.00
C1589  C     0.06584   0.87312   0.16852   0.00000  Uiso   1.00
C1590  C     0.08434   0.90083   0.14198   0.00000  Uiso   1.00
C1591  C     0.08260   0.88938   0.09940   0.00000  Uiso   1.00
C1592  C     0.34318   0.71333   0.74747   0.00000  Uiso   1.00
C1593  C     0.33333   0.75080   0.73140   0.00000  Uiso   1.00
C1594  C     0.31924   0.77588   0.76337   0.00000  Uiso   1.00
C1595  C     0.12853   0.83075   0.33695   0.00000  Uiso   1.00
C1596  C     0.14099   0.80337   0.36782   0.00000  Uiso   1.00
C1597  C     0.25100   0.99927   0.39847   0.00000  Uiso   1.00
C1598  C     0.11081   0.77698   0.37864   0.00000  Uiso   1.00
C1599  C     0.30142   0.86328   0.68350   0.00000  Uiso   1.00
C1600  C     0.30633   0.82890   0.65909   0.00000  Uiso   1.00
C1601  C     0.27042   0.80847   0.65485   0.00000  Uiso   1.00
C1602  C     0.13092   0.57967   0.33619   0.00000  Uiso   1.00
C1603  C     0.14024   0.57296   0.37902   0.00000  Uiso   1.00
C1604  C     0.17541   0.55141   0.38353   0.00000  Uiso   1.00
C1605  C     0.15700   0.78635   0.74847   0.00000  Uiso   1.00
C1606  C     0.16643   0.74875   0.73264   0.00000  Uiso   1.00
C1607  C     0.18098   0.72383   0.76468   0.00000  Uiso   1.00
C1608  C     0.47343   0.73052   0.58095   0.00000  Uiso   1.00
C1609  C     0.25042   0.99990   0.60228   0.00000  Uiso   1.00
C1610  C     0.38095   0.66568   0.33900   0.00000  Uiso   1.00
C1611  C     0.36788   0.68897   0.37302   0.00000  Uiso   1.00
C1612  C     0.39033   0.72339   0.37733   0.00000  Uiso   1.00
C1613  C     0.19898   0.63774   0.68454   0.00000  Uiso   1.00
C1614  C     0.19422   0.67238   0.66041   0.00000  Uiso   1.00
C1615  C     0.22998   0.69322   0.65747   0.00000  Uiso   1.00
C1616  C     0.35942   0.91504   0.33980   0.00000  Uiso   1.00
C1617  C     0.33758   0.92876   0.37463   0.00000  Uiso   1.00
C1618  C     0.35961   0.95508   0.39947   0.00000  Uiso   1.00
C1619  C     0.35249   0.81007   0.32060   0.00000  Uiso   1.00
C1620  C     0.25013   0.50026   0.89805   0.00000  Uiso   1.00
C1621  C     0.34194   0.80959   0.36361   0.00000  Uiso   1.00
C1622  C     0.30949   0.78469   0.37071   0.00000  Uiso   1.00
C1623  C     0.08385   0.64362   0.66001   0.00000  Uiso   1.00
C1624  C     0.07278   0.66538   0.62393   0.00000  Uiso   1.00
C1625  C     0.04322   0.64619   0.60049   0.00000  Uiso   1.00
C1626  C     0.28466   0.65351   0.26640   0.00000  Uiso   1.00
C1627  C     0.28341   0.69469   0.27231   0.00000  Uiso   1.00
C1628  C     0.25146   0.71176   0.25035   0.00000  Uiso   1.00
C1629  C     0.18520   0.87575   0.67008   0.00000  Uiso   1.00
C1630  C     0.16691   0.84783   0.64364   0.00000  Uiso   1.00
C1631  C     0.25010   0.50078   0.10149   0.00000  Uiso   1.00
C1632  C     0.16921   0.85880   0.60092   0.00000  Uiso   1.00
C1633  C     0.14092   0.69444   0.31679   0.00000  Uiso   1.00
C1634  C     0.17722   0.68275   0.33530   0.00000  Uiso   1.00
C1635  C     0.20027   0.71566   0.34606   0.00000  Uiso   1.00
C1636  C     0.41700   0.85636   0.66086   0.00000  Uiso   1.00
C1637  C     0.42711   0.83524   0.62418   0.00000  Uiso   1.00
C1638  C     0.45741   0.85388   0.60146   0.00000  Uiso   1.00
C1639  C     0.21248   0.84250   0.25095   0.00000  Uiso   1.00
C1640  C     0.25021   0.83129   0.26562   0.00000  Uiso   1.00
C1641  C     0.27340   0.81635   0.23236   0.00000  Uiso   1.00
C1642  C     0.00057   0.74944   0.89855   0.00000  Uiso   1.00
C1643  C     0.31529   0.62344   0.66926   0.00000  Uiso   1.00
C1644  C     0.33371   0.65110   0.64262   0.00000  Uiso   1.00
C1645  C     0.33108   0.64003   0.59996   0.00000  Uiso   1.00
C1646  C     0.49285   0.83303   0.38646   0.00000  Uiso   1.00
C1647  C     0.00330   0.85958   0.35413   0.00000  Uiso   1.00
C1648  C     0.47102   0.88321   0.34178   0.00000  Uiso   1.00
C1649  C     0.41226   0.73548   0.59171   0.00000  Uiso   1.00
C1650  C     0.38726   0.73637   0.62715   0.00000  Uiso   1.00
C1651  C     0.34919   0.74950   0.61615   0.00000  Uiso   1.00
C1652  C     0.22908   0.91578   0.40181   0.00000  Uiso   1.00
C1653  C     0.00159   0.74952   0.10208   0.00000  Uiso   1.00
C1654  C     0.21060   0.88705   0.37677   0.00000  Uiso   1.00
C1655  C     0.23338   0.85240   0.37457   0.00000  Uiso   1.00
C1656  C     0.33208   0.99811   0.61768   0.00000  Uiso   1.00
C1657  C     0.35283   0.51034   0.65403   0.00000  Uiso   1.00
C1658  C     0.37771   0.98036   0.66967   0.00000  Uiso   1.00
C1659  C     0.01051   0.66294   0.40790   0.00000  Uiso   1.00
C1660  C     0.04729   0.67226   0.38927   0.00000  Uiso   1.00
C1661  C     0.07641   0.64491   0.40154   0.00000  Uiso   1.00
C1662  C     0.08635   0.76618   0.59107   0.00000  Uiso   1.00
C1663  C     0.11149   0.76413   0.62654   0.00000  Uiso   1.00
C1664  C     0.46098   0.69705   0.47915   0.00000  Uiso   1.00
C1665  C     0.14934   0.75063   0.61545   0.00000  Uiso   1.00
C1666  C     0.27727   0.58306   0.40800   0.00000  Uiso   1.00
C1667  C     0.28747   0.61042   0.37662   0.00000  Uiso   1.00
C1668  C     0.27260   0.64803   0.38617   0.00000  Uiso   1.00
C1669  C     0.16877   0.50124   0.61588   0.00000  Uiso   1.00
C1670  C     0.14892   0.99011   0.65312   0.00000  Uiso   1.00
C1671  C     0.12400   0.52036   0.66784   0.00000  Uiso   1.00
C1672  C     0.23453   0.58831   0.90616   0.00000  Uiso   1.00
C1673  C     0.19816   0.57790   0.88715   0.00000  Uiso   1.00
C1674  C     0.16798   0.60384   0.90005   0.00000  Uiso   1.00
C1675  C     0.03721   0.80576   0.52041   0.00000  Uiso   1.00
C1676  C     0.16364   0.98447   0.09031   0.00000  Uiso   1.00
C1677  C     0.13799   0.98618   0.12516   0.00000  Uiso   1.00
C1678  C     0.10026   0.99938   0.11298   0.00000  Uiso   1.00
C1679  C     0.48580   0.66197   0.90663   0.00000  Uiso   1.00
C1680  C     0.48728   0.63841   0.87011   0.00000  Uiso   1.00
C1681  C     0.00086   0.60024   0.87943   0.00000  Uiso   1.00
C1682  C     0.08324   0.74979   0.11830   0.00000  Uiso   1.00
C1683  C     0.10438   0.76347   0.15375   0.00000  Uiso   1.00
C1684  C     0.12941   0.73411   0.17045   0.00000  Uiso   1.00
C1685  C     0.26399   0.91184   0.90759   0.00000  Uiso   1.00
C1686  C     0.30884   0.53186   0.47972   0.00000  Uiso   1.00
C1687  C     0.30061   0.92113   0.88868   0.00000  Uiso   1.00
C1688  C     0.32987   0.89388   0.90118   0.00000  Uiso   1.00
C1689  C     0.33729   0.52655   0.09067   0.00000  Uiso   1.00
C1690  C     0.34603   0.98961   0.10919   0.00000  Uiso   1.00
C1691  C     0.38290   0.97537   0.09571   0.00000  Uiso   1.00
C1692  C     0.01599   0.83592   0.90935   0.00000  Uiso   1.00
C1693  C     0.01346   0.86087   0.87386   0.00000  Uiso   1.00
C1694  C     0.49912   0.89836   0.88479   0.00000  Uiso   1.00
C1695  C     0.41373   0.75640   0.09104   0.00000  Uiso   1.00
C1696  C     0.42144   0.79356   0.10958   0.00000  Uiso   1.00
C1697  C     0.19344   0.96496   0.52010   0.00000  Uiso   1.00
C1698  C     0.39688   0.82270   0.09191   0.00000  Uiso   1.00
C1699  C     0.03494   0.80786   0.47962   0.00000  Uiso   1.00
C1700  C     0.22839   0.97522   0.41863   0.00000  Uiso   1.00
C1701  C     0.45930   0.69824   0.51984   0.00000  Uiso   1.00
C1702  C     0.19488   0.96343   0.47939   0.00000  Uiso   1.00
C1703  C     0.30964   0.53141   0.52048   0.00000  Uiso   1.00
C1704  C     0.21492   0.94418   0.97971   0.00000  Uiso   1.00
C1705  C     0.28564   0.55676   0.02017   0.00000  Uiso   1.00
C1706  C     0.05667   0.78626   0.97922   0.00000  Uiso   1.00
C1707  C     0.44939   0.70823   0.02075   0.00000  Uiso   1.00
C1708  C     0.28378   0.55795   0.97940   0.00000  Uiso   1.00
C1709  C     0.21275   0.94586   0.02040   0.00000  Uiso   1.00
C1710  C     0.44986   0.70734   0.98006   0.00000  Uiso   1.00
C1711  C     0.28085   0.51349   0.58284   0.00000  Uiso   1.00
C1712  C     0.05924   0.78376   0.01996   0.00000  Uiso   1.00
C1713  C     0.25034   0.99989   0.35589   0.00000  Uiso   1.00
C1714  C     0.25012   0.50001   0.64442   0.00000  Uiso   1.00
C1715  C     0.00005   0.74990   0.35569   0.00000  Uiso   1.00
C1716  C     0.49993   0.75010   0.64402   0.00000  Uiso   1.00
C1717  C     0.00001   0.74992   0.85593   0.00000  Uiso   1.00
C1718  C     0.00016   0.74999   0.14432   0.00000  Uiso   1.00
C1719  C     0.25005   0.50005   0.85576   0.00000  Uiso   1.00
C1720  C     0.25000   0.50035   0.14407   0.00000  Uiso   1.00
C1721  C     0.17987   0.56978   0.24999   0.00000  Uiso   1.00
C1722  C     0.48767   0.72035   0.41814   0.00000  Uiso   1.00
C1723  C     0.32019   0.93002   0.74989   0.00000  Uiso   1.00
C1724  C     0.43024   0.67962   0.25041   0.00000  Uiso   1.00
C1725  C     0.06997   0.82007   0.74989   0.00000  Uiso   1.00
C1726  C     0.32009   0.93022   0.25016   0.00000  Uiso   1.00
C1727  C     0.17976   0.56992   0.74973   0.00000  Uiso   1.00
C1728  C     0.06986   0.82031   0.25033   0.00000  Uiso   1.00
C1729  C     0.43004   0.67989   0.74987   0.00000  Uiso   1.00
C1730  C     0.17986   0.93000   0.74990   0.00000  Uiso   1.00
C1731  C     0.32005   0.57000   0.25007   0.00000  Uiso   1.00
C1732  C     0.43003   0.81998   0.74990   0.00000  Uiso   1.00
C1733  C     0.02507   0.77150   0.58099   0.00000  Uiso   1.00
C1734  C     0.07035   0.68016   0.24963   0.00000  Uiso   1.00
C1735  C     0.32021   0.56996   0.74987   0.00000  Uiso   1.00
C1736  C     0.18000   0.92993   0.24979   0.00000  Uiso   1.00
C1737  C     0.06988   0.67996   0.74982   0.00000  Uiso   1.00
C1738  C     0.42986   0.82006   0.24984   0.00000  Uiso   1.00
C1739  C     0.11781   0.90889   0.23190   0.00000  Uiso   1.00
C1740  C     0.38161   0.59218   0.77004   0.00000  Uiso   1.00
C1741  C     0.10475   0.63116   0.21510   0.00000  Uiso   1.00
C1742  C     0.39514   0.86781   0.78396   0.00000  Uiso   1.00
C1743  C     0.38183   0.59124   0.23185   0.00000  Uiso   1.00
C1744  C     0.27447   0.52222   0.41891   0.00000  Uiso   1.00
C1745  C     0.11838   0.90784   0.76950   0.00000  Uiso   1.00
C1746  C     0.39626   0.87028   0.21599   0.00000  Uiso   1.00
C1747  C     0.10439   0.63140   0.78341   0.00000  Uiso   1.00
C1748  C     0.12824   0.60205   0.78194   0.00000  Uiso   1.00
C1749  C     0.36682   0.89432   0.21475   0.00000  Uiso   1.00
C1750  C     0.09042   0.88264   0.76566   0.00000  Uiso   1.00
C1751  C     0.40709   0.61920   0.22832   0.00000  Uiso   1.00
C1752  C     0.37089   0.89694   0.78287   0.00000  Uiso   1.00
C1753  C     0.13341   0.60611   0.21459   0.00000  Uiso   1.00
C1754  C     0.40954   0.61742   0.76656   0.00000  Uiso   1.00
C1755  C     0.22055   0.98546   0.58245   0.00000  Uiso   1.00
C1756  C     0.09268   0.88080   0.22832   0.00000  Uiso   1.00
C1757  C     0.36800   0.65861   0.73250   0.00000  Uiso   1.00
C1758  C     0.12985   0.84411   0.27250   0.00000  Uiso   1.00
C1759  C     0.35347   0.87990   0.71632   0.00000  Uiso   1.00
C1760  C     0.14282   0.61549   0.28409   0.00000  Uiso   1.00
C1761  C     0.13225   0.84107   0.73314   0.00000  Uiso   1.00
C1762  C     0.37164   0.65475   0.27480   0.00000  Uiso   1.00
C1763  C     0.14669   0.62054   0.71628   0.00000  Uiso   1.00
C1764  C     0.35541   0.88267   0.28372   0.00000  Uiso   1.00
C1765  C     0.37973   0.85352   0.28272   0.00000  Uiso   1.00
C1766  C     0.25973   0.53198   0.91783   0.00000  Uiso   1.00
C1767  C     0.11777   0.64515   0.71539   0.00000  Uiso   1.00
C1768  C     0.34278   0.63072   0.27066   0.00000  Uiso   1.00
C1769  C     0.15737   0.86906   0.72936   0.00000  Uiso   1.00
C1770  C     0.11979   0.64554   0.28283   0.00000  Uiso   1.00
C1771  C     0.38228   0.85519   0.71550   0.00000  Uiso   1.00
C1772  C     0.15861   0.86816   0.26722   0.00000  Uiso   1.00
C1773  C     0.34295   0.63059   0.72873   0.00000  Uiso   1.00
C1774  C     0.48180   0.72301   0.45857   0.00000  Uiso   1.00
C1775  C     0.02044   0.77684   0.54053   0.00000  Uiso   1.00
C1776  C     0.27868   0.51758   0.45950   0.00000  Uiso   1.00
Cl1777 Cl    0.43367   0.66455   0.45477   0.00000  Uiso   1.00
Cl1778 Cl    0.30336   0.59512   0.04495   0.00000  Uiso   1.00
Cl1779 Cl    0.09328   0.80621   0.95323   0.00000  Uiso   1.00
Cl1780 Cl    0.41798   0.67974   0.04504   0.00000  Uiso   1.00
Cl1781 Cl    0.30839   0.59258   0.95532   0.00000  Uiso   1.00
Cl1782 Cl    0.19328   0.90856   0.04555   0.00000  Uiso   1.00
Cl1783 Cl    0.41212   0.68752   0.95574   0.00000  Uiso   1.00
Cl1784 Cl    0.09702   0.80518   0.04228   0.00000  Uiso   1.00
Cl1785 Cl    0.05724   0.84253   0.54599   0.00000  Uiso   1.00
Cl1786 Cl    0.34839   0.54645   0.45448   0.00000  Uiso   1.00
Cl1787 Cl    0.15597   0.94312   0.54257   0.00000  Uiso   1.00
Cl1788 Cl    0.05886   0.84362   0.45646   0.00000  Uiso   1.00
Cl1789 Cl    0.43929   0.66093   0.54448   0.00000  Uiso   1.00
Cl1790 Cl    0.15656   0.94562   0.45415   0.00000  Uiso   1.00
Cl1791 Cl    0.34710   0.55332   0.54303   0.00000  Uiso   1.00
Cl1792 Cl    0.18962   0.90996   0.95576   0.00000  Uiso   1.00
H1793  H     0.10987   0.96867   0.26974   0.00000  Uiso   1.00
H1794  H     0.43097   0.56861   0.85055   0.00000  Uiso   1.00
H1795  H     0.45819   0.60151   0.72352   0.00000  Uiso   1.00
H1796  H     0.48390   0.55218   0.79141   0.00000  Uiso   1.00
H1797  H     0.45165   0.54048   0.75389   0.00000  Uiso   1.00
H1798  H     0.00016   0.54788   0.70331   0.00000  Uiso   1.00
H1799  H     0.01313   0.51504   0.73991   0.00000  Uiso   1.00
H1800  H     0.03258   0.55986   0.74102   0.00000  Uiso   1.00
H1801  H     0.03828   0.86728   0.15677   0.00000  Uiso   1.00
H1802  H     0.08116   0.84689   0.16788   0.00000  Uiso   1.00
H1803  H     0.07103   0.92779   0.14533   0.00000  Uiso   1.00
H1804  H     0.11340   0.90287   0.15050   0.00000  Uiso   1.00
H1805  H     0.40538   0.61078   0.84906   0.00000  Uiso   1.00
H1806  H     0.09682   0.86302   0.09569   0.00000  Uiso   1.00
H1807  H     0.09635   0.91002   0.08106   0.00000  Uiso   1.00
H1808  H     0.05386   0.88685   0.08964   0.00000  Uiso   1.00
H1809  H     0.36259   0.71675   0.77222   0.00000  Uiso   1.00
H1810  H     0.31784   0.70019   0.75829   0.00000  Uiso   1.00
H1811  H     0.35777   0.76321   0.71788   0.00000  Uiso   1.00
H1812  H     0.31193   0.74788   0.70871   0.00000  Uiso   1.00
H1813  H     0.29408   0.76458   0.77644   0.00000  Uiso   1.00
H1814  H     0.31289   0.80295   0.75084   0.00000  Uiso   1.00
H1815  H     0.34018   0.77930   0.78644   0.00000  Uiso   1.00
H1816  H     0.36772   0.59065   0.90443   0.00000  Uiso   1.00
H1817  H     0.09935   0.83805   0.34141   0.00000  Uiso   1.00
H1818  H     0.14487   0.85579   0.34146   0.00000  Uiso   1.00
H1819  H     0.16502   0.78822   0.35685   0.00000  Uiso   1.00
H1820  H     0.14950   0.81803   0.39462   0.00000  Uiso   1.00
H1821  H     0.09023   0.79103   0.39673   0.00000  Uiso   1.00
H1822  H     0.12225   0.75403   0.39580   0.00000  Uiso   1.00
H1823  H     0.09739   0.76636   0.35207   0.00000  Uiso   1.00
H1824  H     0.27901   0.87957   0.67038   0.00000  Uiso   1.00
H1825  H     0.29233   0.85594   0.71351   0.00000  Uiso   1.00
H1826  H     0.31658   0.83627   0.62971   0.00000  Uiso   1.00
H1827  H     0.41534   0.59052   0.91702   0.00000  Uiso   1.00
H1828  H     0.32648   0.81077   0.67338   0.00000  Uiso   1.00
H1829  H     0.25962   0.80089   0.68393   0.00000  Uiso   1.00
H1830  H     0.27474   0.78333   0.63768   0.00000  Uiso   1.00
H1831  H     0.25008   0.82557   0.63932   0.00000  Uiso   1.00
H1832  H     0.13119   0.55334   0.32029   0.00000  Uiso   1.00
H1833  H     0.10270   0.59097   0.33516   0.00000  Uiso   1.00
H1834  H     0.14309   0.59935   0.39434   0.00000  Uiso   1.00
H1835  H     0.11775   0.55760   0.39292   0.00000  Uiso   1.00
H1836  H     0.17266   0.52429   0.36972   0.00000  Uiso   1.00
H1837  H     0.18175   0.54764   0.41492   0.00000  Uiso   1.00
H1838  H     0.39267   0.54813   0.90688   0.00000  Uiso   1.00
H1839  H     0.19804   0.56639   0.36962   0.00000  Uiso   1.00
H1840  H     0.13773   0.78317   0.77327   0.00000  Uiso   1.00
H1841  H     0.18252   0.79935   0.75912   0.00000  Uiso   1.00
H1842  H     0.14171   0.73636   0.71959   0.00000  Uiso   1.00
H1843  H     0.18742   0.75145   0.70958   0.00000  Uiso   1.00
H1844  H     0.20653   0.73501   0.77713   0.00000  Uiso   1.00
H1845  H     0.18680   0.69659   0.75241   0.00000  Uiso   1.00
H1846  H     0.16052   0.72081   0.78819   0.00000  Uiso   1.00
H1847  H     0.41118   0.66330   0.33970   0.00000  Uiso   1.00
H1848  H     0.36953   0.63799   0.34360   0.00000  Uiso   1.00
H1849  H     0.03223   0.63276   0.16561   0.00000  Uiso   1.00
H1850  H     0.33880   0.69619   0.36869   0.00000  Uiso   1.00
H1851  H     0.37006   0.67301   0.40042   0.00000  Uiso   1.00
H1852  H     0.41905   0.71635   0.38356   0.00000  Uiso   1.00
H1853  H     0.37971   0.73966   0.40202   0.00000  Uiso   1.00
H1854  H     0.38913   0.73974   0.35024   0.00000  Uiso   1.00
H1855  H     0.22158   0.62167   0.67164   0.00000  Uiso   1.00
H1856  H     0.20775   0.64471   0.71479   0.00000  Uiso   1.00
H1857  H     0.18464   0.66529   0.63065   0.00000  Uiso   1.00
H1858  H     0.17358   0.69010   0.67430   0.00000  Uiso   1.00
H1859  H     0.24008   0.70058   0.68696   0.00000  Uiso   1.00
H1860  H     0.04374   0.60748   0.20823   0.00000  Uiso   1.00
H1861  H     0.22575   0.71853   0.64045   0.00000  Uiso   1.00
H1862  H     0.25084   0.67651   0.64243   0.00000  Uiso   1.00
H1863  H     0.36752   0.93898   0.32191   0.00000  Uiso   1.00
H1864  H     0.38430   0.90081   0.35060   0.00000  Uiso   1.00
H1865  H     0.31281   0.94294   0.36388   0.00000  Uiso   1.00
H1866  H     0.32908   0.90536   0.39291   0.00000  Uiso   1.00
H1867  H     0.38459   0.94157   0.41077   0.00000  Uiso   1.00
H1868  H     0.34290   0.96419   0.42456   0.00000  Uiso   1.00
H1869  H     0.36735   0.97927   0.38205   0.00000  Uiso   1.00
H1870  H     0.35899   0.78208   0.31079   0.00000  Uiso   1.00
H1871  H     0.07308   0.59085   0.12558   0.00000  Uiso   1.00
H1872  H     0.32813   0.81919   0.30368   0.00000  Uiso   1.00
H1873  H     0.36549   0.80037   0.38142   0.00000  Uiso   1.00
H1874  H     0.33464   0.83752   0.37302   0.00000  Uiso   1.00
H1875  H     0.28544   0.79423   0.35387   0.00000  Uiso   1.00
H1876  H     0.30256   0.78467   0.40216   0.00000  Uiso   1.00
H1877  H     0.31604   0.75653   0.36165   0.00000  Uiso   1.00
H1878  H     0.05903   0.63870   0.67789   0.00000  Uiso   1.00
H1879  H     0.09548   0.61707   0.65056   0.00000  Uiso   1.00
H1880  H     0.06227   0.69228   0.63311   0.00000  Uiso   1.00
H1881  H     0.09700   0.66963   0.60516   0.00000  Uiso   1.00
H1882  H     0.07878   0.56327   0.16869   0.00000  Uiso   1.00
H1883  H     0.05308   0.61923   0.59051   0.00000  Uiso   1.00
H1884  H     0.03599   0.66285   0.57458   0.00000  Uiso   1.00
H1885  H     0.01839   0.64262   0.61848   0.00000  Uiso   1.00
H1886  H     0.25781   0.64208   0.27470   0.00000  Uiso   1.00
H1887  H     0.28850   0.64705   0.23487   0.00000  Uiso   1.00
H1888  H     0.28058   0.70089   0.30379   0.00000  Uiso   1.00
H1889  H     0.30917   0.70696   0.26183   0.00000  Uiso   1.00
H1890  H     0.25540   0.70890   0.21843   0.00000  Uiso   1.00
H1891  H     0.24960   0.74101   0.25772   0.00000  Uiso   1.00
H1892  H     0.22546   0.69864   0.25874   0.00000  Uiso   1.00
H1893  H     0.01139   0.55446   0.17251   0.00000  Uiso   1.00
H1894  H     0.21294   0.88129   0.65887   0.00000  Uiso   1.00
H1895  H     0.17003   0.90206   0.66854   0.00000  Uiso   1.00
H1896  H     0.18006   0.82087   0.64770   0.00000  Uiso   1.00
H1897  H     0.13775   0.84609   0.65164   0.00000  Uiso   1.00
H1898  H     0.15528   0.88526   0.59652   0.00000  Uiso   1.00
H1899  H     0.15545   0.83811   0.58263   0.00000  Uiso   1.00
H1900  H     0.19807   0.86096   0.59165   0.00000  Uiso   1.00
H1901  H     0.12908   0.71626   0.33480   0.00000  Uiso   1.00
H1902  H     0.14570   0.70655   0.28740   0.00000  Uiso   1.00
H1903  H     0.17205   0.66652   0.36203   0.00000  Uiso   1.00
H1904  H     0.06647   0.94913   0.25532   0.00000  Uiso   1.00
H1905  H     0.02954   0.53899   0.12663   0.00000  Uiso   1.00
H1906  H     0.19277   0.66576   0.31440   0.00000  Uiso   1.00
H1907  H     0.20260   0.73456   0.32095   0.00000  Uiso   1.00
H1908  H     0.22799   0.70680   0.35467   0.00000  Uiso   1.00
H1909  H     0.18787   0.73006   0.37114   0.00000  Uiso   1.00
H1910  H     0.44200   0.85936   0.67902   0.00000  Uiso   1.00
H1911  H     0.40670   0.88374   0.65226   0.00000  Uiso   1.00
H1912  H     0.43656   0.80771   0.63264   0.00000  Uiso   1.00
H1913  H     0.40270   0.83250   0.60521   0.00000  Uiso   1.00
H1914  H     0.44868   0.88153   0.59234   0.00000  Uiso   1.00
H1915  H     0.46388   0.83775   0.57503   0.00000  Uiso   1.00
H1916  H     0.00578   0.58171   0.12885   0.00000  Uiso   1.00
H1917  H     0.48241   0.85585   0.61962   0.00000  Uiso   1.00
H1918  H     0.21590   0.86195   0.22631   0.00000  Uiso   1.00
H1919  H     0.19825   0.81774   0.24019   0.00000  Uiso   1.00
H1920  H     0.26414   0.85515   0.27861   0.00000  Uiso   1.00
H1921  H     0.24737   0.81012   0.28850   0.00000  Uiso   1.00
H1922  H     0.25940   0.79338   0.21784   0.00000  Uiso   1.00
H1923  H     0.29999   0.80659   0.24369   0.00000  Uiso   1.00
H1924  H     0.27842   0.83786   0.21043   0.00000  Uiso   1.00
H1925  H     0.28755   0.61789   0.65786   0.00000  Uiso   1.00
H1926  H     0.33038   0.59708   0.66819   0.00000  Uiso   1.00
H1927  H     0.39336   0.80685   0.81993   0.00000  Uiso   1.00
H1928  H     0.32080   0.67817   0.64648   0.00000  Uiso   1.00
H1929  H     0.36293   0.65270   0.65064   0.00000  Uiso   1.00
H1930  H     0.34448   0.61330   0.59568   0.00000  Uiso   1.00
H1931  H     0.34510   0.66046   0.58158   0.00000  Uiso   1.00
H1932  H     0.30214   0.63837   0.59066   0.00000  Uiso   1.00
H1933  H     0.48443   0.84858   0.41274   0.00000  Uiso   1.00
H1934  H     0.46924   0.81668   0.37607   0.00000  Uiso   1.00
H1935  H     0.02576   0.87728   0.36450   0.00000  Uiso   1.00
H1936  H     0.01315   0.84408   0.32842   0.00000  Uiso   1.00
H1937  H     0.46076   0.89918   0.36691   0.00000  Uiso   1.00
H1938  H     0.36560   0.84072   0.84433   0.00000  Uiso   1.00
H1939  H     0.44874   0.86603   0.33019   0.00000  Uiso   1.00
H1940  H     0.47963   0.90230   0.31852   0.00000  Uiso   1.00
H1941  H     0.39807   0.72162   0.56731   0.00000  Uiso   1.00
H1942  H     0.41736   0.76416   0.58265   0.00000  Uiso   1.00
H1943  H     0.38555   0.70885   0.63992   0.00000  Uiso   1.00
H1944  H     0.39868   0.75470   0.64971   0.00000  Uiso   1.00
H1945  H     0.35027   0.77775   0.60487   0.00000  Uiso   1.00
H1946  H     0.33156   0.74879   0.64224   0.00000  Uiso   1.00
H1947  H     0.33705   0.73157   0.59365   0.00000  Uiso   1.00
H1948  H     0.22919   0.90627   0.43264   0.00000  Uiso   1.00
H1949  H     0.44177   0.81451   0.86979   0.00000  Uiso   1.00
H1950  H     0.25773   0.91886   0.39187   0.00000  Uiso   1.00
H1951  H     0.18358   0.88073   0.38947   0.00000  Uiso   1.00
H1952  H     0.20650   0.89786   0.34686   0.00000  Uiso   1.00
H1953  H     0.26022   0.85821   0.36111   0.00000  Uiso   1.00
H1954  H     0.21911   0.83203   0.35636   0.00000  Uiso   1.00
H1955  H     0.23764   0.84085   0.40414   0.00000  Uiso   1.00
H1956  H     0.35185   0.99116   0.59436   0.00000  Uiso   1.00
H1957  H     0.31669   0.97300   0.62513   0.00000  Uiso   1.00
H1958  H     0.36946   0.53460   0.64692   0.00000  Uiso   1.00
H1959  H     0.33302   0.51801   0.67706   0.00000  Uiso   1.00
H1960  H     0.41454   0.84810   0.89457   0.00000  Uiso   1.00
H1961  H     0.39830   0.97271   0.64748   0.00000  Uiso   1.00
H1962  H     0.36152   0.95606   0.67752   0.00000  Uiso   1.00
H1963  H     0.39207   0.99009   0.69617   0.00000  Uiso   1.00
H1964  H     0.00190   0.63589   0.39703   0.00000  Uiso   1.00
H1965  H     0.01370   0.66004   0.44002   0.00000  Uiso   1.00
H1966  H     0.04455   0.67221   0.35702   0.00000  Uiso   1.00
H1967  H     0.05632   0.69963   0.39868   0.00000  Uiso   1.00
H1968  H     0.07922   0.64437   0.43377   0.00000  Uiso   1.00
H1969  H     0.10301   0.65285   0.38904   0.00000  Uiso   1.00
H1970  H     0.06918   0.61736   0.39108   0.00000  Uiso   1.00
H1971  H     0.36619   0.80130   0.90588   0.00000  Uiso   1.00
H1972  H     0.10049   0.78062   0.56707   0.00000  Uiso   1.00
H1973  H     0.08098   0.73776   0.58127   0.00000  Uiso   1.00
H1974  H     0.11363   0.79132   0.63994   0.00000  Uiso   1.00
H1975  H     0.09991   0.74551   0.64868   0.00000  Uiso   1.00
H1976  H     0.14786   0.72254   0.60387   0.00000  Uiso   1.00
H1977  H     0.16707   0.75077   0.64161   0.00000  Uiso   1.00
H1978  H     0.16165   0.76866   0.59317   0.00000  Uiso   1.00
H1979  H     0.28787   0.59272   0.43651   0.00000  Uiso   1.00
H1980  H     0.24698   0.58197   0.40966   0.00000  Uiso   1.00
H1981  H     0.31756   0.61174   0.37419   0.00000  Uiso   1.00
H1982  H     0.40957   0.78734   0.92593   0.00000  Uiso   1.00
H1983  H     0.27606   0.60145   0.34823   0.00000  Uiso   1.00
H1984  H     0.24246   0.64727   0.38853   0.00000  Uiso   1.00
H1985  H     0.28009   0.66711   0.36260   0.00000  Uiso   1.00
H1986  H     0.28439   0.65802   0.41397   0.00000  Uiso   1.00
H1987  H     0.14845   0.50683   0.59254   0.00000  Uiso   1.00
H1988  H     0.18377   0.52694   0.62181   0.00000  Uiso   1.00
H1989  H     0.13245   0.96541   0.64740   0.00000  Uiso   1.00
H1990  H     0.16927   0.98352   0.67613   0.00000  Uiso   1.00
H1991  H     0.10289   0.52696   0.64568   0.00000  Uiso   1.00
H1992  H     0.14006   0.54510   0.67432   0.00000  Uiso   1.00
H1993  H     0.39382   0.76781   0.88082   0.00000  Uiso   1.00
H1994  H     0.11031   0.51143   0.69500   0.00000  Uiso   1.00
H1995  H     0.24236   0.61559   0.89525   0.00000  Uiso   1.00
H1996  H     0.23091   0.59128   0.93819   0.00000  Uiso   1.00
H1997  H     0.20084   0.57886   0.85492   0.00000  Uiso   1.00
H1998  H     0.19036   0.54994   0.89581   0.00000  Uiso   1.00
H1999  H     0.16465   0.60267   0.93218   0.00000  Uiso   1.00
H2000  H     0.14175   0.59602   0.88645   0.00000  Uiso   1.00
H2001  H     0.17467   0.63208   0.89142   0.00000  Uiso   1.00
H2002  H     0.14994   0.97009   0.06593   0.00000  Uiso   1.00
H2003  H     0.16891   0.51302   0.08078   0.00000  Uiso   1.00
H2004  H     0.39108   0.53420   0.27190   0.00000  Uiso   1.00
H2005  H     0.13583   0.95892   0.13849   0.00000  Uiso   1.00
H2006  H     0.14911   0.50490   0.14753   0.00000  Uiso   1.00
H2007  H     0.10181   0.52733   0.10095   0.00000  Uiso   1.00
H2008  H     0.08212   0.99951   0.13867   0.00000  Uiso   1.00
H2009  H     0.08837   0.98101   0.09074   0.00000  Uiso   1.00
H2010  H     0.47167   0.64682   0.93010   0.00000  Uiso   1.00
H2011  H     0.01437   0.66685   0.91651   0.00000  Uiso   1.00
H2012  H     0.45982   0.63690   0.85695   0.00000  Uiso   1.00
H2013  H     0.00567   0.65075   0.84825   0.00000  Uiso   1.00
H2014  H     0.02906   0.60129   0.89110   0.00000  Uiso   1.00
H2015  H     0.10386   0.51356   0.21464   0.00000  Uiso   1.00
H2016  H     0.43467   0.54968   0.25325   0.00000  Uiso   1.00
H2017  H     0.00058   0.58382   0.85243   0.00000  Uiso   1.00
H2018  H     0.48293   0.58697   0.90114   0.00000  Uiso   1.00
H2019  H     0.10275   0.74225   0.09490   0.00000  Uiso   1.00
H2020  H     0.06818   0.72485   0.12705   0.00000  Uiso   1.00
H2021  H     0.12094   0.78741   0.14529   0.00000  Uiso   1.00
H2022  H     0.08483   0.77206   0.17666   0.00000  Uiso   1.00
H2023  H     0.14959   0.72538   0.14828   0.00000  Uiso   1.00
H2024  H     0.11326   0.71027   0.17988   0.00000  Uiso   1.00
H2025  H     0.14423   0.74498   0.19612   0.00000  Uiso   1.00
H2026  H     0.25546   0.88465   0.89705   0.00000  Uiso   1.00
H2027  H     0.38990   0.98629   0.21981   0.00000  Uiso   1.00
H2028  H     0.26750   0.90918   0.93969   0.00000  Uiso   1.00
H2029  H     0.29771   0.92072   0.85645   0.00000  Uiso   1.00
H2030  H     0.30945   0.94868   0.89770   0.00000  Uiso   1.00
H2031  H     0.33290   0.89385   0.93339   0.00000  Uiso   1.00
H2032  H     0.35646   0.90138   0.88837   0.00000  Uiso   1.00
H2033  H     0.32251   0.86616   0.89133   0.00000  Uiso   1.00
H2034  H     0.35789   0.54635   0.10086   0.00000  Uiso   1.00
H2035  H     0.34048   0.52490   0.05849   0.00000  Uiso   1.00
H2036  H     0.34654   0.99221   0.14142   0.00000  Uiso   1.00
H2037  H     0.32488   0.96961   0.10077   0.00000  Uiso   1.00
H2038  H     0.43404   0.50102   0.20356   0.00000  Uiso   1.00
H2039  H     0.38395   0.97404   0.06341   0.00000  Uiso   1.00
H2040  H     0.38698   0.94758   0.10733   0.00000  Uiso   1.00
H2041  H     0.40509   0.99314   0.10656   0.00000  Uiso   1.00
H2042  H     0.03070   0.85013   0.93317   0.00000  Uiso   1.00
H2043  H     0.48764   0.83045   0.91951   0.00000  Uiso   1.00
H2044  H     0.04069   0.86350   0.86060   0.00000  Uiso   1.00
H2045  H     0.49511   0.84893   0.85162   0.00000  Uiso   1.00
H2046  H     0.47080   0.89637   0.89582   0.00000  Uiso   1.00
H2047  H     0.49938   0.91601   0.85862   0.00000  Uiso   1.00
H2048  H     0.01660   0.91096   0.90743   0.00000  Uiso   1.00
H2049  H     0.46091   0.98570   0.26824   0.00000  Uiso   1.00
H2050  H     0.38669   0.74706   0.10133   0.00000  Uiso   1.00
H2051  H     0.41120   0.75921   0.05884   0.00000  Uiso   1.00
H2052  H     0.41691   0.79201   0.14154   0.00000  Uiso   1.00
H2053  H     0.44999   0.80191   0.10441   0.00000  Uiso   1.00
H2054  H     0.40313   0.82625   0.06050   0.00000  Uiso   1.00
H2055  H     0.40172   0.84893   0.10686   0.00000  Uiso   1.00
H2056  H     0.36787   0.81492   0.09497   0.00000  Uiso   1.00
H2057  H     0.43761   0.94697   0.24812   0.00000  Uiso   1.00
H2058  H     0.41648   0.97284   0.28631   0.00000  Uiso   1.00
H2059  H     0.12918   0.96329   0.84047   0.00000  Uiso   1.00
H2060  H     0.15053   0.92072   0.83104   0.00000  Uiso   1.00
H2061  H     0.06854   0.92979   0.84963   0.00000  Uiso   1.00
H2062  H     0.09460   0.88799   0.84656   0.00000  Uiso   1.00
H2063  H     0.05995   0.99449   0.20283   0.00000  Uiso   1.00
H2064  H     0.13202   0.90600   0.90279   0.00000  Uiso   1.00
H2065  H     0.08448   0.90579   0.91525   0.00000  Uiso   1.00
H2066  H     0.10717   0.94850   0.90684   0.00000  Uiso   1.00
H2067  H     0.47123   0.87043   0.17171   0.00000  Uiso   1.00
H2068  H     0.45719   0.89447   0.21413   0.00000  Uiso   1.00
H2069  H     0.43706   0.91281   0.12871   0.00000  Uiso   1.00
H2070  H     0.42246   0.93843   0.17078   0.00000  Uiso   1.00
H2071  H     0.48805   0.95071   0.18766   0.00000  Uiso   1.00
H2072  H     0.47524   0.96794   0.14033   0.00000  Uiso   1.00
H2073  H     0.00164   0.92670   0.14399   0.00000  Uiso   1.00
H2074  H     0.03675   0.51107   0.26869   0.00000  Uiso   1.00
H2075  H     0.10677   0.69192   0.81951   0.00000  Uiso   1.00
H2076  H     0.13416   0.65782   0.84414   0.00000  Uiso   1.00
H2077  H     0.05839   0.68521   0.86878   0.00000  Uiso   1.00
H2078  H     0.08463   0.65082   0.89386   0.00000  Uiso   1.00
H2079  H     0.13399   0.69644   0.90595   0.00000  Uiso   1.00
H2080  H     0.09083   0.71126   0.92549   0.00000  Uiso   1.00
H2081  H     0.10728   0.73068   0.88066   0.00000  Uiso   1.00
H2082  H     0.12390   0.52591   0.82414   0.00000  Uiso   1.00
H2083  H     0.10473   0.54071   0.77899   0.00000  Uiso   1.00
H2084  H     0.07717   0.56461   0.86015   0.00000  Uiso   1.00
H2085  H     0.05376   0.55024   0.24308   0.00000  Uiso   1.00
H2086  H     0.05575   0.57352   0.81362   0.00000  Uiso   1.00
H2087  H     0.04832   0.50580   0.80385   0.00000  Uiso   1.00
H2088  H     0.02506   0.52235   0.84653   0.00000  Uiso   1.00
H2089  H     0.06760   0.99846   0.85182   0.00000  Uiso   1.00
H2090  H     0.31109   0.92801   0.15464   0.00000  Uiso   1.00
H2091  H     0.30574   0.89085   0.18732   0.00000  Uiso   1.00
H2092  H     0.34741   0.88788   0.10963   0.00000  Uiso   1.00
H2093  H     0.33955   0.85044   0.14284   0.00000  Uiso   1.00
H2094  H     0.27227   0.85751   0.13309   0.00000  Uiso   1.00
H2095  H     0.29551   0.84978   0.08758   0.00000  Uiso   1.00
H2096  H     0.08077   0.52985   0.28119   0.00000  Uiso   1.00
H2097  H     0.28021   0.89494   0.09990   0.00000  Uiso   1.00
H2098  H     0.03211   0.88784   0.72539   0.00000  Uiso   1.00
H2099  H     0.04882   0.93248   0.73917   0.00000  Uiso   1.00
H2100  H     0.48536   0.89272   0.77905   0.00000  Uiso   1.00
H2101  H     0.00104   0.93817   0.78884   0.00000  Uiso   1.00
H2102  H     0.48465   0.95676   0.72080   0.00000  Uiso   1.00
H2103  H     0.44595   0.93829   0.74613   0.00000  Uiso   1.00
H2104  H     0.46948   0.91108   0.71062   0.00000  Uiso   1.00
H2105  H     0.45820   0.63441   0.15624   0.00000  Uiso   1.00
H2106  H     0.41115   0.64429   0.16328   0.00000  Uiso   1.00
H2107  H     0.36932   0.53643   0.84032   0.00000  Uiso   1.00
H2108  H     0.44203   0.56670   0.14989   0.00000  Uiso   1.00
H2109  H     0.39483   0.58032   0.14956   0.00000  Uiso   1.00
H2110  H     0.40295   0.61700   0.09131   0.00000  Uiso   1.00
H2111  H     0.42013   0.57185   0.08265   0.00000  Uiso   1.00
H2112  H     0.45164   0.60840   0.09124   0.00000  Uiso   1.00
H2113  H     0.37198   0.97130   0.82841   0.00000  Uiso   1.00
H2114  H     0.39463   0.95811   0.78478   0.00000  Uiso   1.00
H2115  H     0.41610   0.93452   0.86852   0.00000  Uiso   1.00
H2116  H     0.44035   0.92321   0.82457   0.00000  Uiso   1.00
H2117  H     0.45132   0.98936   0.81182   0.00000  Uiso   1.00
H2118  H     0.34933   0.57978   0.83127   0.00000  Uiso   1.00
H2119  H     0.46965   0.97506   0.85818   0.00000  Uiso   1.00
H2120  H     0.42771   0.50038   0.85658   0.00000  Uiso   1.00
H2121  H     0.19364   0.61114   0.17917   0.00000  Uiso   1.00
H2122  H     0.15855   0.63514   0.15173   0.00000  Uiso   1.00
H2123  H     0.18876   0.55912   0.13236   0.00000  Uiso   1.00
H2124  H     0.15555   0.58423   0.10448   0.00000  Uiso   1.00
H2125  H     0.20197   0.63318   0.09288   0.00000  Uiso   1.00
H2126  H     0.21704   0.58944   0.07537   0.00000  Uiso   1.00
H2127  H     0.23515   0.60700   0.12041   0.00000  Uiso   1.00
H2128  H     0.49327   0.61283   0.75759   0.00000  Uiso   1.00
O2129  O     0.25000   0.50000   0.25000   0.00000  Uiso   1.00
O2130  O     0.25000   0.96963   0.66245   0.00000  Uiso   1.00
O2131  O     0.43987   0.72970   0.10201   0.00000  Uiso   1.00
O2132  O     0.46964   0.75000   0.33755   0.00000  Uiso   1.00
O2133  O     0.03037   0.75000   0.66245   0.00000  Uiso   1.00
O2134  O     0.00000   0.71964   0.83755   0.00000  Uiso   1.00
O2135  O     0.00000   0.78037   0.16245   0.00000  Uiso   1.00
O2136  O     0.28037   0.50000   0.83755   0.00000  Uiso   1.00
O2137  O     0.21964   0.50000   0.16245   0.00000  Uiso   1.00
O2138  O     0.00000   0.78037   0.83755   0.00000  Uiso   1.00
O2139  O     0.00000   0.71963   0.16245   0.00000  Uiso   1.00
O2140  O     0.21964   0.50000   0.83755   0.00000  Uiso   1.00
O2141  O     0.25000   0.50000   0.75000   0.00000  Uiso   1.00
O2142  O     0.28037   0.50000   0.16245   0.00000  Uiso   1.00
O2143  O     0.20725   0.57308   0.27302   0.00000  Uiso   1.00
O2144  O     0.29276   0.92692   0.72698   0.00000  Uiso   1.00
O2145  O     0.42693   0.70725   0.27302   0.00000  Uiso   1.00
O2146  O     0.07308   0.79275   0.72698   0.00000  Uiso   1.00
O2147  O     0.29276   0.92692   0.27302   0.00000  Uiso   1.00
O2148  O     0.20725   0.57308   0.72698   0.00000  Uiso   1.00
O2149  O     0.07308   0.79275   0.27302   0.00000  Uiso   1.00
O2150  O     0.42693   0.70725   0.72698   0.00000  Uiso   1.00
O2151  O     0.20725   0.92692   0.72698   0.00000  Uiso   1.00
O2152  O     0.00000   0.75000   0.25000   0.00000  Uiso   1.00
O2153  O     0.29276   0.57308   0.27302   0.00000  Uiso   1.00
O2154  O     0.42693   0.79276   0.72698   0.00000  Uiso   1.00
O2155  O     0.07308   0.70724   0.27302   0.00000  Uiso   1.00
O2156  O     0.29276   0.57308   0.72698   0.00000  Uiso   1.00
O2157  O     0.20725   0.92692   0.27302   0.00000  Uiso   1.00
O2158  O     0.07308   0.70724   0.72698   0.00000  Uiso   1.00
O2159  O     0.42693   0.79276   0.27302   0.00000  Uiso   1.00
O2160  O     0.45725   0.82308   0.77302   0.00000  Uiso   1.00
O2161  O     0.04276   0.67692   0.22698   0.00000  Uiso   1.00
O2162  O     0.17693   0.95724   0.77302   0.00000  Uiso   1.00
O2163  O     0.00000   0.75000   0.75000   0.00000  Uiso   1.00
O2164  O     0.32308   0.54276   0.22698   0.00000  Uiso   1.00
O2165  O     0.04276   0.67692   0.77302   0.00000  Uiso   1.00
O2166  O     0.45725   0.82308   0.22698   0.00000  Uiso   1.00
O2167  O     0.32308   0.54276   0.77302   0.00000  Uiso   1.00
O2168  O     0.17693   0.95724   0.22698   0.00000  Uiso   1.00
O2169  O     0.45725   0.67693   0.22698   0.00000  Uiso   1.00
O2170  O     0.04276   0.82307   0.77302   0.00000  Uiso   1.00
O2171  O     0.17693   0.54276   0.22698   0.00000  Uiso   1.00
O2172  O     0.32308   0.95724   0.77302   0.00000  Uiso   1.00
O2173  O     0.04276   0.82307   0.22698   0.00000  Uiso   1.00
O2174  O     0.25000   0.96963   0.33755   0.00000  Uiso   1.00
O2175  O     0.45725   0.67693   0.77302   0.00000  Uiso   1.00
O2176  O     0.32308   0.95724   0.22698   0.00000  Uiso   1.00
O2177  O     0.17693   0.54276   0.77302   0.00000  Uiso   1.00
O2178  O     0.10941   0.94248   0.21607   0.00000  Uiso   1.00
O2179  O     0.38842   0.56051   0.79072   0.00000  Uiso   1.00
O2180  O     0.08581   0.63788   0.18084   0.00000  Uiso   1.00
O2181  O     0.41309   0.85987   0.81846   0.00000  Uiso   1.00
O2182  O     0.39007   0.55750   0.21647   0.00000  Uiso   1.00
O2183  O     0.11146   0.93951   0.79000   0.00000  Uiso   1.00
O2184  O     0.41668   0.86537   0.18247   0.00000  Uiso   1.00
O2185  O     0.25000   0.53037   0.66245   0.00000  Uiso   1.00
O2186  O     0.08661   0.63898   0.81797   0.00000  Uiso   1.00
O2187  O     0.13137   0.58003   0.81448   0.00000  Uiso   1.00
O2188  O     0.35929   0.91230   0.18003   0.00000  Uiso   1.00
O2189  O     0.05636   0.89123   0.78019   0.00000  Uiso   1.00
O2190  O     0.43836   0.61299   0.20680   0.00000  Uiso   1.00
O2191  O     0.36615   0.91733   0.81637   0.00000  Uiso   1.00
O2192  O     0.14174   0.58826   0.18032   0.00000  Uiso   1.00
O2193  O     0.44307   0.60932   0.78306   0.00000  Uiso   1.00
O2194  O     0.06134   0.88708   0.20671   0.00000  Uiso   1.00
O2195  O     0.35918   0.69243   0.71753   0.00000  Uiso   1.00
O2196  O     0.03037   0.75000   0.33755   0.00000  Uiso   1.00
O2197  O     0.13373   0.81611   0.29916   0.00000  Uiso   1.00
O2198  O     0.33319   0.88508   0.68262   0.00000  Uiso   1.00
O2199  O     0.15647   0.60378   0.31957   0.00000  Uiso   1.00
O2200  O     0.14097   0.80721   0.71838   0.00000  Uiso   1.00
O2201  O     0.36938   0.68126   0.30323   0.00000  Uiso   1.00
O2202  O     0.16727   0.61590   0.68283   0.00000  Uiso   1.00
O2203  O     0.33758   0.89089   0.31808   0.00000  Uiso   1.00
O2204  O     0.38385   0.83195   0.31555   0.00000  Uiso   1.00
O2205  O     0.11001   0.66357   0.68120   0.00000  Uiso   1.00
O2206  O     0.31114   0.63760   0.29124   0.00000  Uiso   1.00
O2207  O     0.46964   0.75000   0.66245   0.00000  Uiso   1.00
O2208  O     0.18902   0.86231   0.70865   0.00000  Uiso   1.00
O2209  O     0.11527   0.66579   0.31632   0.00000  Uiso   1.00
O2210  O     0.38993   0.83700   0.68123   0.00000  Uiso   1.00
O2211  O     0.19265   0.85884   0.28155   0.00000  Uiso   1.00
O2212  O     0.31138   0.63722   0.70762   0.00000  Uiso   1.00
O2213  O     0.02346   0.81115   0.39548   0.00000  Uiso   1.00
O2214  O     0.44441   0.71583   0.60113   0.00000  Uiso   1.00
O2215  O     0.20975   0.94890   0.39806   0.00000  Uiso   1.00
O2216  O     0.30938   0.52702   0.60490   0.00000  Uiso   1.00
O2217  O     0.48285   0.68826   0.39762   0.00000  Uiso   1.00
O2218  O     0.25000   0.53037   0.33755   0.00000  Uiso   1.00
O2219  O     0.05442   0.78587   0.60100   0.00000  Uiso   1.00
O2220  O     0.29286   0.54896   0.39867   0.00000  Uiso   1.00
O2221  O     0.19173   0.97223   0.60415   0.00000  Uiso   1.00
O2222  O     0.26307   0.56381   0.89645   0.00000  Uiso   1.00
O2223  O     0.19562   0.96500   0.10083   0.00000  Uiso   1.00
O2224  O     0.46595   0.69422   0.89830   0.00000  Uiso   1.00
O2225  O     0.06004   0.77797   0.10482   0.00000  Uiso   1.00
O2226  O     0.23611   0.93693   0.89723   0.00000  Uiso   1.00
O2227  O     0.30252   0.53981   0.10202   0.00000  Uiso   1.00
O2228  O     0.03579   0.80417   0.89919   0.00000  Uiso   1.00
Zn2229 Zn    0.20660   0.50000   0.21735   0.00000  Uiso   1.00
Zn2230 Zn    0.04341   0.75000   0.28265   0.00000  Uiso   1.00
Zn2231 Zn    0.25000   0.95659   0.71735   0.00000  Uiso   1.00
Zn2232 Zn    0.25000   0.54341   0.28265   0.00000  Uiso   1.00
Zn2233 Zn    0.04341   0.75000   0.71735   0.00000  Uiso   1.00
Zn2234 Zn    0.45660   0.75000   0.28265   0.00000  Uiso   1.00
Zn2235 Zn    0.25000   0.54341   0.71735   0.00000  Uiso   1.00
Zn2236 Zn    0.25000   0.95659   0.28265   0.00000  Uiso   1.00
Zn2237 Zn    0.29341   0.50000   0.78265   0.00000  Uiso   1.00
Zn2238 Zn    0.00000   0.70660   0.21735   0.00000  Uiso   1.00
Zn2239 Zn    0.00000   0.79341   0.78265   0.00000  Uiso   1.00
Zn2240 Zn    0.29341   0.50000   0.21735   0.00000  Uiso   1.00
Zn2241 Zn    0.20660   0.50000   0.78265   0.00000  Uiso   1.00
Zn2242 Zn    0.00000   0.79340   0.21735   0.00000  Uiso   1.00
Zn2243 Zn    0.00000   0.70660   0.78265   0.00000  Uiso   1.00
Zn2244 Zn    0.45660   0.75000   0.71735   0.00000  Uiso   1.00
C2245  C     0.51243   0.78162   0.41737   0.00000  Uiso   1.00
C2246  C     0.72495   0.97953   0.08106   0.00000  Uiso   1.00
C2247  C     0.72152   0.98254   0.54148   0.00000  Uiso   1.00
C2248  C     0.51583   0.78082   0.45841   0.00000  Uiso   1.00
C2249  C     0.97701   0.72638   0.54032   0.00000  Uiso   1.00
C2250  C     0.72451   0.97886   0.45929   0.00000  Uiso   1.00
C2251  C     0.78081   0.51504   0.54174   0.00000  Uiso   1.00
C2252  C     0.73447   0.97098   0.95886   0.00000  Uiso   1.00
C2253  C     0.77039   0.52719   0.04064   0.00000  Uiso   1.00
C2254  C     0.52743   0.76974   0.95934   0.00000  Uiso   1.00
C2255  C     0.97498   0.72956   0.04135   0.00000  Uiso   1.00
C2256  C     0.76509   0.53045   0.95863   0.00000  Uiso   1.00
C2257  C     0.98097   0.72288   0.91880   0.00000  Uiso   1.00
C2258  C     0.72928   0.97482   0.04064   0.00000  Uiso   1.00
C2259  C     0.97743   0.72579   0.95953   0.00000  Uiso   1.00
C2260  C     0.53192   0.76529   0.04150   0.00000  Uiso   1.00
C2261  C     0.59774   0.84865   0.25036   0.00000  Uiso   1.00
C2262  C     0.90225   0.65162   0.74957   0.00000  Uiso   1.00
C2263  C     0.65167   0.59748   0.24951   0.00000  Uiso   1.00
C2264  C     0.84855   0.90203   0.74965   0.00000  Uiso   1.00
C2265  C     0.90263   0.65100   0.25094   0.00000  Uiso   1.00
C2266  C     0.59787   0.84824   0.74958   0.00000  Uiso   1.00
C2267  C     0.84775   0.90198   0.24945   0.00000  Uiso   1.00
C2268  C     0.53213   0.76334   0.08274   0.00000  Uiso   1.00
C2269  C     0.65126   0.59780   0.74926   0.00000  Uiso   1.00
C2270  C     0.59780   0.65190   0.74956   0.00000  Uiso   1.00
C2271  C     0.90174   0.84837   0.24955   0.00000  Uiso   1.00
C2272  C     0.65158   0.90204   0.74960   0.00000  Uiso   1.00
C2273  C     0.84828   0.59787   0.25041   0.00000  Uiso   1.00
C2274  C     0.90205   0.84796   0.74979   0.00000  Uiso   1.00
C2275  C     0.59879   0.65219   0.24905   0.00000  Uiso   1.00
C2276  C     0.84858   0.59782   0.74950   0.00000  Uiso   1.00
C2277  C     0.65192   0.90197   0.24940   0.00000  Uiso   1.00
C2278  C     0.99860   0.75202   0.47895   0.00000  Uiso   1.00
C2279  C     0.74012   0.96888   0.91821   0.00000  Uiso   1.00
C2280  C     0.99856   0.75186   0.51987   0.00000  Uiso   1.00
C2281  C     0.75148   0.99835   0.48008   0.00000  Uiso   1.00
C2282  C     0.75129   0.99860   0.52115   0.00000  Uiso   1.00
C2283  C     0.74989   0.50075   0.97921   0.00000  Uiso   1.00
C2284  C     0.74998   0.50084   0.02010   0.00000  Uiso   1.00
C2285  C     0.50294   0.74740   0.98002   0.00000  Uiso   1.00
C2286  C     0.50345   0.74724   0.02098   0.00000  Uiso   1.00
C2287  C     0.59131   0.96332   0.24466   0.00000  Uiso   1.00
C2288  C     0.57965   0.99957   0.22681   0.00000  Uiso   1.00
C2289  C     0.56162   0.52413   0.25693   0.00000  Uiso   1.00
C2290  C     0.77520   0.52238   0.08123   0.00000  Uiso   1.00
C2291  C     0.87536   0.56413   0.82940   0.00000  Uiso   1.00
C2292  C     0.90399   0.58139   0.85587   0.00000  Uiso   1.00
C2293  C     0.89425   0.57728   0.89874   0.00000  Uiso   1.00
C2294  C     0.55413   0.61599   0.17909   0.00000  Uiso   1.00
C2295  C     0.56032   0.58255   0.15351   0.00000  Uiso   1.00
C2296  C     0.52448   0.56327   0.14495   0.00000  Uiso   1.00
C2297  C     0.89402   0.83200   0.83789   0.00000  Uiso   1.00
C2298  C     0.91350   0.82332   0.87616   0.00000  Uiso   1.00
C2299  C     0.89447   0.79305   0.89850   0.00000  Uiso   1.00
C2300  C     0.90825   0.53683   0.24529   0.00000  Uiso   1.00
C2301  C     0.52156   0.77476   0.91903   0.00000  Uiso   1.00
C2302  C     0.91588   0.99890   0.22930   0.00000  Uiso   1.00
C2303  C     0.93386   0.97469   0.25998   0.00000  Uiso   1.00
C2304  C     0.62408   0.93565   0.82891   0.00000  Uiso   1.00
C2305  C     0.59567   0.91712   0.85454   0.00000  Uiso   1.00
C2306  C     0.60552   0.91966   0.89757   0.00000  Uiso   1.00
C2307  C     0.94862   0.88692   0.18398   0.00000  Uiso   1.00
C2308  C     0.94440   0.92097   0.15886   0.00000  Uiso   1.00
C2309  C     0.97959   0.94286   0.15774   0.00000  Uiso   1.00
C2310  C     0.60582   0.66675   0.83749   0.00000  Uiso   1.00
C2311  C     0.58636   0.67566   0.87555   0.00000  Uiso   1.00
C2312  C     0.97205   0.73530   0.08176   0.00000  Uiso   1.00
C2313  C     0.60596   0.70537   0.89824   0.00000  Uiso   1.00
C2314  C     0.60924   0.54882   0.81000   0.00000  Uiso   1.00
C2315  C     0.57260   0.55381   0.83034   0.00000  Uiso   1.00
C2316  C     0.55219   0.51784   0.83321   0.00000  Uiso   1.00
C2317  C     0.82445   0.90281   0.16535   0.00000  Uiso   1.00
C2318  C     0.82836   0.87644   0.13148   0.00000  Uiso   1.00
C2319  C     0.79173   0.86930   0.11188   0.00000  Uiso   1.00
C2320  C     0.53556   0.90724   0.75003   0.00000  Uiso   1.00
C2321  C     0.99801   0.91717   0.76586   0.00000  Uiso   1.00
C2322  C     0.97306   0.93174   0.73379   0.00000  Uiso   1.00
C2323  C     0.99993   0.75071   0.39789   0.00000  Uiso   1.00
C2324  C     0.93235   0.62275   0.16730   0.00000  Uiso   1.00
C2325  C     0.92291   0.58923   0.14282   0.00000  Uiso   1.00
C2326  C     0.92463   0.59727   0.09930   0.00000  Uiso   1.00
C2327  C     0.88799   0.94898   0.81496   0.00000  Uiso   1.00
C2328  C     0.92294   0.94396   0.83868   0.00000  Uiso   1.00
C2329  C     0.94416   0.97944   0.84138   0.00000  Uiso   1.00
C2330  C     0.66896   0.60785   0.16051   0.00000  Uiso   1.00
C2331  C     0.67965   0.58679   0.12393   0.00000  Uiso   1.00
C2332  C     0.71037   0.60539   0.10186   0.00000  Uiso   1.00
C2333  C     0.96769   0.59712   0.75415   0.00000  Uiso   1.00
C2334  C     0.99961   0.75058   0.60136   0.00000  Uiso   1.00
C2335  C     0.97625   0.55685   0.76048   0.00000  Uiso   1.00
C2336  C     0.50748   0.54424   0.73449   0.00000  Uiso   1.00
C2337  C     0.56584   0.87312   0.16852   0.00000  Uiso   1.00
C2338  C     0.58434   0.90083   0.14198   0.00000  Uiso   1.00
C2339  C     0.58260   0.88938   0.09940   0.00000  Uiso   1.00
C2340  C     0.84318   0.71333   0.74747   0.00000  Uiso   1.00
C2341  C     0.83333   0.75080   0.73140   0.00000  Uiso   1.00
C2342  C     0.81924   0.77588   0.76337   0.00000  Uiso   1.00
C2343  C     0.62853   0.83075   0.33695   0.00000  Uiso   1.00
C2344  C     0.64099   0.80337   0.36782   0.00000  Uiso   1.00
C2345  C     0.75100   0.99927   0.39847   0.00000  Uiso   1.00
C2346  C     0.61081   0.77698   0.37864   0.00000  Uiso   1.00
C2347  C     0.80142   0.86328   0.68350   0.00000  Uiso   1.00
C2348  C     0.80633   0.82890   0.65909   0.00000  Uiso   1.00
C2349  C     0.77042   0.80847   0.65485   0.00000  Uiso   1.00
C2350  C     0.63092   0.57967   0.33619   0.00000  Uiso   1.00
C2351  C     0.64024   0.57296   0.37902   0.00000  Uiso   1.00
C2352  C     0.67541   0.55141   0.38353   0.00000  Uiso   1.00
C2353  C     0.65700   0.78635   0.74847   0.00000  Uiso   1.00
C2354  C     0.66643   0.74875   0.73264   0.00000  Uiso   1.00
C2355  C     0.68098   0.72383   0.76468   0.00000  Uiso   1.00
C2356  C     0.97343   0.73052   0.58095   0.00000  Uiso   1.00
C2357  C     0.75042   0.99990   0.60228   0.00000  Uiso   1.00
C2358  C     0.88095   0.66568   0.33900   0.00000  Uiso   1.00
C2359  C     0.86788   0.68897   0.37302   0.00000  Uiso   1.00
C2360  C     0.89033   0.72339   0.37733   0.00000  Uiso   1.00
C2361  C     0.69898   0.63774   0.68454   0.00000  Uiso   1.00
C2362  C     0.69422   0.67238   0.66041   0.00000  Uiso   1.00
C2363  C     0.72998   0.69322   0.65747   0.00000  Uiso   1.00
C2364  C     0.85942   0.91504   0.33980   0.00000  Uiso   1.00
C2365  C     0.83758   0.92876   0.37463   0.00000  Uiso   1.00
C2366  C     0.85961   0.95508   0.39947   0.00000  Uiso   1.00
C2367  C     0.85249   0.81007   0.32060   0.00000  Uiso   1.00
C2368  C     0.75013   0.50026   0.89805   0.00000  Uiso   1.00
C2369  C     0.84194   0.80959   0.36361   0.00000  Uiso   1.00
C2370  C     0.80949   0.78469   0.37071   0.00000  Uiso   1.00
C2371  C     0.58385   0.64362   0.66001   0.00000  Uiso   1.00
C2372  C     0.57278   0.66538   0.62393   0.00000  Uiso   1.00
C2373  C     0.54322   0.64619   0.60049   0.00000  Uiso   1.00
C2374  C     0.78466   0.65351   0.26640   0.00000  Uiso   1.00
C2375  C     0.78341   0.69469   0.27231   0.00000  Uiso   1.00
C2376  C     0.75146   0.71176   0.25035   0.00000  Uiso   1.00
C2377  C     0.68520   0.87575   0.67008   0.00000  Uiso   1.00
C2378  C     0.66691   0.84783   0.64364   0.00000  Uiso   1.00
C2379  C     0.75010   0.50078   0.10149   0.00000  Uiso   1.00
C2380  C     0.66921   0.85880   0.60092   0.00000  Uiso   1.00
C2381  C     0.64092   0.69444   0.31679   0.00000  Uiso   1.00
C2382  C     0.67722   0.68275   0.33530   0.00000  Uiso   1.00
C2383  C     0.70027   0.71566   0.34606   0.00000  Uiso   1.00
C2384  C     0.91700   0.85636   0.66086   0.00000  Uiso   1.00
C2385  C     0.92711   0.83524   0.62418   0.00000  Uiso   1.00
C2386  C     0.95741   0.85388   0.60146   0.00000  Uiso   1.00
C2387  C     0.71248   0.84250   0.25095   0.00000  Uiso   1.00
C2388  C     0.75021   0.83129   0.26562   0.00000  Uiso   1.00
C2389  C     0.77340   0.81635   0.23236   0.00000  Uiso   1.00
C2390  C     0.50057   0.74944   0.89855   0.00000  Uiso   1.00
C2391  C     0.81529   0.62344   0.66926   0.00000  Uiso   1.00
C2392  C     0.83371   0.65110   0.64262   0.00000  Uiso   1.00
C2393  C     0.83108   0.64003   0.59996   0.00000  Uiso   1.00
C2394  C     0.99285   0.83303   0.38646   0.00000  Uiso   1.00
C2395  C     0.50330   0.85958   0.35413   0.00000  Uiso   1.00
C2396  C     0.97102   0.88321   0.34178   0.00000  Uiso   1.00
C2397  C     0.91226   0.73548   0.59171   0.00000  Uiso   1.00
C2398  C     0.88726   0.73637   0.62715   0.00000  Uiso   1.00
C2399  C     0.84919   0.74950   0.61615   0.00000  Uiso   1.00
C2400  C     0.72908   0.91578   0.40181   0.00000  Uiso   1.00
C2401  C     0.50159   0.74952   0.10208   0.00000  Uiso   1.00
C2402  C     0.71060   0.88705   0.37677   0.00000  Uiso   1.00
C2403  C     0.73338   0.85240   0.37457   0.00000  Uiso   1.00
C2404  C     0.83208   0.99811   0.61768   0.00000  Uiso   1.00
C2405  C     0.85283   0.51034   0.65403   0.00000  Uiso   1.00
C2406  C     0.87771   0.98036   0.66967   0.00000  Uiso   1.00
C2407  C     0.51051   0.66294   0.40790   0.00000  Uiso   1.00
C2408  C     0.54729   0.67226   0.38927   0.00000  Uiso   1.00
C2409  C     0.57641   0.64491   0.40154   0.00000  Uiso   1.00
C2410  C     0.58635   0.76618   0.59107   0.00000  Uiso   1.00
C2411  C     0.61149   0.76413   0.62654   0.00000  Uiso   1.00
C2412  C     0.96098   0.69705   0.47915   0.00000  Uiso   1.00
C2413  C     0.64934   0.75063   0.61545   0.00000  Uiso   1.00
C2414  C     0.77727   0.58306   0.40800   0.00000  Uiso   1.00
C2415  C     0.78747   0.61042   0.37662   0.00000  Uiso   1.00
C2416  C     0.77260   0.64803   0.38617   0.00000  Uiso   1.00
C2417  C     0.66877   0.50124   0.61588   0.00000  Uiso   1.00
C2418  C     0.64892   0.99011   0.65312   0.00000  Uiso   1.00
C2419  C     0.62400   0.52036   0.66784   0.00000  Uiso   1.00
C2420  C     0.73453   0.58831   0.90616   0.00000  Uiso   1.00
C2421  C     0.69816   0.57790   0.88715   0.00000  Uiso   1.00
C2422  C     0.66798   0.60384   0.90005   0.00000  Uiso   1.00
C2423  C     0.53721   0.80576   0.52041   0.00000  Uiso   1.00
C2424  C     0.66364   0.98447   0.09031   0.00000  Uiso   1.00
C2425  C     0.63799   0.98618   0.12516   0.00000  Uiso   1.00
C2426  C     0.60026   0.99938   0.11298   0.00000  Uiso   1.00
C2427  C     0.98580   0.66197   0.90663   0.00000  Uiso   1.00
C2428  C     0.98728   0.63841   0.87011   0.00000  Uiso   1.00
C2429  C     0.50086   0.60024   0.87943   0.00000  Uiso   1.00
C2430  C     0.58324   0.74979   0.11830   0.00000  Uiso   1.00
C2431  C     0.60438   0.76347   0.15375   0.00000  Uiso   1.00
C2432  C     0.62941   0.73411   0.17045   0.00000  Uiso   1.00
C2433  C     0.76399   0.91184   0.90759   0.00000  Uiso   1.00
C2434  C     0.80884   0.53186   0.47972   0.00000  Uiso   1.00
C2435  C     0.80061   0.92113   0.88868   0.00000  Uiso   1.00
C2436  C     0.82987   0.89388   0.90118   0.00000  Uiso   1.00
C2437  C     0.83729   0.52655   0.09067   0.00000  Uiso   1.00
C2438  C     0.84603   0.98961   0.10919   0.00000  Uiso   1.00
C2439  C     0.88290   0.97537   0.09571   0.00000  Uiso   1.00
C2440  C     0.51599   0.83592   0.90935   0.00000  Uiso   1.00
C2441  C     0.51346   0.86087   0.87386   0.00000  Uiso   1.00
C2442  C     0.99912   0.89836   0.88479   0.00000  Uiso   1.00
C2443  C     0.91373   0.75640   0.09104   0.00000  Uiso   1.00
C2444  C     0.92144   0.79356   0.10958   0.00000  Uiso   1.00
C2445  C     0.69344   0.96496   0.52010   0.00000  Uiso   1.00
C2446  C     0.89688   0.82270   0.09191   0.00000  Uiso   1.00
C2447  C     0.53494   0.80786   0.47962   0.00000  Uiso   1.00
C2448  C     0.72839   0.97522   0.41863   0.00000  Uiso   1.00
C2449  C     0.95930   0.69824   0.51984   0.00000  Uiso   1.00
C2450  C     0.69488   0.96343   0.47939   0.00000  Uiso   1.00
C2451  C     0.80964   0.53141   0.52048   0.00000  Uiso   1.00
C2452  C     0.71492   0.94418   0.97971   0.00000  Uiso   1.00
C2453  C     0.78564   0.55676   0.02017   0.00000  Uiso   1.00
C2454  C     0.55667   0.78626   0.97922   0.00000  Uiso   1.00
C2455  C     0.94939   0.70823   0.02075   0.00000  Uiso   1.00
C2456  C     0.78378   0.55795   0.97940   0.00000  Uiso   1.00
C2457  C     0.71275   0.94586   0.02040   0.00000  Uiso   1.00
C2458  C     0.94986   0.70734   0.98006   0.00000  Uiso   1.00
C2459  C     0.78085   0.51349   0.58284   0.00000  Uiso   1.00
C2460  C     0.55924   0.78376   0.01996   0.00000  Uiso   1.00
C2461  C     0.75034   0.99989   0.35589   0.00000  Uiso   1.00
C2462  C     0.75012   0.50001   0.64442   0.00000  Uiso   1.00
C2463  C     0.50005   0.74990   0.35569   0.00000  Uiso   1.00
C2464  C     0.99993   0.75010   0.64402   0.00000  Uiso   1.00
C2465  C     0.50001   0.74992   0.85593   0.00000  Uiso   1.00
C2466  C     0.50016   0.74999   0.14432   0.00000  Uiso   1.00
C2467  C     0.75005   0.50005   0.85576   0.00000  Uiso   1.00
C2468  C     0.75000   0.50035   0.14407   0.00000  Uiso   1.00
C2469  C     0.67987   0.56978   0.24999   0.00000  Uiso   1.00
C2470  C     0.98767   0.72035   0.41814   0.00000  Uiso   1.00
C2471  C     0.82019   0.93002   0.74989   0.00000  Uiso   1.00
C2472  C     0.93024   0.67962   0.25041   0.00000  Uiso   1.00
C2473  C     0.56997   0.82007   0.74989   0.00000  Uiso   1.00
C2474  C     0.82009   0.93022   0.25016   0.00000  Uiso   1.00
C2475  C     0.67976   0.56992   0.74973   0.00000  Uiso   1.00
C2476  C     0.56986   0.82031   0.25033   0.00000  Uiso   1.00
C2477  C     0.93004   0.67989   0.74987   0.00000  Uiso   1.00
C2478  C     0.67986   0.93000   0.74990   0.00000  Uiso   1.00
C2479  C     0.82005   0.57000   0.25007   0.00000  Uiso   1.00
C2480  C     0.93003   0.81998   0.74990   0.00000  Uiso   1.00
C2481  C     0.52507   0.77150   0.58099   0.00000  Uiso   1.00
C2482  C     0.57035   0.68016   0.24963   0.00000  Uiso   1.00
C2483  C     0.82021   0.56996   0.74987   0.00000  Uiso   1.00
C2484  C     0.68000   0.92993   0.24979   0.00000  Uiso   1.00
C2485  C     0.56988   0.67996   0.74982   0.00000  Uiso   1.00
C2486  C     0.92986   0.82006   0.24984   0.00000  Uiso   1.00
C2487  C     0.61781   0.90889   0.23190   0.00000  Uiso   1.00
C2488  C     0.88161   0.59218   0.77004   0.00000  Uiso   1.00
C2489  C     0.60475   0.63116   0.21510   0.00000  Uiso   1.00
C2490  C     0.89514   0.86781   0.78396   0.00000  Uiso   1.00
C2491  C     0.88183   0.59124   0.23185   0.00000  Uiso   1.00
C2492  C     0.77447   0.52222   0.41891   0.00000  Uiso   1.00
C2493  C     0.61838   0.90784   0.76950   0.00000  Uiso   1.00
C2494  C     0.89626   0.87028   0.21599   0.00000  Uiso   1.00
C2495  C     0.60439   0.63140   0.78341   0.00000  Uiso   1.00
C2496  C     0.62824   0.60205   0.78194   0.00000  Uiso   1.00
C2497  C     0.86682   0.89432   0.21475   0.00000  Uiso   1.00
C2498  C     0.59042   0.88264   0.76566   0.00000  Uiso   1.00
C2499  C     0.90709   0.61920   0.22832   0.00000  Uiso   1.00
C2500  C     0.87089   0.89694   0.78287   0.00000  Uiso   1.00
C2501  C     0.63341   0.60611   0.21459   0.00000  Uiso   1.00
C2502  C     0.90954   0.61742   0.76656   0.00000  Uiso   1.00
C2503  C     0.72055   0.98546   0.58245   0.00000  Uiso   1.00
C2504  C     0.59268   0.88080   0.22832   0.00000  Uiso   1.00
C2505  C     0.86800   0.65861   0.73250   0.00000  Uiso   1.00
C2506  C     0.62985   0.84411   0.27250   0.00000  Uiso   1.00
C2507  C     0.85347   0.87990   0.71632   0.00000  Uiso   1.00
C2508  C     0.64282   0.61549   0.28409   0.00000  Uiso   1.00
C2509  C     0.63225   0.84107   0.73314   0.00000  Uiso   1.00
C2510  C     0.87164   0.65475   0.27480   0.00000  Uiso   1.00
C2511  C     0.64669   0.62054   0.71628   0.00000  Uiso   1.00
C2512  C     0.85541   0.88267   0.28372   0.00000  Uiso   1.00
C2513  C     0.87973   0.85352   0.28272   0.00000  Uiso   1.00
C2514  C     0.75973   0.53198   0.91783   0.00000  Uiso   1.00
C2515  C     0.61777   0.64515   0.71539   0.00000  Uiso   1.00
C2516  C     0.84278   0.63072   0.27066   0.00000  Uiso   1.00
C2517  C     0.65737   0.86906   0.72936   0.00000  Uiso   1.00
C2518  C     0.61979   0.64554   0.28283   0.00000  Uiso   1.00
C2519  C     0.88228   0.85519   0.71550   0.00000  Uiso   1.00
C2520  C     0.65861   0.86816   0.26722   0.00000  Uiso   1.00
C2521  C     0.84295   0.63059   0.72873   0.00000  Uiso   1.00
C2522  C     0.98180   0.72301   0.45857   0.00000  Uiso   1.00
C2523  C     0.52044   0.77684   0.54053   0.00000  Uiso   1.00
C2524  C     0.77868   0.51758   0.45950   0.00000  Uiso   1.00
Cl2525 Cl    0.93367   0.66455   0.45477   0.00000  Uiso   1.00
Cl2526 Cl    0.80336   0.59512   0.04495   0.00000  Uiso   1.00
Cl2527 Cl    0.59328   0.80621   0.95323   0.00000  Uiso   1.00
Cl2528 Cl    0.91798   0.67974   0.04504   0.00000  Uiso   1.00
Cl2529 Cl    0.80839   0.59258   0.95532   0.00000  Uiso   1.00
Cl2530 Cl    0.69328   0.90856   0.04555   0.00000  Uiso   1.00
Cl2531 Cl    0.91212   0.68752   0.95574   0.00000  Uiso   1.00
Cl2532 Cl    0.59702   0.80518   0.04228   0.00000  Uiso   1.00
Cl2533 Cl    0.55724   0.84253   0.54599   0.00000  Uiso   1.00
Cl2534 Cl    0.84839   0.54645   0.45448   0.00000  Uiso   1.00
Cl2535 Cl    0.65597   0.94312   0.54257   0.00000  Uiso   1.00
Cl2536 Cl    0.55886   0.84362   0.45646   0.00000  Uiso   1.00
Cl2537 Cl    0.93929   0.66093   0.54448   0.00000  Uiso   1.00
Cl2538 Cl    0.65656   0.94562   0.45415   0.00000  Uiso   1.00
Cl2539 Cl    0.84710   0.55332   0.54303   0.00000  Uiso   1.00
Cl2540 Cl    0.68962   0.90996   0.95576   0.00000  Uiso   1.00
H2541  H     0.60987   0.96867   0.26974   0.00000  Uiso   1.00
H2542  H     0.93097   0.56861   0.85055   0.00000  Uiso   1.00
H2543  H     0.95819   0.60151   0.72352   0.00000  Uiso   1.00
H2544  H     0.98390   0.55218   0.79141   0.00000  Uiso   1.00
H2545  H     0.95165   0.54048   0.75389   0.00000  Uiso   1.00
H2546  H     0.50016   0.54788   0.70331   0.00000  Uiso   1.00
H2547  H     0.51313   0.51504   0.73991   0.00000  Uiso   1.00
H2548  H     0.53258   0.55986   0.74102   0.00000  Uiso   1.00
H2549  H     0.53828   0.86728   0.15677   0.00000  Uiso   1.00
H2550  H     0.58116   0.84689   0.16788   0.00000  Uiso   1.00
H2551  H     0.57103   0.92779   0.14533   0.00000  Uiso   1.00
H2552  H     0.61340   0.90287   0.15050   0.00000  Uiso   1.00
H2553  H     0.90538   0.61078   0.84906   0.00000  Uiso   1.00
H2554  H     0.59682   0.86302   0.09569   0.00000  Uiso   1.00
H2555  H     0.59635   0.91002   0.08106   0.00000  Uiso   1.00
H2556  H     0.55386   0.88685   0.08964   0.00000  Uiso   1.00
H2557  H     0.86259   0.71675   0.77222   0.00000  Uiso   1.00
H2558  H     0.81784   0.70019   0.75829   0.00000  Uiso   1.00
H2559  H     0.85777   0.76321   0.71788   0.00000  Uiso   1.00
H2560  H     0.81193   0.74788   0.70871   0.00000  Uiso   1.00
H2561  H     0.79408   0.76458   0.77644   0.00000  Uiso   1.00
H2562  H     0.81289   0.80295   0.75084   0.00000  Uiso   1.00
H2563  H     0.84018   0.77930   0.78644   0.00000  Uiso   1.00
H2564  H     0.86772   0.59065   0.90443   0.00000  Uiso   1.00
H2565  H     0.59935   0.83805   0.34141   0.00000  Uiso   1.00
H2566  H     0.64487   0.85579   0.34146   0.00000  Uiso   1.00
H2567  H     0.66502   0.78822   0.35685   0.00000  Uiso   1.00
H2568  H     0.64950   0.81803   0.39462   0.00000  Uiso   1.00
H2569  H     0.59023   0.79103   0.39673   0.00000  Uiso   1.00
H2570  H     0.62225   0.75403   0.39580   0.00000  Uiso   1.00
H2571  H     0.59739   0.76636   0.35207   0.00000  Uiso   1.00
H2572  H     0.77901   0.87957   0.67038   0.00000  Uiso   1.00
H2573  H     0.79233   0.85594   0.71351   0.00000  Uiso   1.00
H2574  H     0.81658   0.83627   0.62971   0.00000  Uiso   1.00
H2575  H     0.91534   0.59052   0.91702   0.00000  Uiso   1.00
H2576  H     0.82648   0.81077   0.67338   0.00000  Uiso   1.00
H2577  H     0.75962   0.80089   0.68393   0.00000  Uiso   1.00
H2578  H     0.77474   0.78333   0.63768   0.00000  Uiso   1.00
H2579  H     0.75008   0.82557   0.63932   0.00000  Uiso   1.00
H2580  H     0.63119   0.55334   0.32029   0.00000  Uiso   1.00
H2581  H     0.60270   0.59097   0.33516   0.00000  Uiso   1.00
H2582  H     0.64309   0.59935   0.39434   0.00000  Uiso   1.00
H2583  H     0.61775   0.55760   0.39292   0.00000  Uiso   1.00
H2584  H     0.67266   0.52429   0.36972   0.00000  Uiso   1.00
H2585  H     0.68175   0.54764   0.41492   0.00000  Uiso   1.00
H2586  H     0.89267   0.54813   0.90688   0.00000  Uiso   1.00
H2587  H     0.69804   0.56639   0.36962   0.00000  Uiso   1.00
H2588  H     0.63773   0.78317   0.77327   0.00000  Uiso   1.00
H2589  H     0.68252   0.79935   0.75912   0.00000  Uiso   1.00
H2590  H     0.64171   0.73636   0.71959   0.00000  Uiso   1.00
H2591  H     0.68742   0.75145   0.70958   0.00000  Uiso   1.00
H2592  H     0.70653   0.73501   0.77713   0.00000  Uiso   1.00
H2593  H     0.68680   0.69659   0.75241   0.00000  Uiso   1.00
H2594  H     0.66052   0.72081   0.78819   0.00000  Uiso   1.00
H2595  H     0.91118   0.66330   0.33970   0.00000  Uiso   1.00
H2596  H     0.86953   0.63799   0.34360   0.00000  Uiso   1.00
H2597  H     0.53223   0.63276   0.16561   0.00000  Uiso   1.00
H2598  H     0.83880   0.69619   0.36869   0.00000  Uiso   1.00
H2599  H     0.87006   0.67301   0.40042   0.00000  Uiso   1.00
H2600  H     0.91905   0.71635   0.38356   0.00000  Uiso   1.00
H2601  H     0.87971   0.73966   0.40202   0.00000  Uiso   1.00
H2602  H     0.88913   0.73974   0.35024   0.00000  Uiso   1.00
H2603  H     0.72158   0.62167   0.67164   0.00000  Uiso   1.00
H2604  H     0.70775   0.64471   0.71479   0.00000  Uiso   1.00
H2605  H     0.68464   0.66529   0.63065   0.00000  Uiso   1.00
H2606  H     0.67358   0.69010   0.67430   0.00000  Uiso   1.00
H2607  H     0.74008   0.70058   0.68696   0.00000  Uiso   1.00
H2608  H     0.54374   0.60748   0.20823   0.00000  Uiso   1.00
H2609  H     0.72575   0.71853   0.64045   0.00000  Uiso   1.00
H2610  H     0.75084   0.67651   0.64243   0.00000  Uiso   1.00
H2611  H     0.86752   0.93898   0.32191   0.00000  Uiso   1.00
H2612  H     0.88430   0.90081   0.35060   0.00000  Uiso   1.00
H2613  H     0.81281   0.94294   0.36388   0.00000  Uiso   1.00
H2614  H     0.82908   0.90536   0.39291   0.00000  Uiso   1.00
H2615  H     0.88459   0.94157   0.41077   0.00000  Uiso   1.00
H2616  H     0.84290   0.96419   0.42456   0.00000  Uiso   1.00
H2617  H     0.86735   0.97927   0.38205   0.00000  Uiso   1.00
H2618  H     0.85899   0.78208   0.31079   0.00000  Uiso   1.00
H2619  H     0.57308   0.59085   0.12558   0.00000  Uiso   1.00
H2620  H     0.82813   0.81919   0.30368   0.00000  Uiso   1.00
H2621  H     0.86549   0.80037   0.38142   0.00000  Uiso   1.00
H2622  H     0.83464   0.83752   0.37302   0.00000  Uiso   1.00
H2623  H     0.78544   0.79423   0.35387   0.00000  Uiso   1.00
H2624  H     0.80256   0.78467   0.40216   0.00000  Uiso   1.00
H2625  H     0.81604   0.75653   0.36165   0.00000  Uiso   1.00
H2626  H     0.55903   0.63870   0.67789   0.00000  Uiso   1.00
H2627  H     0.59548   0.61707   0.65056   0.00000  Uiso   1.00
H2628  H     0.56227   0.69228   0.63311   0.00000  Uiso   1.00
H2629  H     0.59700   0.66963   0.60516   0.00000  Uiso   1.00
H2630  H     0.57878   0.56327   0.16869   0.00000  Uiso   1.00
H2631  H     0.55308   0.61923   0.59051   0.00000  Uiso   1.00
H2632  H     0.53599   0.66285   0.57458   0.00000  Uiso   1.00
H2633  H     0.51839   0.64262   0.61848   0.00000  Uiso   1.00
H2634  H     0.75781   0.64208   0.27470   0.00000  Uiso   1.00
H2635  H     0.78850   0.64705   0.23487   0.00000  Uiso   1.00
H2636  H     0.78058   0.70089   0.30379   0.00000  Uiso   1.00
H2637  H     0.80917   0.70696   0.26183   0.00000  Uiso   1.00
H2638  H     0.75540   0.70890   0.21843   0.00000  Uiso   1.00
H2639  H     0.74960   0.74101   0.25772   0.00000  Uiso   1.00
H2640  H     0.72546   0.69864   0.25874   0.00000  Uiso   1.00
H2641  H     0.51139   0.55446   0.17251   0.00000  Uiso   1.00
H2642  H     0.71294   0.88129   0.65887   0.00000  Uiso   1.00
H2643  H     0.67003   0.90206   0.66854   0.00000  Uiso   1.00
H2644  H     0.68006   0.82087   0.64770   0.00000  Uiso   1.00
H2645  H     0.63775   0.84609   0.65164   0.00000  Uiso   1.00
H2646  H     0.65528   0.88526   0.59652   0.00000  Uiso   1.00
H2647  H     0.65545   0.83811   0.58263   0.00000  Uiso   1.00
H2648  H     0.69807   0.86096   0.59165   0.00000  Uiso   1.00
H2649  H     0.62908   0.71626   0.33480   0.00000  Uiso   1.00
H2650  H     0.64570   0.70655   0.28740   0.00000  Uiso   1.00
H2651  H     0.67205   0.66652   0.36203   0.00000  Uiso   1.00
H2652  H     0.56647   0.94913   0.25532   0.00000  Uiso   1.00
H2653  H     0.52954   0.53899   0.12663   0.00000  Uiso   1.00
H2654  H     0.69277   0.66576   0.31440   0.00000  Uiso   1.00
H2655  H     0.70260   0.73456   0.32095   0.00000  Uiso   1.00
H2656  H     0.72799   0.70680   0.35467   0.00000  Uiso   1.00
H2657  H     0.68787   0.73006   0.37114   0.00000  Uiso   1.00
H2658  H     0.94200   0.85936   0.67902   0.00000  Uiso   1.00
H2659  H     0.90670   0.88374   0.65226   0.00000  Uiso   1.00
H2660  H     0.93656   0.80771   0.63264   0.00000  Uiso   1.00
H2661  H     0.90270   0.83250   0.60521   0.00000  Uiso   1.00
H2662  H     0.94868   0.88153   0.59234   0.00000  Uiso   1.00
H2663  H     0.96388   0.83775   0.57503   0.00000  Uiso   1.00
H2664  H     0.50578   0.58171   0.12885   0.00000  Uiso   1.00
H2665  H     0.98241   0.85585   0.61962   0.00000  Uiso   1.00
H2666  H     0.71590   0.86195   0.22631   0.00000  Uiso   1.00
H2667  H     0.69825   0.81774   0.24019   0.00000  Uiso   1.00
H2668  H     0.76414   0.85515   0.27861   0.00000  Uiso   1.00
H2669  H     0.74737   0.81012   0.28850   0.00000  Uiso   1.00
H2670  H     0.75940   0.79338   0.21784   0.00000  Uiso   1.00
H2671  H     0.79999   0.80659   0.24369   0.00000  Uiso   1.00
H2672  H     0.77842   0.83786   0.21043   0.00000  Uiso   1.00
H2673  H     0.78755   0.61789   0.65786   0.00000  Uiso   1.00
H2674  H     0.83038   0.59708   0.66819   0.00000  Uiso   1.00
H2675  H     0.89336   0.80685   0.81993   0.00000  Uiso   1.00
H2676  H     0.82080   0.67817   0.64648   0.00000  Uiso   1.00
H2677  H     0.86293   0.65270   0.65064   0.00000  Uiso   1.00
H2678  H     0.84448   0.61330   0.59568   0.00000  Uiso   1.00
H2679  H     0.84510   0.66046   0.58158   0.00000  Uiso   1.00
H2680  H     0.80214   0.63837   0.59066   0.00000  Uiso   1.00
H2681  H     0.98443   0.84858   0.41274   0.00000  Uiso   1.00
H2682  H     0.96924   0.81668   0.37607   0.00000  Uiso   1.00
H2683  H     0.52576   0.87728   0.36450   0.00000  Uiso   1.00
H2684  H     0.51315   0.84408   0.32842   0.00000  Uiso   1.00
H2685  H     0.96076   0.89918   0.36691   0.00000  Uiso   1.00
H2686  H     0.86560   0.84072   0.84433   0.00000  Uiso   1.00
H2687  H     0.94874   0.86603   0.33019   0.00000  Uiso   1.00
H2688  H     0.97963   0.90230   0.31852   0.00000  Uiso   1.00
H2689  H     0.89807   0.72162   0.56731   0.00000  Uiso   1.00
H2690  H     0.91736   0.76416   0.58265   0.00000  Uiso   1.00
H2691  H     0.88555   0.70885   0.63992   0.00000  Uiso   1.00
H2692  H     0.89868   0.75470   0.64971   0.00000  Uiso   1.00
H2693  H     0.85027   0.77775   0.60487   0.00000  Uiso   1.00
H2694  H     0.83156   0.74879   0.64224   0.00000  Uiso   1.00
H2695  H     0.83705   0.73157   0.59365   0.00000  Uiso   1.00
H2696  H     0.72919   0.90627   0.43264   0.00000  Uiso   1.00
H2697  H     0.94177   0.81451   0.86979   0.00000  Uiso   1.00
H2698  H     0.75773   0.91886   0.39187   0.00000  Uiso   1.00
H2699  H     0.68358   0.88073   0.38947   0.00000  Uiso   1.00
H2700  H     0.70650   0.89786   0.34686   0.00000  Uiso   1.00
H2701  H     0.76022   0.85821   0.36111   0.00000  Uiso   1.00
H2702  H     0.71911   0.83203   0.35636   0.00000  Uiso   1.00
H2703  H     0.73764   0.84085   0.40414   0.00000  Uiso   1.00
H2704  H     0.85185   0.99116   0.59436   0.00000  Uiso   1.00
H2705  H     0.81669   0.97300   0.62513   0.00000  Uiso   1.00
H2706  H     0.86946   0.53460   0.64692   0.00000  Uiso   1.00
H2707  H     0.83302   0.51801   0.67706   0.00000  Uiso   1.00
H2708  H     0.91454   0.84810   0.89457   0.00000  Uiso   1.00
H2709  H     0.89830   0.97271   0.64748   0.00000  Uiso   1.00
H2710  H     0.86152   0.95606   0.67752   0.00000  Uiso   1.00
H2711  H     0.89207   0.99009   0.69617   0.00000  Uiso   1.00
H2712  H     0.50190   0.63589   0.39703   0.00000  Uiso   1.00
H2713  H     0.51370   0.66004   0.44002   0.00000  Uiso   1.00
H2714  H     0.54455   0.67221   0.35702   0.00000  Uiso   1.00
H2715  H     0.55632   0.69963   0.39868   0.00000  Uiso   1.00
H2716  H     0.57922   0.64437   0.43377   0.00000  Uiso   1.00
H2717  H     0.60301   0.65285   0.38904   0.00000  Uiso   1.00
H2718  H     0.56918   0.61736   0.39108   0.00000  Uiso   1.00
H2719  H     0.86619   0.80130   0.90588   0.00000  Uiso   1.00
H2720  H     0.60049   0.78062   0.56707   0.00000  Uiso   1.00
H2721  H     0.58098   0.73776   0.58127   0.00000  Uiso   1.00
H2722  H     0.61363   0.79132   0.63994   0.00000  Uiso   1.00
H2723  H     0.59991   0.74551   0.64868   0.00000  Uiso   1.00
H2724  H     0.64786   0.72254   0.60387   0.00000  Uiso   1.00
H2725  H     0.66707   0.75077   0.64161   0.00000  Uiso   1.00
H2726  H     0.66165   0.76866   0.59317   0.00000  Uiso   1.00
H2727  H     0.78787   0.59272   0.43651   0.00000  Uiso   1.00
H2728  H     0.74698   0.58197   0.40966   0.00000  Uiso   1.00
H2729  H     0.81756   0.61174   0.37419   0.00000  Uiso   1.00
H2730  H     0.90957   0.78734   0.92593   0.00000  Uiso   1.00
H2731  H     0.77606   0.60145   0.34823   0.00000  Uiso   1.00
H2732  H     0.74246   0.64727   0.38853   0.00000  Uiso   1.00
H2733  H     0.78009   0.66711   0.36260   0.00000  Uiso   1.00
H2734  H     0.78439   0.65802   0.41397   0.00000  Uiso   1.00
H2735  H     0.64845   0.50683   0.59254   0.00000  Uiso   1.00
H2736  H     0.68377   0.52694   0.62181   0.00000  Uiso   1.00
H2737  H     0.63245   0.96541   0.64740   0.00000  Uiso   1.00
H2738  H     0.66927   0.98352   0.67613   0.00000  Uiso   1.00
H2739  H     0.60289   0.52696   0.64568   0.00000  Uiso   1.00
H2740  H     0.64006   0.54510   0.67432   0.00000  Uiso   1.00
H2741  H     0.89382   0.76781   0.88082   0.00000  Uiso   1.00
H2742  H     0.61031   0.51143   0.69500   0.00000  Uiso   1.00
H2743  H     0.74236   0.61559   0.89525   0.00000  Uiso   1.00
H2744  H     0.73091   0.59128   0.93819   0.00000  Uiso   1.00
H2745  H     0.70084   0.57886   0.85492   0.00000  Uiso   1.00
H2746  H     0.69036   0.54994   0.89581   0.00000  Uiso   1.00
H2747  H     0.66465   0.60267   0.93218   0.00000  Uiso   1.00
H2748  H     0.64175   0.59602   0.88645   0.00000  Uiso   1.00
H2749  H     0.67467   0.63208   0.89142   0.00000  Uiso   1.00
H2750  H     0.64994   0.97009   0.06593   0.00000  Uiso   1.00
H2751  H     0.66891   0.51302   0.08078   0.00000  Uiso   1.00
H2752  H     0.89108   0.53420   0.27190   0.00000  Uiso   1.00
H2753  H     0.63583   0.95892   0.13849   0.00000  Uiso   1.00
H2754  H     0.64911   0.50490   0.14753   0.00000  Uiso   1.00
H2755  H     0.60181   0.52733   0.10095   0.00000  Uiso   1.00
H2756  H     0.58212   0.99951   0.13867   0.00000  Uiso   1.00
H2757  H     0.58837   0.98101   0.09074   0.00000  Uiso   1.00
H2758  H     0.97167   0.64682   0.93010   0.00000  Uiso   1.00
H2759  H     0.51437   0.66685   0.91651   0.00000  Uiso   1.00
H2760  H     0.95982   0.63690   0.85695   0.00000  Uiso   1.00
H2761  H     0.50567   0.65075   0.84825   0.00000  Uiso   1.00
H2762  H     0.52906   0.60129   0.89110   0.00000  Uiso   1.00
H2763  H     0.60386   0.51356   0.21464   0.00000  Uiso   1.00
H2764  H     0.93467   0.54968   0.25325   0.00000  Uiso   1.00
H2765  H     0.50058   0.58382   0.85243   0.00000  Uiso   1.00
H2766  H     0.98293   0.58697   0.90114   0.00000  Uiso   1.00
H2767  H     0.60275   0.74225   0.09490   0.00000  Uiso   1.00
H2768  H     0.56818   0.72485   0.12705   0.00000  Uiso   1.00
H2769  H     0.62094   0.78741   0.14529   0.00000  Uiso   1.00
H2770  H     0.58483   0.77206   0.17666   0.00000  Uiso   1.00
H2771  H     0.64959   0.72538   0.14828   0.00000  Uiso   1.00
H2772  H     0.61326   0.71027   0.17988   0.00000  Uiso   1.00
H2773  H     0.64423   0.74498   0.19612   0.00000  Uiso   1.00
H2774  H     0.75546   0.88465   0.89705   0.00000  Uiso   1.00
H2775  H     0.88990   0.98629   0.21981   0.00000  Uiso   1.00
H2776  H     0.76750   0.90918   0.93969   0.00000  Uiso   1.00
H2777  H     0.79771   0.92072   0.85645   0.00000  Uiso   1.00
H2778  H     0.80945   0.94868   0.89770   0.00000  Uiso   1.00
H2779  H     0.83290   0.89385   0.93339   0.00000  Uiso   1.00
H2780  H     0.85646   0.90138   0.88837   0.00000  Uiso   1.00
H2781  H     0.82251   0.86616   0.89133   0.00000  Uiso   1.00
H2782  H     0.85789   0.54635   0.10086   0.00000  Uiso   1.00
H2783  H     0.84048   0.52490   0.05849   0.00000  Uiso   1.00
H2784  H     0.84654   0.99221   0.14142   0.00000  Uiso   1.00
H2785  H     0.82488   0.96961   0.10077   0.00000  Uiso   1.00
H2786  H     0.93404   0.50102   0.20356   0.00000  Uiso   1.00
H2787  H     0.88395   0.97404   0.06341   0.00000  Uiso   1.00
H2788  H     0.88698   0.94758   0.10733   0.00000  Uiso   1.00
H2789  H     0.90509   0.99314   0.10656   0.00000  Uiso   1.00
H2790  H     0.53070   0.85013   0.93317   0.00000  Uiso   1.00
H2791  H     0.98764   0.83045   0.91951   0.00000  Uiso   1.00
H2792  H     0.54069   0.86350   0.86060   0.00000  Uiso   1.00
H2793  H     0.99511   0.84893   0.85162   0.00000  Uiso   1.00
H2794  H     0.97080   0.89637   0.89582   0.00000  Uiso   1.00
H2795  H     0.99938   0.91601   0.85862   0.00000  Uiso   1.00
H2796  H     0.51660   0.91096   0.90743   0.00000  Uiso   1.00
H2797  H     0.96091   0.98570   0.26824   0.00000  Uiso   1.00
H2798  H     0.88669   0.74706   0.10133   0.00000  Uiso   1.00
H2799  H     0.91120   0.75921   0.05884   0.00000  Uiso   1.00
H2800  H     0.91691   0.79201   0.14154   0.00000  Uiso   1.00
H2801  H     0.94999   0.80191   0.10441   0.00000  Uiso   1.00
H2802  H     0.90313   0.82625   0.06050   0.00000  Uiso   1.00
H2803  H     0.90172   0.84893   0.10686   0.00000  Uiso   1.00
H2804  H     0.86787   0.81492   0.09497   0.00000  Uiso   1.00
H2805  H     0.93761   0.94697   0.24812   0.00000  Uiso   1.00
H2806  H     0.91648   0.97284   0.28631   0.00000  Uiso   1.00
H2807  H     0.62918   0.96329   0.84047   0.00000  Uiso   1.00
H2808  H     0.65053   0.92072   0.83104   0.00000  Uiso   1.00
H2809  H     0.56854   0.92979   0.84963   0.00000  Uiso   1.00
H2810  H     0.59460   0.88799   0.84656   0.00000  Uiso   1.00
H2811  H     0.55995   0.99449   0.20283   0.00000  Uiso   1.00
H2812  H     0.63202   0.90600   0.90279   0.00000  Uiso   1.00
H2813  H     0.58448   0.90579   0.91525   0.00000  Uiso   1.00
H2814  H     0.60717   0.94850   0.90684   0.00000  Uiso   1.00
H2815  H     0.97123   0.87043   0.17171   0.00000  Uiso   1.00
H2816  H     0.95719   0.89447   0.21413   0.00000  Uiso   1.00
H2817  H     0.93706   0.91281   0.12871   0.00000  Uiso   1.00
H2818  H     0.92246   0.93843   0.17078   0.00000  Uiso   1.00
H2819  H     0.98805   0.95071   0.18766   0.00000  Uiso   1.00
H2820  H     0.97524   0.96794   0.14033   0.00000  Uiso   1.00
H2821  H     0.50164   0.92670   0.14399   0.00000  Uiso   1.00
H2822  H     0.53675   0.51107   0.26869   0.00000  Uiso   1.00
H2823  H     0.60677   0.69192   0.81951   0.00000  Uiso   1.00
H2824  H     0.63416   0.65782   0.84414   0.00000  Uiso   1.00
H2825  H     0.55839   0.68521   0.86878   0.00000  Uiso   1.00
H2826  H     0.58463   0.65082   0.89386   0.00000  Uiso   1.00
H2827  H     0.63399   0.69644   0.90595   0.00000  Uiso   1.00
H2828  H     0.59083   0.71126   0.92549   0.00000  Uiso   1.00
H2829  H     0.60728   0.73068   0.88066   0.00000  Uiso   1.00
H2830  H     0.62390   0.52591   0.82414   0.00000  Uiso   1.00
H2831  H     0.60473   0.54071   0.77899   0.00000  Uiso   1.00
H2832  H     0.57717   0.56461   0.86015   0.00000  Uiso   1.00
H2833  H     0.55376   0.55024   0.24308   0.00000  Uiso   1.00
H2834  H     0.55575   0.57352   0.81362   0.00000  Uiso   1.00
H2835  H     0.54832   0.50580   0.80385   0.00000  Uiso   1.00
H2836  H     0.52506   0.52235   0.84653   0.00000  Uiso   1.00
H2837  H     0.56760   0.99846   0.85182   0.00000  Uiso   1.00
H2838  H     0.81109   0.92801   0.15464   0.00000  Uiso   1.00
H2839  H     0.80574   0.89085   0.18732   0.00000  Uiso   1.00
H2840  H     0.84741   0.88788   0.10963   0.00000  Uiso   1.00
H2841  H     0.83955   0.85044   0.14284   0.00000  Uiso   1.00
H2842  H     0.77227   0.85751   0.13309   0.00000  Uiso   1.00
H2843  H     0.79551   0.84978   0.08758   0.00000  Uiso   1.00
H2844  H     0.58077   0.52985   0.28119   0.00000  Uiso   1.00
H2845  H     0.78021   0.89494   0.09990   0.00000  Uiso   1.00
H2846  H     0.53211   0.88784   0.72539   0.00000  Uiso   1.00
H2847  H     0.54882   0.93248   0.73917   0.00000  Uiso   1.00
H2848  H     0.98536   0.89272   0.77905   0.00000  Uiso   1.00
H2849  H     0.50104   0.93817   0.78884   0.00000  Uiso   1.00
H2850  H     0.98465   0.95676   0.72080   0.00000  Uiso   1.00
H2851  H     0.94595   0.93829   0.74613   0.00000  Uiso   1.00
H2852  H     0.96948   0.91108   0.71062   0.00000  Uiso   1.00
H2853  H     0.95820   0.63441   0.15624   0.00000  Uiso   1.00
H2854  H     0.91115   0.64429   0.16328   0.00000  Uiso   1.00
H2855  H     0.86932   0.53643   0.84032   0.00000  Uiso   1.00
H2856  H     0.94203   0.56670   0.14989   0.00000  Uiso   1.00
H2857  H     0.89483   0.58032   0.14956   0.00000  Uiso   1.00
H2858  H     0.90295   0.61700   0.09131   0.00000  Uiso   1.00
H2859  H     0.92013   0.57185   0.08265   0.00000  Uiso   1.00
H2860  H     0.95164   0.60840   0.09124   0.00000  Uiso   1.00
H2861  H     0.87198   0.97130   0.82841   0.00000  Uiso   1.00
H2862  H     0.89463   0.95811   0.78478   0.00000  Uiso   1.00
H2863  H     0.91610   0.93452   0.86852   0.00000  Uiso   1.00
H2864  H     0.94035   0.92321   0.82457   0.00000  Uiso   1.00
H2865  H     0.95132   0.98936   0.81182   0.00000  Uiso   1.00
H2866  H     0.84933   0.57978   0.83127   0.00000  Uiso   1.00
H2867  H     0.96965   0.97506   0.85818   0.00000  Uiso   1.00
H2868  H     0.92771   0.50038   0.85658   0.00000  Uiso   1.00
H2869  H     0.69364   0.61114   0.17917   0.00000  Uiso   1.00
H2870  H     0.65855   0.63514   0.15173   0.00000  Uiso   1.00
H2871  H     0.68876   0.55912   0.13236   0.00000  Uiso   1.00
H2872  H     0.65555   0.58423   0.10448   0.00000  Uiso   1.00
H2873  H     0.70197   0.63318   0.09288   0.00000  Uiso   1.00
H2874  H     0.71704   0.58944   0.07537   0.00000  Uiso   1.00
H2875  H     0.73515   0.60700   0.12041   0.00000  Uiso   1.00
H2876  H     0.99327   0.61283   0.75759   0.00000  Uiso   1.00
O2877  O     0.75000   0.50000   0.25000   0.00000  Uiso   1.00
O2878  O     0.75000   0.96963   0.66245   0.00000  Uiso   1.00
O2879  O     0.93987   0.72970   0.10201   0.00000  Uiso   1.00
O2880  O     0.96964   0.75000   0.33755   0.00000  Uiso   1.00
O2881  O     0.53037   0.75000   0.66245   0.00000  Uiso   1.00
O2882  O     0.50000   0.71964   0.83755   0.00000  Uiso   1.00
O2883  O     0.50000   0.78037   0.16245   0.00000  Uiso   1.00
O2884  O     0.78037   0.50000   0.83755   0.00000  Uiso   1.00
O2885  O     0.71964   0.50000   0.16245   0.00000  Uiso   1.00
O2886  O     0.50000   0.78037   0.83755   0.00000  Uiso   1.00
O2887  O     0.50000   0.71963   0.16245   0.00000  Uiso   1.00
O2888  O     0.71964   0.50000   0.83755   0.00000  Uiso   1.00
O2889  O     0.75000   0.50000   0.75000   0.00000  Uiso   1.00
O2890  O     0.78037   0.50000   0.16245   0.00000  Uiso   1.00
O2891  O     0.70725   0.57308   0.27302   0.00000  Uiso   1.00
O2892  O     0.79276   0.92692   0.72698   0.00000  Uiso   1.00
O2893  O     0.92693   0.70725   0.27302   0.00000  Uiso   1.00
O2894  O     0.57308   0.79275   0.72698   0.00000  Uiso   1.00
O2895  O     0.79276   0.92692   0.27302   0.00000  Uiso   1.00
O2896  O     0.70725   0.57308   0.72698   0.00000  Uiso   1.00
O2897  O     0.57308   0.79275   0.27302   0.00000  Uiso   1.00
O2898  O     0.92693   0.70725   0.72698   0.00000  Uiso   1.00
O2899  O     0.70725   0.92692   0.72698   0.00000  Uiso   1.00
O2900  O     0.50000   0.75000   0.25000   0.00000  Uiso   1.00
O2901  O     0.79276   0.57308   0.27302   0.00000  Uiso   1.00
O2902  O     0.92693   0.79276   0.72698   0.00000  Uiso   1.00
O2903  O     0.57308   0.70724   0.27302   0.00000  Uiso   1.00
O2904  O     0.79276   0.57308   0.72698   0.00000  Uiso   1.00
O2905  O     0.70725   0.92692   0.27302   0.00000  Uiso   1.00
O2906  O     0.57308   0.70724   0.72698   0.00000  Uiso   1.00
O2907  O     0.92693   0.79276   0.27302   0.00000  Uiso   1.00
O2908  O     0.95725   0.82308   0.77302   0.00000  Uiso   1.00
O2909  O     0.54276   0.67692   0.22698   0.00000  Uiso   1.00
O2910  O     0.67693   0.95724   0.77302   0.00000  Uiso   1.00
O2911  O     0.50000   0.75000   0.75000   0.00000  Uiso   1.00
O2912  O     0.82308   0.54276   0.22698   0.00000  Uiso   1.00
O2913  O     0.54276   0.67692   0.77302   0.00000  Uiso   1.00
O2914  O     0.95725   0.82308   0.22698   0.00000  Uiso   1.00
O2915  O     0.82308   0.54276   0.77302   0.00000  Uiso   1.00
O2916  O     0.67693   0.95724   0.22698   0.00000  Uiso   1.00
O2917  O     0.95725   0.67693   0.22698   0.00000  Uiso   1.00
O2918  O     0.54276   0.82307   0.77302   0.00000  Uiso   1.00
O2919  O     0.67693   0.54276   0.22698   0.00000  Uiso   1.00
O2920  O     0.82308   0.95724   0.77302   0.00000  Uiso   1.00
O2921  O     0.54276   0.82307   0.22698   0.00000  Uiso   1.00
O2922  O     0.75000   0.96963   0.33755   0.00000  Uiso   1.00
O2923  O     0.95725   0.67693   0.77302   0.00000  Uiso   1.00
O2924  O     0.82308   0.95724   0.22698   0.00000  Uiso   1.00
O2925  O     0.67693   0.54276   0.77302   0.00000  Uiso   1.00
O2926  O     0.60941   0.94248   0.21607   0.00000  Uiso   1.00
O2927  O     0.88842   0.56051   0.79072   0.00000  Uiso   1.00
O2928  O     0.58581   0.63788   0.18084   0.00000  Uiso   1.00
O2929  O     0.91309   0.85987   0.81846   0.00000  Uiso   1.00
O2930  O     0.89007   0.55750   0.21647   0.00000  Uiso   1.00
O2931  O     0.61146   0.93951   0.79000   0.00000  Uiso   1.00
O2932  O     0.91668   0.86537   0.18247   0.00000  Uiso   1.00
O2933  O     0.75000   0.53037   0.66245   0.00000  Uiso   1.00
O2934  O     0.58661   0.63898   0.81797   0.00000  Uiso   1.00
O2935  O     0.63137   0.58003   0.81448   0.00000  Uiso   1.00
O2936  O     0.85929   0.91230   0.18003   0.00000  Uiso   1.00
O2937  O     0.55636   0.89123   0.78019   0.00000  Uiso   1.00
O2938  O     0.93836   0.61299   0.20680   0.00000  Uiso   1.00
O2939  O     0.86615   0.91733   0.81637   0.00000  Uiso   1.00
O2940  O     0.64174   0.58826   0.18032   0.00000  Uiso   1.00
O2941  O     0.94307   0.60932   0.78306   0.00000  Uiso   1.00
O2942  O     0.56134   0.88708   0.20671   0.00000  Uiso   1.00
O2943  O     0.85918   0.69243   0.71753   0.00000  Uiso   1.00
O2944  O     0.53037   0.75000   0.33755   0.00000  Uiso   1.00
O2945  O     0.63373   0.81611   0.29916   0.00000  Uiso   1.00
O2946  O     0.83319   0.88508   0.68262   0.00000  Uiso   1.00
O2947  O     0.65647   0.60378   0.31957   0.00000  Uiso   1.00
O2948  O     0.64097   0.80721   0.71838   0.00000  Uiso   1.00
O2949  O     0.86938   0.68126   0.30323   0.00000  Uiso   1.00
O2950  O     0.66727   0.61590   0.68283   0.00000  Uiso   1.00
O2951  O     0.83758   0.89089   0.31808   0.00000  Uiso   1.00
O2952  O     0.88385   0.83195   0.31555   0.00000  Uiso   1.00
O2953  O     0.61001   0.66357   0.68120   0.00000  Uiso   1.00
O2954  O     0.81114   0.63760   0.29124   0.00000  Uiso   1.00
O2955  O     0.96964   0.75000   0.66245   0.00000  Uiso   1.00
O2956  O     0.68902   0.86231   0.70865   0.00000  Uiso   1.00
O2957  O     0.61527   0.66579   0.31632   0.00000  Uiso   1.00
O2958  O     0.88993   0.83700   0.68123   0.00000  Uiso   1.00
O2959  O     0.69265   0.85884   0.28155   0.00000  Uiso   1.00
O2960  O     0.81138   0.63722   0.70762   0.00000  Uiso   1.00
O2961  O     0.52346   0.81115   0.39548   0.00000  Uiso   1.00
O2962  O     0.94441   0.71583   0.60113   0.00000  Uiso   1.00
O2963  O     0.70975   0.94890   0.39806   0.00000  Uiso   1.00
O2964  O     0.80938   0.52702   0.60490   0.00000  Uiso   1.00
O2965  O     0.98285   0.68826   0.39762   0.00000  Uiso   1.00
O2966  O     0.75000   0.53037   0.33755   0.00000  Uiso   1.00
O2967  O     0.55442   0.78587   0.60100   0.00000  Uiso   1.00
O2968  O     0.79286   0.54896   0.39867   0.00000  Uiso   1.00
O2969  O     0.69173   0.97223   0.60415   0.00000  Uiso   1.00
O2970  O     0.76307   0.56381   0.89645   0.00000  Uiso   1.00
O2971  O     0.69562   0.96500   0.10083   0.00000  Uiso   1.00
O2972  O     0.96595   0.69422   0.89830   0.00000  Uiso   1.00
O2973  O     0.56004   0.77797   0.10482   0.00000  Uiso   1.00
O2974  O     0.73611   0.93693   0.89723   0.00000  Uiso   1.00
O2975  O     0.80252   0.53981   0.10202   0.00000  Uiso   1.00
O2976  O     0.53579   0.80417   0.89919   0.00000  Uiso   1.00
Zn2977 Zn    0.70660   0.50000   0.21735   0.00000  Uiso   1.00
Zn2978 Zn    0.54341   0.75000   0.28265   0.00000  Uiso   1.00
Zn2979 Zn    0.75000   0.95659   0.71735   0.00000  Uiso   1.00
Zn2980 Zn    0.75000   0.54341   0.28265   0.00000  Uiso   1.00
Zn2981 Zn    0.54341   0.75000   0.71735   0.00000  Uiso   1.00
Zn2982 Zn    0.95660   0.75000   0.28265   0.00000  Uiso   1.00
Zn2983 Zn    0.75000   0.54341   0.71735   0.00000  Uiso   1.00
Zn2984 Zn    0.75000   0.95659   0.28265   0.00000  Uiso   1.00
Zn2985 Zn    0.79341   0.50000   0.78265   0.00000  Uiso   1.00
Zn2986 Zn    0.50000   0.70660   0.21735   0.00000  Uiso   1.00
Zn2987 Zn    0.50000   0.79341   0.78265   0.00000  Uiso   1.00
Zn2988 Zn    0.79341   0.50000   0.21735   0.00000  Uiso   1.00
Zn2989 Zn    0.70660   0.50000   0.78265   0.00000  Uiso   1.00
Zn2990 Zn    0.50000   0.79340   0.21735   0.00000  Uiso   1.00
Zn2991 Zn    0.50000   0.70660   0.78265   0.00000  Uiso   1.00
Zn2992 Zn    0.95660   0.75000   0.71735   0.00000  Uiso   1.00
loop_
_geom_bond_atom_site_label_1
_geom_bond_atom_site_label_2
_geom_bond_distance
_geom_bond_site_symmetry_2
_ccdc_geom_bond_type
C1     O717    1.384   .     S
C1     C4      1.414   .     A
C1     C827    1.399   1_455 S
C2     C14     1.408   .     A
C2     O727    1.384   .     S
C2     C1631   1.400   .     S
C3     C259    1.412   .     A
C3     C38     1.429   .     A
C3     C201    1.423   .     A
C4     C203    1.421   .     A
C4     C782    1.424   1_455 S
C5     C36     1.417   .     A
C5     C112    1.410   .     A
C5     C205    1.413   .     A
C6     C204    1.410   .     A
C6     C206    1.411   .     A
C6     C37     1.417   .     A
C7     C207    1.423   .     A
C7     C215    1.412   .     A
C7     C1534   1.430   1_545 S
C8     C35     1.414   .     A
C8     C208    1.417   .     A
C8     C1535   1.420   .     S
C9     C46     1.415   .     A
C9     C40     1.416   .     A
C9     C209    1.414   .     A
C10    C41     1.414   .     A
C10    C210    1.411   .     A
C10    C57     1.412   .     A
C11    C68     1.408   .     A
C11    C211    1.416   .     A
C11    C790    1.420   .     S
C12    C212    1.418   .     A
C12    C270    1.415   .     A
C12    C39     1.419   .     A
C13    O728    1.385   .     S
C13    C15     1.409   .     A
C13    C894    1.402   .     S
C14    C213    1.412   .     A
C14    C1536   1.414   .     S
C15    C214    1.412   .     A
C15    C789    1.418   .     S
C16    C216    1.423   .     A
C16    C24     1.417   .     A
C16    C42     1.426   .     A
C17    C260    1.416   .     A
C17    C262    1.410   .     A
C17    C232    1.465   .     S
C18    C261    1.409   .     A
C18    C258    1.412   .     A
C18    C233    1.461   .     S
C19    C257    1.407   .     A
C19    C264    1.399   .     A
C19    C225    1.451   .     S
C20    C227    1.463   .     S
C20    C256    1.415   .     A
C20    C263    1.417   .     A
C21    C266    1.411   .     A
C21    C255    1.415   .     A
C21    C228    1.466   .     S
C22    C265    1.409   .     A
C22    C229    1.461   .     S
C22    C254    1.409   .     A
C23    C253    1.412   .     A
C23    C268    1.401   .     A
C23    C230    1.451   .     S
C24    C157    1.402   .     A
C24    O729    1.385   .     S
C25    C267    1.417   .     A
C25    C231    1.463   .     S
C25    C252    1.415   .     A
C26    C241    1.453   .     S
C26    C251    1.405   .     A
C26    C271    1.407   .     A
C27    C242    1.465   .     S
C27    C269    1.411   .     A
C27    C250    1.419   .     A
C28    C273    1.415   .     A
C28    C234    1.466   .     S
C28    C249    1.415   .     A
C29    C247    1.409   .     A
C29    C235    1.462   .     S
C29    C272    1.410   .     A
C30    C275    1.406   .     A
C30    C246    1.406   .     A
C30    C236    1.453   .     S
C31    C238    1.464   .     S
C31    C274    1.411   .     A
C31    C245    1.417   .     A
C32    C277    1.415   .     A
C32    C244    1.416   .     A
C32    C239    1.465   .     S
C33    C276    1.407   .     A
C33    C240    1.461   .     S
C33    C243    1.410   .     A
C34    C36     1.405   .     A
C34    C278    1.420   .     A
C34    C752    1.424   .     S
C35    O730    1.389   .     S
C35    C1620   1.397   .     S
C36    C1027   1.414   .     S
C37    C38     1.410   .     A
C37    C1776   1.417   .     S
C38    C1503   1.430   .     S
C39    C1504   1.420   1_545 S
C39    C40     1.404   1_556 S
C40    C1510   1.414   1_545 S
C40    C39     1.404   1_554 S
C41    C763    1.418   1_455 S
C41    C42     1.406   1_556 S
C42    C759    1.420   1_455 S
C42    C41     1.406   1_554 S
C43    H297    1.115   .     S
C43    C44     1.527   .     S
C43    H408    1.116   .     S
C43    O682    1.413   .     S
C44    H567    1.111   .     S
C44    C1541   1.525   .     S
C44    H2015   1.112   .     S
C45    H589    1.109   .     S
C45    H600    1.110   .     S
C45    H578    1.111   .     S
C45    C1540   1.525   1_545 S
C46    C135    1.405   .     A
C46    O731    1.390   .     S
C47    H622    1.117   .     S
C47    H611    1.110   .     S
C47    O683    1.419   .     S
C47    C48     1.529   .     S
C48    H298    1.111   .     S
C48    C49     1.523   .     S
C48    H309    1.108   .     S
C49    H342    1.111   .     S
C49    H331    1.110   .     S
C49    H320    1.108   .     S
C50    H353    1.112   .     S
C50    C51     1.530   .     S
C50    O684    1.419   .     S
C50    H364    1.117   .     S
C51    C52     1.526   .     S
C51    H386    1.109   .     S
C51    H375    1.112   .     S
C52    H420    1.110   .     S
C52    H409    1.109   .     S
C52    H397    1.111   .     S
C53    O685    1.413   .     S
C53    C54     1.527   .     S
C53    H442    1.114   .     S
C53    H431    1.114   .     S
C54    H464    1.112   .     S
C54    H453    1.109   .     S
C54    C55     1.526   .     S
C55    H497    1.111   .     S
C55    H486    1.111   .     S
C55    H475    1.111   .     S
C56    H508    1.116   .     S
C56    O686    1.412   .     S
C56    H520    1.115   .     S
C56    C1554   1.527   1_545 S
C57    O732    1.384   .     S
C57    C146    1.401   .     A
C58    C59     1.526   .     S
C58    H531    1.111   .     S
C58    C1552   1.527   .     S
C58    H2038   1.112   .     S
C59    H553    1.111   .     S
C59    H562    1.110   .     S
C59    H561    1.108   .     S
C60    H563    1.109   .     S
C60    H564    1.117   .     S
C60    C61     1.529   .     S
C60    O687    1.419   .     S
C61    H565    1.111   .     S
C61    C62     1.523   .     S
C61    H566    1.108   .     S
C62    H569    1.110   .     S
C62    H570    1.111   .     S
C62    H568    1.108   .     S
C63    H572    1.117   .     S
C63    O688    1.420   .     S
C63    H571    1.111   .     S
C63    C64     1.528   .     S
C64    H573    1.111   .     S
C64    H574    1.108   .     S
C64    C65     1.527   .     S
C65    H575    1.111   .     S
C65    H576    1.111   .     S
C65    H1325   1.110   .     S
C66    H580    1.113   .     S
C66    C67     1.526   .     S
C66    H579    1.114   .     S
C66    O690    1.413   .     S
C67    H581    1.108   .     S
C67    H582    1.112   .     S
C67    C69     1.526   .     S
C68    O635    1.389   .     S
C68    C905    1.393   .     S
C69    H583    1.111   .     S
C69    H584    1.111   .     S
C69    H585    1.111   .     S
C70    O691    1.419   .     S
C70    H587    1.118   .     S
C70    C71     1.528   .     S
C70    H586    1.110   .     S
C71    H588    1.111   .     S
C71    C72     1.528   .     S
C71    H590    1.110   .     S
C72    H591    1.111   .     S
C72    H592    1.109   .     S
C72    H2089   1.110   1_545 S
C73    O692    1.419   .     S
C73    C74     1.523   .     S
C73    H594    1.110   .     S
C73    H595    1.113   .     S
C74    H596    1.111   .     S
C74    H597    1.110   .     S
C74    C75     1.526   .     S
C75    H601    1.111   .     S
C75    H598    1.111   .     S
C75    H599    1.110   .     S
C76    H603    1.115   .     S
C76    O693    1.412   .     S
C76    H602    1.115   .     S
C76    C825    1.527   1_455 S
C77    C78     1.526   .     S
C77    H604    1.111   .     S
C77    C824    1.527   .     S
C77    H1353   1.111   .     S
C78    H608    1.109   .     S
C78    H606    1.110   .     S
C78    H607    1.109   .     S
C79    C226    1.393   .     A
C79    C749    1.399   .     S
C79    C967    1.449   .     S
C80    H609    1.111   .     S
C80    O694    1.419   .     S
C80    H610    1.118   .     S
C80    C81     1.535   .     S
C81    H613    1.108   .     S
C81    C82     1.524   .     S
C81    H612    1.111   .     S
C82    H614    1.109   .     S
C82    H615    1.110   .     S
C82    H616    1.111   .     S
C83    H617    1.110   .     S
C83    C84     1.529   .     S
C83    O695    1.419   .     S
C83    H618    1.117   .     S
C84    H619    1.111   .     S
C84    H620    1.107   .     S
C84    C85     1.527   .     S
C85    H621    1.111   .     S
C85    H623    1.109   .     S
C85    H2120   1.109   .     S
C86    H625    1.115   .     S
C86    O696    1.411   .     S
C86    C87     1.528   .     S
C86    H626    1.115   .     S
C87    H628    1.112   .     S
C87    C88     1.525   .     S
C87    H627    1.109   .     S
C88    H629    1.111   .     S
C88    H631    1.111   .     S
C88    H630    1.111   .     S
C89    H299    1.118   .     S
C89    O697    1.417   .     S
C89    C91     1.530   .     S
C89    H632    1.112   .     S
C90    C220    1.465   .     S
C90    C112    1.402   .     A
C90    C985    1.402   .     S
C91    H300    1.111   .     S
C91    H301    1.111   .     S
C91    C840    1.526   .     S
C92    H304    1.111   .     S
C92    H303    1.110   .     S
C92    H302    1.111   .     S
C92    C839    1.526   1_455 S
C93    O698    1.419   .     S
C93    H306    1.116   .     S
C93    C94     1.530   .     S
C93    H305    1.111   .     S
C94    H308    1.109   .     S
C94    C95     1.523   .     S
C94    H307    1.111   .     S
C95    H311    1.110   .     S
C95    H310    1.108   .     S
C95    H312    1.111   .     S
C96    O699    1.413   .     S
C96    H314    1.115   .     S
C96    C97     1.527   .     S
C96    H313    1.115   .     S
C97    C98     1.526   .     S
C97    H316    1.111   .     S
C97    H315    1.111   .     S
C98    H317    1.111   .     S
C98    H318    1.109   .     S
C98    H319    1.110   .     S
C99    O701    1.419   .     S
C99    H322    1.113   .     S
C99    C100    1.530   .     S
C99    H321    1.115   .     S
C100   H323    1.109   .     S
C100   H324    1.112   .     S
C100   C102    1.524   .     S
C101   C204    1.400   .     A
C101   C217    1.462   .     S
C101   C1744   1.398   .     S
C102   H327    1.108   .     S
C102   H325    1.107   .     S
C102   H326    1.110   .     S
C103   H329    1.117   .     S
C103   O702    1.420   .     S
C103   H328    1.111   .     S
C103   C104    1.529   .     S
C104   C105    1.528   .     S
C104   H330    1.111   .     S
C104   H332    1.108   .     S
C105   H334    1.109   .     S
C105   H333    1.111   .     S
C105   H335    1.110   .     S
C106   C107    1.528   .     S
C106   O703    1.415   .     S
C106   H337    1.116   .     S
C106   H336    1.113   .     S
C107   H338    1.111   .     S
C107   C108    1.521   .     S
C107   H339    1.112   .     S
C108   H341    1.110   .     S
C108   H343    1.108   .     S
C108   H340    1.111   .     S
C109   H345    1.115   .     S
C109   H344    1.115   .     S
C109   O704    1.412   .     S
C109   C110    1.527   .     S
C110   C111    1.526   .     S
C110   H346    1.111   .     S
C110   H347    1.111   .     S
C111   H348    1.111   .     S
C111   H350    1.110   .     S
C111   H349    1.109   .     S
C112   O718    1.385   .     S
C113   C259    1.397   .     A
C113   C1711   1.397   .     S
C113   C1714   1.447   .     S
C114   C115    1.527   .     S
C114   O705    1.418   .     S
C114   H352    1.116   .     S
C114   H351    1.114   .     S
C115   C116    1.522   .     S
C115   H354    1.109   .     S
C115   H355    1.111   .     S
C116   H357    1.109   .     S
C116   H356    1.105   .     S
C116   H358    1.108   .     S
C117   O706    1.419   .     S
C117   H359    1.111   .     S
C117   C118    1.529   .     S
C117   H360    1.117   .     S
C118   H361    1.111   .     S
C118   H362    1.108   .     S
C118   C119    1.528   .     S
C119   H363    1.111   .     S
C119   H366    1.110   .     S
C119   H365    1.110   .     S
C120   O707    1.412   .     S
C120   H367    1.116   .     S
C120   C121    1.527   .     S
C120   H368    1.114   .     S
C121   H369    1.109   .     S
C121   C122    1.525   .     S
C121   H370    1.111   .     S
C122   H371    1.111   .     S
C122   H372    1.111   .     S
C122   H373    1.111   .     S
C123   O708    1.419   .     S
C123   C125    1.528   .     S
C123   H376    1.116   .     S
C123   H374    1.110   .     S
C124   C270    1.398   .     A
C124   C223    1.452   .     S
C124   C1531   1.397   1_545 S
C125   H378    1.111   .     S
C125   H377    1.110   .     S
C125   C126    1.527   .     S
C126   H380    1.110   .     S
C126   H381    1.109   .     S
C126   H379    1.110   .     S
C127   H382    1.116   .     S
C127   H383    1.115   .     S
C127   C128    1.528   .     S
C127   O709    1.413   .     S
C128   C129    1.526   .     S
C128   H385    1.112   .     S
C128   H384    1.109   .     S
C129   H388    1.111   .     S
C129   H389    1.111   .     S
C129   H387    1.111   .     S
C130   C131    1.531   .     S
C130   O710    1.416   .     S
C130   H391    1.118   .     S
C130   H390    1.112   .     S
C131   H393    1.111   .     S
C131   C132    1.526   .     S
C131   H392    1.110   .     S
C132   H396    1.111   .     S
C132   H395    1.109   .     S
C132   H394    1.111   .     S
C133   H399    1.117   .     S
C133   O712    1.419   .     S
C133   H398    1.110   .     S
C133   C134    1.529   .     S
C134   H400    1.111   .     S
C134   H401    1.109   .     S
C134   C136    1.523   .     S
C135   C224    1.462   .     S
C135   C1498   1.400   1_545 S
C136   H403    1.110   .     S
C136   H402    1.109   .     S
C136   H404    1.111   .     S
C137   H406    1.117   .     S
C137   H405    1.103   .     S
C137   O713    1.418   .     S
C137   C138    1.535   .     S
C138   H410    1.110   .     S
C138   H407    1.112   .     S
C138   C139    1.527   .     S
C139   H412    1.107   .     S
C139   H413    1.109   .     S
C139   H411    1.111   .     S
C140   C141    1.527   .     S
C140   H415    1.115   .     S
C140   H414    1.114   .     S
C140   O714    1.412   .     S
C141   H417    1.112   .     S
C141   H416    1.109   .     S
C141   C142    1.526   .     S
C142   H418    1.111   .     S
C142   H421    1.111   .     S
C142   H419    1.111   .     S
C143   O715    1.414   .     S
C143   H423    1.116   .     S
C143   C144    1.528   .     S
C143   H422    1.115   .     S
C144   C145    1.528   .     S
C144   H424    1.112   .     S
C144   H425    1.112   .     S
C145   H427    1.109   .     S
C145   H426    1.110   .     S
C145   H428    1.108   .     S
C146   C221    1.464   .     S
C146   C761    1.402   1_455 S
C147   H429    1.110   .     S
C147   O716    1.419   .     S
C147   C148    1.529   .     S
C147   H430    1.117   .     S
C148   H433    1.109   .     S
C148   C149    1.524   .     S
C148   H432    1.111   .     S
C149   H435    1.111   .     S
C149   H434    1.109   .     S
C149   H436    1.111   .     S
C150   H438    1.116   .     S
C150   H437    1.113   .     S
C150   C899    1.529   .     S
C150   O1465   1.414   .     S
C151   H439    1.112   .     S
C151   H440    1.112   .     S
C151   C898    1.529   1_455 S
C151   C900    1.527   1_455 S
C152   H444    1.111   .     S
C152   H441    1.111   .     S
C152   H443    1.110   .     S
C152   C899    1.527   .     S
C153   O718    1.419   .     S
C153   H445    1.111   .     S
C153   H446    1.118   .     S
C153   C154    1.527   .     S
C154   H448    1.110   .     S
C154   C155    1.524   .     S
C154   H447    1.106   .     S
C155   H449    1.110   .     S
C155   H451    1.111   .     S
C155   H450    1.107   .     S
C156   H454    1.114   .     S
C156   C158    1.524   .     S
C156   O719    1.415   .     S
C156   H452    1.114   .     S
C157   C222    1.451   .     S
C157   C816    1.393   1_455 S
C158   H455    1.111   .     S
C158   C159    1.525   .     S
C158   H456    1.110   .     S
C159   H458    1.110   .     S
C159   H459    1.111   .     S
C159   H457    1.111   .     S
C160   H461    1.116   .     S
C160   H460    1.112   .     S
C160   C1657   1.530   .     S
C160   O2216   1.418   .     S
C161   H462    1.112   .     S
C161   H463    1.112   .     S
C161   C1656   1.530   1_545 S
C161   C1658   1.527   1_545 S
C162   H467    1.111   .     S
C162   H465    1.111   .     S
C162   H466    1.110   .     S
C162   C1657   1.527   .     S
C163   H469    1.114   .     S
C163   C164    1.536   .     S
C163   H468    1.111   .     S
C163   O1469   1.420   1_455 S
C164   H471    1.111   .     S
C164   C165    1.524   .     S
C164   H470    1.112   .     S
C165   H474    1.110   .     S
C165   H472    1.111   .     S
C165   H473    1.108   .     S
C166   H476    1.111   .     S
C166   O723    1.419   .     S
C166   C167    1.528   .     S
C166   H477    1.118   .     S
C167   H478    1.105   .     S
C167   C169    1.524   .     S
C167   H479    1.110   .     S
C168   C278    1.416   .     A
C168   Cl281   1.774   .     S
C168   C205    1.399   .     A
C169   H480    1.110   .     S
C169   H481    1.108   .     S
C169   H482    1.110   .     S
C170   H484    1.115   .     S
C170   H483    1.112   .     S
C170   C171    1.523   .     S
C170   O724    1.416   .     S
C171   H485    1.110   .     S
C171   C172    1.523   .     S
C171   H487    1.111   .     S
C172   H490    1.111   .     S
C172   H488    1.111   .     S
C172   H489    1.107   .     S
C173   H491    1.112   .     S
C173   H492    1.116   .     S
C173   C1670   1.530   1_545 S
C173   O2221   1.418   1_545 S
C174   H494    1.112   .     S
C174   H493    1.112   .     S
C174   C1669   1.530   .     S
C174   C1671   1.526   .     S
C175   H498    1.111   .     S
C175   H495    1.111   .     S
C175   H496    1.110   .     S
C175   C1670   1.526   1_545 S
C176   H500    1.113   .     S
C176   H499    1.111   .     S
C176   C177    1.535   .     S
C176   O726    1.421   .     S
C177   H501    1.111   .     S
C177   C178    1.527   .     S
C177   H502    1.110   .     S
C178   H503    1.111   .     S
C178   H505    1.110   .     S
C178   H504    1.109   .     S
C179   C203    1.405   .     A
C179   C279    1.413   .     A
C179   Cl289   1.776   .     S
C180   C181    1.526   .     S
C180   O727    1.419   .     S
C180   H506    1.111   .     S
C180   H2003   1.119   .     S
C181   H509    1.106   .     S
C181   C182    1.524   .     S
C181   H2006   1.111   .     S
C182   H513    1.111   .     S
C182   H512    1.107   .     S
C182   H2007   1.111   .     S
C183   O728    1.419   .     S
C183   H514    1.111   .     S
C183   C184    1.527   .     S
C183   H1263   1.117   .     S
C184   H516    1.106   .     S
C184   C933    1.523   .     S
C184   H1265   1.109   .     S
C185   H518    1.110   .     S
C185   H521    1.107   .     S
C185   C932    1.523   1_455 S
C185   H1270   1.110   1_455 S
C186   H523    1.112   .     S
C186   H524    1.116   .     S
C186   O729    1.417   .     S
C186   C187    1.529   .     S
C187   H525    1.112   .     S
C187   C188    1.526   .     S
C187   H526    1.112   .     S
C188   H527    1.111   .     S
C188   H529    1.111   .     S
C188   H528    1.110   .     S
C189   H532    1.113   .     S
C189   C191    1.535   .     S
C189   H530    1.111   .     S
C189   O730    1.421   .     S
C190   C280    1.409   .     A
C190   C207    1.400   .     A
C190   Cl290   1.778   .     S
C191   H534    1.111   .     S
C191   C192    1.528   .     S
C191   H533    1.111   .     S
C192   H535    1.111   .     S
C192   H536    1.108   .     S
C192   H537    1.110   .     S
C193   O731    1.421   .     S
C193   H539    1.113   .     S
C193   H538    1.109   .     S
C193   C1690   1.533   1_545 S
C194   C195    1.524   .     S
C194   H540    1.111   .     S
C194   H541    1.111   .     S
C194   C1689   1.533   .     S
C195   H545    1.111   .     S
C195   H544    1.107   .     S
C195   H543    1.111   .     S
C196   O732    1.419   .     S
C196   C197    1.527   .     S
C196   H546    1.111   .     S
C196   H1295   1.118   1_455 S
C197   H548    1.105   .     S
C197   C946    1.524   1_455 S
C197   H1297   1.110   1_455 S
C198   H550    1.110   .     S
C198   H551    1.108   .     S
C198   C945    1.524   .     S
C198   H1300   1.110   .     S
C199   H554    1.111   .     S
C199   H555    1.114   .     S
C199   O635    1.421   .     S
C199   C200    1.537   .     S
C200   H557    1.109   .     S
C200   C202    1.523   .     S
C200   H556    1.112   .     S
C201   C206    1.400   .     A
C201   Cl291   1.775   .     S
C202   H559    1.109   .     S
C202   H558    1.111   .     S
C202   H560    1.110   .     S
C203   Cl292   1.775   .     S
C204   O719    1.383   .     S
C205   Cl293   1.776   .     S
C206   Cl294   1.779   .     S
C207   Cl295   1.774   .     S
C208   Cl296   1.771   .     S
C208   C213    1.401   1_556 S
C209   Cl282   1.775   .     S
C209   C212    1.402   1_554 S
C210   Cl283   1.777   .     S
C210   C216    1.405   1_556 S
C211   Cl284   1.772   .     S
C211   C214    1.397   1_554 S
C212   Cl285   1.772   .     S
C212   C209    1.402   1_556 S
C213   Cl286   1.776   .     S
C213   C208    1.401   1_554 S
C214   Cl287   1.776   .     S
C214   C211    1.397   1_556 S
C215   O720    1.386   .     S
C215   C1609   1.397   1_545 S
C216   Cl288   1.772   .     S
C216   C210    1.405   1_554 S
C217   O678    1.281   .     A
C217   O2218   1.286   .     S
C218   O689    1.279   .     A
C218   C1609   1.447   1_545 S
C218   O2130   1.278   1_545 S
C219   O700    1.277   .     A
C219   C827    1.449   1_455 S
C219   O1384   1.277   1_455 S
C220   O711    1.282   .     A
C220   O1385   1.283   .     S
C221   O638    1.282   .     S
C221   O642    1.286   .     S
C222   O643    1.279   .     A
C222   O639    1.281   .     S
C223   O644    1.278   .     A
C223   O640    1.279   .     A
C224   O641    1.283   .     A
C224   O646    1.280   .     A
C225   O675    1.276   .     A
C225   O647    1.283   .     A
C226   C278    1.409   .     A
C226   O721    1.389   .     S
C227   O648    1.282   .     A
C227   O676    1.284   .     A
C228   O649    1.286   .     A
C228   O673    1.282   .     A
C229   O674    1.283   .     A
C229   O650    1.283   .     A
C230   O680    1.279   .     A
C230   O651    1.282   .     A
C231   O652    1.284   .     A
C231   O681    1.285   .     A
C232   O677    1.280   .     A
C232   O653    1.283   .     A
C233   O679    1.279   .     A
C233   O654    1.282   .     A
C234   O655    1.284   .     A
C234   O666    1.284   .     A
C235   O657    1.282   .     A
C235   O668    1.284   .     A
C236   O664    1.280   .     A
C236   O658    1.281   .     A
C237   C279    1.412   .     A
C237   O723    1.384   .     S
C237   C838    1.402   1_455 S
C238   O665    1.282   .     A
C238   O659    1.286   .     A
C239   O660    1.281   .     A
C239   O671    1.282   .     A
C240   O661    1.282   .     A
C240   O672    1.279   .     A
C241   O669    1.282   .     A
C241   O662    1.280   .     A
C242   O663    1.287   .     A
C242   O670    1.282   .     A
C243   O682    1.384   .     S
C243   C260    1.395   .     A
C244   C258    1.393   .     A
C244   O683    1.386   .     S
C245   C257    1.397   .     A
C245   O684    1.386   .     S
C246   O685    1.384   .     S
C246   C256    1.392   .     A
C247   O686    1.383   .     S
C247   C255    1.394   .     A
C248   C280    1.412   .     A
C248   O724    1.384   .     S
C248   C1597   1.398   1_545 S
C249   C254    1.393   .     A
C249   O687    1.386   .     S
C250   C253    1.395   .     A
C250   O688    1.387   .     S
C251   O690    1.384   .     S
C251   C252    1.390   .     A
C252   O691    1.384   .     S
C253   O692    1.389   .     S
C254   O693    1.384   .     S
C255   O694    1.386   .     S
C256   O695    1.385   .     S
C257   O696    1.383   .     S
C258   O697    1.385   .     S
C259   O725    1.386   .     S
C260   O698    1.386   .     S
C261   C277    1.391   .     A
C261   O699    1.384   .     S
C262   O701    1.384   .     S
C262   C276    1.394   .     A
C263   C275    1.393   .     A
C263   O702    1.387   .     S
C264   C274    1.391   .     A
C264   O703    1.383   .     S
C265   C273    1.392   .     A
C265   O704    1.384   .     S
C266   O705    1.384   .     S
C266   C272    1.391   .     A
C267   O706    1.387   .     S
C267   C271    1.394   .     A
C268   O707    1.384   .     S
C268   C269    1.394   .     A
C269   O708    1.385   .     S
C270   O726    1.389   .     S
C271   O709    1.383   .     S
C272   O710    1.384   .     S
C273   O712    1.386   .     S
C274   O713    1.381   .     S
C275   O714    1.384   .     S
C276   O715    1.384   .     S
C277   O716    1.386   .     S
C279   C784    1.414   1_455 S
C280   C1533   1.417   1_545 S
H507   C1676   1.119   1_545 S
H510   C1677   1.111   1_545 S
H511   C1678   1.111   1_545 S
H515   C931    1.117   1_455 S
H517   C932    1.109   1_455 S
H519   C1540   1.112   1_545 S
H522   C933    1.110   .     S
H542   C1554   1.112   1_545 S
H547   C944    1.118   .     S
H549   C945    1.110   .     S
H552   C946    1.110   1_455 S
H577   C813    1.110   1_455 S
H593   C1568   1.110   .     S
H605   C825    1.111   1_455 S
H624   C1581   1.109   1_545 S
O633   Zn733   1.946   .     S
O633   Zn736   1.954   .     S
O633   Zn744   1.951   .     S
O633   Zn2236  1.951   1_545 S
O634   Zn735   1.944   .     S
O634   C1714   1.278   .     S
O636   Zn738   1.943   .     S
O636   C967    1.277   .     S
O637   Zn737   1.943   .     S
O637   C968    1.283   1_455 S
O638   Zn747   1.946   .     S
O639   Zn746   1.946   .     S
O640   Zn741   1.946   .     S
O641   Zn733   1.946   .     S
O642   Zn743   1.944   .     S
O643   Zn742   1.944   .     S
O644   Zn745   1.943   .     S
O645   Zn745   1.951   .     S
O645   Zn741   1.946   .     S
O645   Zn739   1.951   .     S
O645   Zn2231  1.954   1_545 S
O646   Zn744   1.943   .     S
O647   Zn736   1.937   .     S
O648   Zn735   1.937   .     S
O649   Zn738   1.947   .     S
O650   Zn737   1.947   .     S
O651   Zn740   1.939   .     S
O652   Zn739   1.939   .     S
O653   Zn734   1.947   .     S
O654   Zn748   1.947   .     S
O655   Zn735   1.946   .     S
O656   Zn742   1.954   .     S
O656   Zn1486  1.951   1_455 S
O656   Zn734   1.946   .     S
O656   Zn746   1.951   .     S
O657   Zn736   1.946   .     S
O658   Zn748   1.941   .     S
O659   Zn734   1.941   .     S
O660   Zn739   1.945   .     S
O661   Zn740   1.945   .     S
O662   Zn737   1.939   .     S
O663   Zn738   1.939   .     S
O664   Zn1491  1.937   .     S
O665   Zn742   1.937   .     S
O666   Zn2241  1.947   .     S
O667   Zn1496  1.946   1_455 S
O667   Zn747   1.951   .     S
O667   Zn743   1.954   .     S
O667   Zn737   1.951   .     S
O668   Zn744   1.947   .     S
O669   Zn747   1.939   .     S
O670   Zn1494  1.939   .     S
O671   Zn741   1.947   .     S
O672   Zn2229  1.947   .     S
O673   Zn1490  1.946   .     S
O674   Zn743   1.946   .     S
O675   Zn733   1.941   .     S
O676   Zn2237  1.941   .     S
O677   Zn746   1.945   .     S
O678   Zn740   1.946   .     S
O679   Zn1495  1.945   .     S
O680   Zn2240  1.939   .     S
O681   Zn745   1.939   .     S
O689   Zn739   1.946   .     S
O700   Zn734   1.946   .     S
O711   Zn748   1.946   .     S
O717   C898    1.414   1_455 S
O720   C1656   1.418   1_545 S
O721   C911    1.420   .     S
O722   Zn736   1.944   .     S
O722   C1713   1.286   1_545 S
O725   C1669   1.418   .     S
Zn733  O2168   1.947   1_545 S
Zn735  O2141   1.954   .     S
Zn738  O1404   1.951   .     S
Zn740  O2129   1.951   .     S
Zn741  O2172   1.941   1_545 S
Zn742  O1421   1.946   1_455 S
Zn743  O1412   1.937   1_455 S
Zn744  O2176   1.939   1_545 S
Zn745  O2162   1.947   1_545 S
Zn746  O1418   1.939   1_455 S
Zn747  O1427   1.945   1_455 S
Zn748  O1415   1.946   .     S
C749   O1465   1.384   .     S
C749   C752    1.414   .     A
C750   C762    1.408   .     A
C750   O1475   1.384   .     S
C750   C2379   1.400   .     S
C751   C1007   1.412   .     A
C751   C786    1.429   .     A
C751   C949    1.423   .     A
C752   C951    1.421   .     A
C753   C784    1.417   .     A
C753   C860    1.410   .     A
C753   C953    1.413   .     A
C754   C952    1.410   .     A
C754   C954    1.411   .     A
C754   C785    1.417   .     A
C755   C955    1.423   .     A
C755   C963    1.412   .     A
C755   C2282   1.430   1_545 S
C756   C783    1.414   .     A
C756   C956    1.417   .     A
C756   C2283   1.420   .     S
C757   C794    1.415   .     A
C757   C788    1.416   .     A
C757   C957    1.414   .     A
C758   C789    1.414   .     A
C758   C958    1.411   .     A
C758   C805    1.412   .     A
C759   C816    1.408   .     A
C759   C959    1.416   .     A
C759   C42     1.420   1_655 S
C760   C960    1.418   .     A
C760   C1018   1.415   .     A
C760   C787    1.419   .     A
C761   O1476   1.385   .     S
C761   C763    1.409   .     A
C761   C146    1.402   1_655 S
C762   C961    1.412   .     A
C762   C2284   1.414   .     S
C763   C962    1.412   .     A
C763   C41     1.418   1_655 S
C764   C964    1.423   .     A
C764   C772    1.417   .     A
C764   C790    1.426   .     A
C765   C1008   1.416   .     A
C765   C1010   1.410   .     A
C765   C980    1.465   .     S
C766   C1009   1.409   .     A
C766   C1006   1.412   .     A
C766   C981    1.461   .     S
C767   C1005   1.407   .     A
C767   C1012   1.399   .     A
C767   C973    1.451   .     S
C768   C975    1.463   .     S
C768   C1004   1.415   .     A
C768   C1011   1.417   .     A
C769   C1014   1.411   .     A
C769   C1003   1.415   .     A
C769   C976    1.466   .     S
C770   C1013   1.409   .     A
C770   C977    1.461   .     S
C770   C1002   1.409   .     A
C771   C1001   1.412   .     A
C771   C1016   1.401   .     A
C771   C978    1.451   .     S
C772   C905    1.402   .     A
C772   O1477   1.385   .     S
C773   C1015   1.417   .     A
C773   C979    1.463   .     S
C773   C1000   1.415   .     A
C774   C989    1.453   .     S
C774   C999    1.405   .     A
C774   C1019   1.407   .     A
C775   C990    1.465   .     S
C775   C1017   1.411   .     A
C775   C998    1.419   .     A
C776   C1021   1.415   .     A
C776   C982    1.466   .     S
C776   C997    1.415   .     A
C777   C995    1.409   .     A
C777   C983    1.462   .     S
C777   C1020   1.410   .     A
C778   C1023   1.406   .     A
C778   C994    1.406   .     A
C778   C984    1.453   .     S
C779   C986    1.464   .     S
C779   C1022   1.411   .     A
C779   C993    1.417   .     A
C780   C1025   1.415   .     A
C780   C992    1.416   .     A
C780   C987    1.465   .     S
C781   C1024   1.407   .     A
C781   C988    1.461   .     S
C781   C991    1.410   .     A
C782   C784    1.405   .     A
C782   C1026   1.420   .     A
C782   C4      1.424   1_655 S
C783   O1478   1.389   .     S
C783   C2368   1.397   .     S
C784   C279    1.414   1_655 S
C785   C786    1.410   .     A
C785   C2524   1.417   .     S
C786   C2251   1.430   .     S
C787   C2252   1.420   1_545 S
C787   C788    1.404   1_556 S
C788   C2258   1.414   1_545 S
C788   C787    1.404   1_554 S
C789   C790    1.406   1_556 S
C790   C789    1.406   1_554 S
C791   H1045   1.115   .     S
C791   C792    1.527   .     S
C791   H1156   1.116   .     S
C791   O1430   1.413   .     S
C792   H1315   1.111   .     S
C792   C2289   1.525   .     S
C792   H2763   1.112   .     S
C793   H1337   1.109   .     S
C793   H1348   1.110   .     S
C793   H1326   1.111   .     S
C793   C2288   1.525   1_545 S
C794   C883    1.405   .     A
C794   O1479   1.390   .     S
C795   H1370   1.117   .     S
C795   H1359   1.110   .     S
C795   O1431   1.419   .     S
C795   C796    1.529   .     S
C796   H1046   1.111   .     S
C796   C797    1.523   .     S
C796   H1057   1.108   .     S
C797   H1090   1.111   .     S
C797   H1079   1.110   .     S
C797   H1068   1.108   .     S
C798   H1101   1.112   .     S
C798   C799    1.530   .     S
C798   O1432   1.419   .     S
C798   H1112   1.117   .     S
C799   C800    1.526   .     S
C799   H1134   1.109   .     S
C799   H1123   1.112   .     S
C800   H1168   1.110   .     S
C800   H1157   1.109   .     S
C800   H1145   1.111   .     S
C801   O1433   1.413   .     S
C801   C802    1.527   .     S
C801   H1190   1.114   .     S
C801   H1179   1.114   .     S
C802   H1212   1.112   .     S
C802   H1201   1.109   .     S
C802   C803    1.526   .     S
C803   H1245   1.111   .     S
C803   H1234   1.111   .     S
C803   H1223   1.111   .     S
C804   H1256   1.116   .     S
C804   O1434   1.412   .     S
C804   H1268   1.115   .     S
C804   C2302   1.527   1_545 S
C805   O1480   1.384   .     S
C805   C894    1.401   .     A
C806   C807    1.526   .     S
C806   H1279   1.111   .     S
C806   C2300   1.527   .     S
C806   H2786   1.112   .     S
C807   H1301   1.111   .     S
C807   H1310   1.110   .     S
C807   H1309   1.108   .     S
C808   H1311   1.109   .     S
C808   H1312   1.117   .     S
C808   C809    1.529   .     S
C808   O1435   1.419   .     S
C809   H1313   1.111   .     S
C809   C810    1.523   .     S
C809   H1314   1.108   .     S
C810   H1317   1.110   .     S
C810   H1318   1.111   .     S
C810   H1316   1.108   .     S
C811   H1320   1.117   .     S
C811   O1436   1.420   .     S
C811   H1319   1.111   .     S
C811   C812    1.528   .     S
C812   H1321   1.111   .     S
C812   H1322   1.108   .     S
C812   C813    1.527   .     S
C813   H1323   1.111   .     S
C813   H1324   1.111   .     S
C813   H577    1.110   1_655 S
C814   H1328   1.113   .     S
C814   C815    1.526   .     S
C814   H1327   1.114   .     S
C814   O1438   1.413   .     S
C815   H1329   1.108   .     S
C815   H1330   1.112   .     S
C815   C817    1.526   .     S
C816   O1383   1.389   .     S
C816   C157    1.393   1_655 S
C817   H1331   1.111   .     S
C817   H1332   1.111   .     S
C817   H1333   1.111   .     S
C818   O1439   1.419   .     S
C818   H1335   1.118   .     S
C818   C819    1.528   .     S
C818   H1334   1.110   .     S
C819   H1336   1.111   .     S
C819   C820    1.528   .     S
C819   H1338   1.110   .     S
C820   H1339   1.111   .     S
C820   H1340   1.109   .     S
C820   H2837   1.110   1_545 S
C821   O1440   1.419   .     S
C821   C822    1.523   .     S
C821   H1342   1.110   .     S
C821   H1343   1.113   .     S
C822   H1344   1.111   .     S
C822   H1345   1.110   .     S
C822   C823    1.526   .     S
C823   H1349   1.111   .     S
C823   H1346   1.111   .     S
C823   H1347   1.110   .     S
C824   H1351   1.115   .     S
C824   O1441   1.412   .     S
C824   H1350   1.115   .     S
C825   C826    1.526   .     S
C825   H1352   1.111   .     S
C825   C76     1.527   1_655 S
C825   H605    1.111   1_655 S
C826   H1356   1.109   .     S
C826   H1354   1.110   .     S
C826   H1355   1.109   .     S
C827   C974    1.393   .     A
C827   C1      1.399   1_655 S
C827   C219    1.449   1_655 S
C828   H1357   1.111   .     S
C828   O1442   1.419   .     S
C828   H1358   1.118   .     S
C828   C829    1.535   .     S
C829   H1361   1.108   .     S
C829   C830    1.524   .     S
C829   H1360   1.111   .     S
C830   H1362   1.109   .     S
C830   H1363   1.110   .     S
C830   H1364   1.111   .     S
C831   H1365   1.110   .     S
C831   C832    1.529   .     S
C831   O1443   1.419   .     S
C831   H1366   1.117   .     S
C832   H1367   1.111   .     S
C832   H1368   1.107   .     S
C832   C833    1.527   .     S
C833   H1369   1.111   .     S
C833   H1371   1.109   .     S
C833   H2868   1.109   .     S
C834   H1373   1.115   .     S
C834   O1444   1.411   .     S
C834   C835    1.528   .     S
C834   H1374   1.115   .     S
C835   H1376   1.112   .     S
C835   C836    1.525   .     S
C835   H1375   1.109   .     S
C836   H1377   1.111   .     S
C836   H1379   1.111   .     S
C836   H1378   1.111   .     S
C837   H1047   1.118   .     S
C837   O1445   1.417   .     S
C837   C839    1.530   .     S
C837   H1380   1.112   .     S
C838   C968    1.465   .     S
C838   C860    1.402   .     A
C838   C237    1.402   1_655 S
C839   H1048   1.111   .     S
C839   H1049   1.111   .     S
C839   C92     1.526   1_655 S
C840   H1052   1.111   .     S
C840   H1051   1.110   .     S
C840   H1050   1.111   .     S
C841   O1446   1.419   .     S
C841   H1054   1.116   .     S
C841   C842    1.530   .     S
C841   H1053   1.111   .     S
C842   H1056   1.109   .     S
C842   C843    1.523   .     S
C842   H1055   1.111   .     S
C843   H1059   1.110   .     S
C843   H1058   1.108   .     S
C843   H1060   1.111   .     S
C844   O1447   1.413   .     S
C844   H1062   1.115   .     S
C844   C845    1.527   .     S
C844   H1061   1.115   .     S
C845   C846    1.526   .     S
C845   H1064   1.111   .     S
C845   H1063   1.111   .     S
C846   H1065   1.111   .     S
C846   H1066   1.109   .     S
C846   H1067   1.110   .     S
C847   O1449   1.419   .     S
C847   H1070   1.113   .     S
C847   C848    1.530   .     S
C847   H1069   1.115   .     S
C848   H1071   1.109   .     S
C848   H1072   1.112   .     S
C848   C850    1.524   .     S
C849   C952    1.400   .     A
C849   C965    1.462   .     S
C849   C2492   1.398   .     S
C850   H1075   1.108   .     S
C850   H1073   1.107   .     S
C850   H1074   1.110   .     S
C851   H1077   1.117   .     S
C851   O1450   1.420   .     S
C851   H1076   1.111   .     S
C851   C852    1.529   .     S
C852   C853    1.528   .     S
C852   H1078   1.111   .     S
C852   H1080   1.108   .     S
C853   H1082   1.109   .     S
C853   H1081   1.111   .     S
C853   H1083   1.110   .     S
C854   C855    1.528   .     S
C854   O1451   1.415   .     S
C854   H1085   1.116   .     S
C854   H1084   1.113   .     S
C855   H1086   1.111   .     S
C855   C856    1.521   .     S
C855   H1087   1.112   .     S
C856   H1089   1.110   .     S
C856   H1091   1.108   .     S
C856   H1088   1.111   .     S
C857   H1093   1.115   .     S
C857   H1092   1.115   .     S
C857   O1452   1.412   .     S
C857   C858    1.527   .     S
C858   C859    1.526   .     S
C858   H1094   1.111   .     S
C858   H1095   1.111   .     S
C859   H1096   1.111   .     S
C859   H1098   1.110   .     S
C859   H1097   1.109   .     S
C860   O1466   1.385   .     S
C861   C1007   1.397   .     A
C861   C2459   1.397   .     S
C861   C2462   1.447   .     S
C862   C863    1.527   .     S
C862   O1453   1.418   .     S
C862   H1100   1.116   .     S
C862   H1099   1.114   .     S
C863   C864    1.522   .     S
C863   H1102   1.109   .     S
C863   H1103   1.111   .     S
C864   H1105   1.109   .     S
C864   H1104   1.105   .     S
C864   H1106   1.108   .     S
C865   O1454   1.419   .     S
C865   H1107   1.111   .     S
C865   C866    1.529   .     S
C865   H1108   1.117   .     S
C866   H1109   1.111   .     S
C866   H1110   1.108   .     S
C866   C867    1.528   .     S
C867   H1111   1.111   .     S
C867   H1114   1.110   .     S
C867   H1113   1.110   .     S
C868   O1455   1.412   .     S
C868   H1115   1.116   .     S
C868   C869    1.527   .     S
C868   H1116   1.114   .     S
C869   H1117   1.109   .     S
C869   C870    1.525   .     S
C869   H1118   1.111   .     S
C870   H1119   1.111   .     S
C870   H1120   1.111   .     S
C870   H1121   1.111   .     S
C871   O1456   1.419   .     S
C871   C873    1.528   .     S
C871   H1124   1.116   .     S
C871   H1122   1.110   .     S
C872   C1018   1.398   .     A
C872   C971    1.452   .     S
C872   C2279   1.397   1_545 S
C873   H1126   1.111   .     S
C873   H1125   1.110   .     S
C873   C874    1.527   .     S
C874   H1128   1.110   .     S
C874   H1129   1.109   .     S
C874   H1127   1.110   .     S
C875   H1130   1.116   .     S
C875   H1131   1.115   .     S
C875   C876    1.528   .     S
C875   O1457   1.413   .     S
C876   C877    1.526   .     S
C876   H1133   1.112   .     S
C876   H1132   1.109   .     S
C877   H1136   1.111   .     S
C877   H1137   1.111   .     S
C877   H1135   1.111   .     S
C878   C879    1.531   .     S
C878   O1458   1.416   .     S
C878   H1139   1.118   .     S
C878   H1138   1.112   .     S
C879   H1141   1.111   .     S
C879   C880    1.526   .     S
C879   H1140   1.110   .     S
C880   H1144   1.111   .     S
C880   H1143   1.109   .     S
C880   H1142   1.111   .     S
C881   H1147   1.117   .     S
C881   O1460   1.419   .     S
C881   H1146   1.110   .     S
C881   C882    1.529   .     S
C882   H1148   1.111   .     S
C882   H1149   1.109   .     S
C882   C884    1.523   .     S
C883   C972    1.462   .     S
C883   C2246   1.400   1_545 S
C884   H1151   1.110   .     S
C884   H1150   1.109   .     S
C884   H1152   1.111   .     S
C885   H1154   1.117   .     S
C885   H1153   1.103   .     S
C885   O1461   1.418   .     S
C885   C886    1.535   .     S
C886   H1158   1.110   .     S
C886   H1155   1.112   .     S
C886   C887    1.527   .     S
C887   H1160   1.107   .     S
C887   H1161   1.109   .     S
C887   H1159   1.111   .     S
C888   C889    1.527   .     S
C888   H1163   1.115   .     S
C888   H1162   1.114   .     S
C888   O1462   1.412   .     S
C889   H1165   1.112   .     S
C889   H1164   1.109   .     S
C889   C890    1.526   .     S
C890   H1166   1.111   .     S
C890   H1169   1.111   .     S
C890   H1167   1.111   .     S
C891   O1463   1.414   .     S
C891   H1171   1.116   .     S
C891   C892    1.528   .     S
C891   H1170   1.115   .     S
C892   C893    1.528   .     S
C892   H1172   1.112   .     S
C892   H1173   1.112   .     S
C893   H1175   1.109   .     S
C893   H1174   1.110   .     S
C893   H1176   1.108   .     S
C894   C969    1.464   .     S
C895   H1177   1.110   .     S
C895   O1464   1.419   .     S
C895   C896    1.529   .     S
C895   H1178   1.117   .     S
C896   H1181   1.109   .     S
C896   C897    1.524   .     S
C896   H1180   1.111   .     S
C897   H1183   1.111   .     S
C897   H1182   1.109   .     S
C897   H1184   1.111   .     S
C898   H1186   1.116   .     S
C898   H1185   1.113   .     S
C898   C151    1.529   1_655 S
C898   O717    1.414   1_655 S
C899   H1187   1.112   .     S
C899   H1188   1.112   .     S
C900   H1192   1.111   .     S
C900   H1189   1.111   .     S
C900   H1191   1.110   .     S
C900   C151    1.527   1_655 S
C901   O1466   1.419   .     S
C901   H1193   1.111   .     S
C901   H1194   1.118   .     S
C901   C902    1.527   .     S
C902   H1196   1.110   .     S
C902   C903    1.524   .     S
C902   H1195   1.106   .     S
C903   H1197   1.110   .     S
C903   H1199   1.111   .     S
C903   H1198   1.107   .     S
C904   H1202   1.114   .     S
C904   C906    1.524   .     S
C904   O1467   1.415   .     S
C904   H1200   1.114   .     S
C905   C970    1.451   .     S
C906   H1203   1.111   .     S
C906   C907    1.525   .     S
C906   H1204   1.110   .     S
C907   H1206   1.110   .     S
C907   H1207   1.111   .     S
C907   H1205   1.111   .     S
C908   H1209   1.116   .     S
C908   H1208   1.112   .     S
C908   C2405   1.530   .     S
C908   O2964   1.418   .     S
C909   H1210   1.112   .     S
C909   H1211   1.112   .     S
C909   C2404   1.530   1_545 S
C909   C2406   1.527   1_545 S
C910   H1215   1.111   .     S
C910   H1213   1.111   .     S
C910   H1214   1.110   .     S
C910   C2405   1.527   .     S
C911   H1217   1.114   .     S
C911   C912    1.536   .     S
C911   H1216   1.111   .     S
C912   H1219   1.111   .     S
C912   C913    1.524   .     S
C912   H1218   1.112   .     S
C913   H1222   1.110   .     S
C913   H1220   1.111   .     S
C913   H1221   1.108   .     S
C914   H1224   1.111   .     S
C914   O1471   1.419   .     S
C914   C915    1.528   .     S
C914   H1225   1.118   .     S
C915   H1226   1.105   .     S
C915   C917    1.524   .     S
C915   H1227   1.110   .     S
C916   C1026   1.416   .     A
C916   Cl1029  1.774   .     S
C916   C953    1.399   .     A
C917   H1228   1.110   .     S
C917   H1229   1.108   .     S
C917   H1230   1.110   .     S
C918   H1232   1.115   .     S
C918   H1231   1.112   .     S
C918   C919    1.523   .     S
C918   O1472   1.416   .     S
C919   H1233   1.110   .     S
C919   C920    1.523   .     S
C919   H1235   1.111   .     S
C920   H1238   1.111   .     S
C920   H1236   1.111   .     S
C920   H1237   1.107   .     S
C921   H1239   1.112   .     S
C921   H1240   1.116   .     S
C921   C2418   1.530   1_545 S
C921   O2969   1.418   1_545 S
C922   H1242   1.112   .     S
C922   H1241   1.112   .     S
C922   C2417   1.530   .     S
C922   C2419   1.526   .     S
C923   H1246   1.111   .     S
C923   H1243   1.111   .     S
C923   H1244   1.110   .     S
C923   C2418   1.526   1_545 S
C924   H1248   1.113   .     S
C924   H1247   1.111   .     S
C924   C925    1.535   .     S
C924   O1474   1.421   .     S
C925   H1249   1.111   .     S
C925   C926    1.527   .     S
C925   H1250   1.110   .     S
C926   H1251   1.111   .     S
C926   H1253   1.110   .     S
C926   H1252   1.109   .     S
C927   C951    1.405   .     A
C927   C1027   1.413   .     A
C927   Cl1037  1.776   .     S
C928   C929    1.526   .     S
C928   O1475   1.419   .     S
C928   H1254   1.111   .     S
C928   H2751   1.119   .     S
C929   H1257   1.106   .     S
C929   C930    1.524   .     S
C929   H2754   1.111   .     S
C930   H1261   1.111   .     S
C930   H1260   1.107   .     S
C930   H2755   1.111   .     S
C931   O1476   1.419   .     S
C931   H1262   1.111   .     S
C931   C932    1.527   .     S
C931   H515    1.117   1_655 S
C932   H1264   1.106   .     S
C932   C185    1.523   1_655 S
C932   H517    1.109   1_655 S
C933   H1266   1.110   .     S
C933   H1269   1.107   .     S
C934   H1271   1.112   .     S
C934   H1272   1.116   .     S
C934   O1477   1.417   .     S
C934   C935    1.529   .     S
C935   H1273   1.112   .     S
C935   C936    1.526   .     S
C935   H1274   1.112   .     S
C936   H1275   1.111   .     S
C936   H1277   1.111   .     S
C936   H1276   1.110   .     S
C937   H1280   1.113   .     S
C937   C939    1.535   .     S
C937   H1278   1.111   .     S
C937   O1478   1.421   .     S
C938   C1028   1.409   .     A
C938   C955    1.400   .     A
C938   Cl1038  1.778   .     S
C939   H1282   1.111   .     S
C939   C940    1.528   .     S
C939   H1281   1.111   .     S
C940   H1283   1.111   .     S
C940   H1284   1.108   .     S
C940   H1285   1.110   .     S
C941   O1479   1.421   .     S
C941   H1287   1.113   .     S
C941   H1286   1.109   .     S
C941   C2438   1.533   1_545 S
C942   C943    1.524   .     S
C942   H1288   1.111   .     S
C942   H1289   1.111   .     S
C942   C2437   1.533   .     S
C943   H1293   1.111   .     S
C943   H1292   1.107   .     S
C943   H1291   1.111   .     S
C944   O1480   1.419   .     S
C944   C945    1.527   .     S
C944   H1294   1.111   .     S
C945   H1296   1.105   .     S
C946   H1298   1.110   .     S
C946   H1299   1.108   .     S
C946   C197    1.524   1_655 S
C946   H552    1.110   1_655 S
C947   H1302   1.111   .     S
C947   H1303   1.114   .     S
C947   O1383   1.421   .     S
C947   C948    1.537   .     S
C948   H1305   1.109   .     S
C948   C950    1.523   .     S
C948   H1304   1.112   .     S
C949   C954    1.400   .     A
C949   Cl1039  1.775   .     S
C950   H1307   1.109   .     S
C950   H1306   1.111   .     S
C950   H1308   1.110   .     S
C951   Cl1040  1.775   .     S
C952   O1467   1.383   .     S
C953   Cl1041  1.776   .     S
C954   Cl1042  1.779   .     S
C955   Cl1043  1.774   .     S
C956   Cl1044  1.771   .     S
C956   C961    1.401   1_556 S
C957   Cl1030  1.775   .     S
C957   C960    1.402   1_554 S
C958   Cl1031  1.777   .     S
C958   C964    1.405   1_556 S
C959   Cl1032  1.772   .     S
C959   C962    1.397   1_554 S
C960   Cl1033  1.772   .     S
C960   C957    1.402   1_556 S
C961   Cl1034  1.776   .     S
C961   C956    1.401   1_554 S
C962   Cl1035  1.776   .     S
C962   C959    1.397   1_556 S
C963   O1468   1.386   .     S
C963   C2357   1.397   1_545 S
C964   Cl1036  1.772   .     S
C964   C958    1.405   1_554 S
C965   O1426   1.281   .     A
C965   O2966   1.286   .     S
C966   O1437   1.279   .     A
C966   C2357   1.447   1_545 S
C966   O2878   1.278   1_545 S
C967   O1448   1.277   .     A
C968   O1459   1.282   .     A
C968   O637    1.283   1_655 S
C969   O1386   1.282   .     S
C969   O1390   1.286   .     S
C970   O1391   1.279   .     A
C970   O1387   1.281   .     S
C971   O1392   1.278   .     A
C971   O1388   1.279   .     A
C972   O1389   1.283   .     A
C972   O1394   1.280   .     A
C973   O1423   1.276   .     A
C973   O1395   1.283   .     A
C974   C1026   1.409   .     A
C974   O1469   1.389   .     S
C975   O1396   1.282   .     A
C975   O1424   1.284   .     A
C976   O1397   1.286   .     A
C976   O1421   1.282   .     A
C977   O1422   1.283   .     A
C977   O1398   1.283   .     A
C978   O1428   1.279   .     A
C978   O1399   1.282   .     A
C979   O1400   1.284   .     A
C979   O1429   1.285   .     A
C980   O1425   1.280   .     A
C980   O1401   1.283   .     A
C981   O1427   1.279   .     A
C981   O1402   1.282   .     A
C982   O1403   1.284   .     A
C982   O1414   1.284   .     A
C983   O1405   1.282   .     A
C983   O1416   1.284   .     A
C984   O1412   1.280   .     A
C984   O1406   1.281   .     A
C985   C1027   1.412   .     A
C985   O1471   1.384   .     S
C986   O1413   1.282   .     A
C986   O1407   1.286   .     A
C987   O1408   1.281   .     A
C987   O1419   1.282   .     A
C988   O1409   1.282   .     A
C988   O1420   1.279   .     A
C989   O1417   1.282   .     A
C989   O1410   1.280   .     A
C990   O1411   1.287   .     A
C990   O1418   1.282   .     A
C991   O1430   1.384   .     S
C991   C1008   1.395   .     A
C992   C1006   1.393   .     A
C992   O1431   1.386   .     S
C993   C1005   1.397   .     A
C993   O1432   1.386   .     S
C994   O1433   1.384   .     S
C994   C1004   1.392   .     A
C995   O1434   1.383   .     S
C995   C1003   1.394   .     A
C996   C1028   1.412   .     A
C996   O1472   1.384   .     S
C996   C2345   1.398   1_545 S
C997   C1002   1.393   .     A
C997   O1435   1.386   .     S
C998   C1001   1.395   .     A
C998   O1436   1.387   .     S
C999   O1438   1.384   .     S
C999   C1000   1.390   .     A
C1000  O1439   1.384   .     S
C1001  O1440   1.389   .     S
C1002  O1441   1.384   .     S
C1003  O1442   1.386   .     S
C1004  O1443   1.385   .     S
C1005  O1444   1.383   .     S
C1006  O1445   1.385   .     S
C1007  O1473   1.386   .     S
C1008  O1446   1.386   .     S
C1009  C1025   1.391   .     A
C1009  O1447   1.384   .     S
C1010  O1449   1.384   .     S
C1010  C1024   1.394   .     A
C1011  C1023   1.393   .     A
C1011  O1450   1.387   .     S
C1012  C1022   1.391   .     A
C1012  O1451   1.383   .     S
C1013  C1021   1.392   .     A
C1013  O1452   1.384   .     S
C1014  O1453   1.384   .     S
C1014  C1020   1.391   .     A
C1015  O1454   1.387   .     S
C1015  C1019   1.394   .     A
C1016  O1455   1.384   .     S
C1016  C1017   1.394   .     A
C1017  O1456   1.385   .     S
C1018  O1474   1.389   .     S
C1019  O1457   1.383   .     S
C1020  O1458   1.384   .     S
C1021  O1460   1.386   .     S
C1022  O1461   1.381   .     S
C1023  O1462   1.384   .     S
C1024  O1463   1.384   .     S
C1025  O1464   1.386   .     S
C1028  C2281   1.417   1_545 S
H1255  C2424   1.119   1_545 S
H1258  C2425   1.111   1_545 S
H1259  C2426   1.111   1_545 S
H1267  C2288   1.112   1_545 S
H1270  C185    1.110   1_655 S
H1290  C2302   1.112   1_545 S
H1295  C196    1.118   1_655 S
H1297  C197    1.110   1_655 S
H1341  C2316   1.110   .     S
H1372  C2329   1.109   1_545 S
O1381  Zn1481  1.946   .     S
O1381  Zn1484  1.954   .     S
O1381  Zn1492  1.951   .     S
O1381  Zn2984  1.951   1_545 S
O1382  Zn1483  1.944   .     S
O1382  C2462   1.278   .     S
O1384  Zn1486  1.943   .     S
O1384  C219    1.277   1_655 S
O1385  Zn1485  1.943   .     S
O1386  Zn1495  1.946   .     S
O1387  Zn1494  1.946   .     S
O1388  Zn1489  1.946   .     S
O1389  Zn1481  1.946   .     S
O1390  Zn1491  1.944   .     S
O1391  Zn1490  1.944   .     S
O1392  Zn1493  1.943   .     S
O1393  Zn1493  1.951   .     S
O1393  Zn1489  1.946   .     S
O1393  Zn1487  1.951   .     S
O1393  Zn2979  1.954   1_545 S
O1394  Zn1492  1.943   .     S
O1395  Zn1484  1.937   .     S
O1396  Zn1483  1.937   .     S
O1397  Zn1486  1.947   .     S
O1398  Zn1485  1.947   .     S
O1399  Zn1488  1.939   .     S
O1400  Zn1487  1.939   .     S
O1401  Zn1482  1.947   .     S
O1402  Zn1496  1.947   .     S
O1403  Zn1483  1.946   .     S
O1404  Zn1490  1.954   .     S
O1404  Zn1482  1.946   .     S
O1404  Zn1494  1.951   .     S
O1405  Zn1484  1.946   .     S
O1406  Zn1496  1.941   .     S
O1407  Zn1482  1.941   .     S
O1408  Zn1487  1.945   .     S
O1409  Zn1488  1.945   .     S
O1410  Zn1485  1.939   .     S
O1411  Zn1486  1.939   .     S
O1412  Zn743   1.937   1_655 S
O1413  Zn1490  1.937   .     S
O1414  Zn2989  1.947   .     S
O1415  Zn1495  1.951   .     S
O1415  Zn1491  1.954   .     S
O1415  Zn1485  1.951   .     S
O1416  Zn1492  1.947   .     S
O1417  Zn1495  1.939   .     S
O1418  Zn746   1.939   1_655 S
O1419  Zn1489  1.947   .     S
O1420  Zn2977  1.947   .     S
O1421  Zn742   1.946   1_655 S
O1422  Zn1491  1.946   .     S
O1423  Zn1481  1.941   .     S
O1424  Zn2985  1.941   .     S
O1425  Zn1494  1.945   .     S
O1426  Zn1488  1.946   .     S
O1427  Zn747   1.945   1_655 S
O1428  Zn2988  1.939   .     S
O1429  Zn1493  1.939   .     S
O1437  Zn1487  1.946   .     S
O1448  Zn1482  1.946   .     S
O1459  Zn1496  1.946   .     S
O1468  C2404   1.418   1_545 S
O1469  C163    1.420   1_655 S
O1470  Zn1484  1.944   .     S
O1470  C2461   1.286   1_545 S
O1473  C2417   1.418   .     S
Zn1481 O2916   1.947   1_545 S
Zn1483 O2889   1.954   .     S
Zn1486 O656    1.951   1_655 S
Zn1488 O2877   1.951   .     S
Zn1489 O2920   1.941   1_545 S
Zn1492 O2924   1.939   1_545 S
Zn1493 O2910   1.947   1_545 S
Zn1496 O667    1.946   1_655 S
C1497  O2213   1.384   .     S
C1497  C1500   1.414   .     A
C1497  C2323   1.399   1_455 S
C1498  C1510   1.408   .     A
C1498  O2223   1.384   .     S
C1498  C135    1.400   1_565 S
C1499  C1755   1.412   .     A
C1499  C1534   1.429   .     A
C1499  C1697   1.423   .     A
C1500  C1699   1.421   .     A
C1500  C2278   1.424   1_455 S
C1501  C1532   1.417   .     A
C1501  C1608   1.410   .     A
C1501  C1701   1.413   .     A
C1502  C1700   1.410   .     A
C1502  C1702   1.411   .     A
C1502  C1533   1.417   .     A
C1503  C1703   1.423   .     A
C1503  C1711   1.412   .     A
C1504  C1531   1.414   .     A
C1504  C1704   1.417   .     A
C1504  C39     1.420   1_565 S
C1505  C1542   1.415   .     A
C1505  C1536   1.416   .     A
C1505  C1705   1.414   .     A
C1506  C1537   1.414   .     A
C1506  C1706   1.411   .     A
C1506  C1553   1.412   .     A
C1507  C1564   1.408   .     A
C1507  C1707   1.416   .     A
C1507  C2286   1.420   .     S
C1508  C1708   1.418   .     A
C1508  C1766   1.415   .     A
C1508  C1535   1.419   .     A
C1509  O2224   1.385   .     S
C1509  C1511   1.409   .     A
C1509  C2390   1.402   .     S
C1510  C1709   1.412   .     A
C1510  C40     1.414   1_565 S
C1511  C1710   1.412   .     A
C1511  C2285   1.418   .     S
C1512  C1712   1.423   .     A
C1512  C1520   1.417   .     A
C1512  C1538   1.426   .     A
C1513  C1756   1.416   .     A
C1513  C1758   1.410   .     A
C1513  C1728   1.465   .     S
C1514  C1757   1.409   .     A
C1514  C1754   1.412   .     A
C1514  C1729   1.461   .     S
C1515  C1753   1.407   .     A
C1515  C1760   1.399   .     A
C1515  C1721   1.451   .     S
C1516  C1723   1.463   .     S
C1516  C1752   1.415   .     A
C1516  C1759   1.417   .     A
C1517  C1762   1.411   .     A
C1517  C1751   1.415   .     A
C1517  C1724   1.466   .     S
C1518  C1761   1.409   .     A
C1518  C1725   1.461   .     S
C1518  C1750   1.409   .     A
C1519  C1749   1.412   .     A
C1519  C1764   1.401   .     A
C1519  C1726   1.451   .     S
C1520  C1653   1.402   .     A
C1520  O2225   1.385   .     S
C1521  C1763   1.417   .     A
C1521  C1727   1.463   .     S
C1521  C1748   1.415   .     A
C1522  C1737   1.453   .     S
C1522  C1747   1.405   .     A
C1522  C1767   1.407   .     A
C1523  C1738   1.465   .     S
C1523  C1765   1.411   .     A
C1523  C1746   1.419   .     A
C1524  C1769   1.415   .     A
C1524  C1730   1.466   .     S
C1524  C1745   1.415   .     A
C1525  C1743   1.409   .     A
C1525  C1731   1.462   .     S
C1525  C1768   1.410   .     A
C1526  C1771   1.406   .     A
C1526  C1742   1.406   .     A
C1526  C1732   1.453   .     S
C1527  C1734   1.464   .     S
C1527  C1770   1.411   .     A
C1527  C1741   1.417   .     A
C1528  C1773   1.415   .     A
C1528  C1740   1.416   .     A
C1528  C1735   1.465   .     S
C1529  C1772   1.407   .     A
C1529  C1736   1.461   .     S
C1529  C1739   1.410   .     A
C1530  C1532   1.405   .     A
C1530  C1774   1.420   .     A
C1530  C2248   1.424   .     S
C1531  O2226   1.389   .     S
C1531  C124    1.397   1_565 S
C1532  C2523   1.414   .     S
C1533  C1534   1.410   .     A
C1533  C280    1.417   1_565 S
C1534  C7      1.430   1_565 S
C1535  C1536   1.404   1_556 S
C1536  C1535   1.404   1_554 S
C1537  C2259   1.418   1_455 S
C1537  C1538   1.406   1_556 S
C1538  C2255   1.420   1_455 S
C1538  C1537   1.406   1_554 S
C1539  H1793   1.115   .     S
C1539  C1540   1.527   .     S
C1539  H1904   1.116   .     S
C1539  O2178   1.413   .     S
C1540  H2063   1.111   .     S
C1540  C45     1.525   1_565 S
C1540  H519    1.112   1_565 S
C1541  H2085   1.109   .     S
C1541  H2096   1.110   .     S
C1541  H2074   1.111   .     S
C1542  C1631   1.405   .     A
C1542  O2227   1.390   .     S
C1543  H2118   1.117   .     S
C1543  H2107   1.110   .     S
C1543  O2179   1.419   .     S
C1543  C1544   1.529   .     S
C1544  H1794   1.111   .     S
C1544  C1545   1.523   .     S
C1544  H1805   1.108   .     S
C1545  H1838   1.111   .     S
C1545  H1827   1.110   .     S
C1545  H1816   1.108   .     S
C1546  H1849   1.112   .     S
C1546  C1547   1.530   .     S
C1546  O2180   1.419   .     S
C1546  H1860   1.117   .     S
C1547  C1548   1.526   .     S
C1547  H1882   1.109   .     S
C1547  H1871   1.112   .     S
C1548  H1916   1.110   .     S
C1548  H1905   1.109   .     S
C1548  H1893   1.111   .     S
C1549  O2181   1.413   .     S
C1549  C1550   1.527   .     S
C1549  H1938   1.114   .     S
C1549  H1927   1.114   .     S
C1550  H1960   1.112   .     S
C1550  H1949   1.109   .     S
C1550  C1551   1.526   .     S
C1551  H1993   1.111   .     S
C1551  H1982   1.111   .     S
C1551  H1971   1.111   .     S
C1552  H2004   1.116   .     S
C1552  O2182   1.412   .     S
C1552  H2016   1.115   .     S
C1553  O2228   1.384   .     S
C1553  C1642   1.401   .     A
C1554  C1555   1.526   .     S
C1554  H2027   1.111   .     S
C1554  C56     1.527   1_565 S
C1554  H542    1.112   1_565 S
C1555  H2049   1.111   .     S
C1555  H2058   1.110   .     S
C1555  H2057   1.108   .     S
C1556  H2059   1.109   .     S
C1556  H2060   1.117   .     S
C1556  C1557   1.529   .     S
C1556  O2183   1.419   .     S
C1557  H2061   1.111   .     S
C1557  C1558   1.523   .     S
C1557  H2062   1.108   .     S
C1558  H2065   1.110   .     S
C1558  H2066   1.111   .     S
C1558  H2064   1.108   .     S
C1559  H2068   1.117   .     S
C1559  O2184   1.420   .     S
C1559  H2067   1.111   .     S
C1559  C1560   1.528   .     S
C1560  H2069   1.111   .     S
C1560  H2070   1.108   .     S
C1560  C1561   1.527   .     S
C1561  H2071   1.111   .     S
C1561  H2072   1.111   .     S
C1561  H2821   1.110   .     S
C1562  H2076   1.113   .     S
C1562  C1563   1.526   .     S
C1562  H2075   1.114   .     S
C1562  O2186   1.413   .     S
C1563  H2077   1.108   .     S
C1563  H2078   1.112   .     S
C1563  C1565   1.526   .     S
C1564  O2131   1.389   .     S
C1564  C2401   1.393   .     S
C1565  H2079   1.111   .     S
C1565  H2080   1.111   .     S
C1565  H2081   1.111   .     S
C1566  O2187   1.419   .     S
C1566  H2083   1.118   .     S
C1566  C1567   1.528   .     S
C1566  H2082   1.110   .     S
C1567  H2084   1.111   .     S
C1567  C1568   1.528   .     S
C1567  H2086   1.110   .     S
C1568  H2087   1.111   .     S
C1568  H2088   1.109   .     S
C1569  O2188   1.419   .     S
C1569  C1570   1.523   .     S
C1569  H2090   1.110   .     S
C1569  H2091   1.113   .     S
C1570  H2092   1.111   .     S
C1570  H2093   1.110   .     S
C1570  C1571   1.526   .     S
C1571  H2097   1.111   .     S
C1571  H2094   1.111   .     S
C1571  H2095   1.110   .     S
C1572  H2099   1.115   .     S
C1572  O2189   1.412   .     S
C1572  H2098   1.115   .     S
C1572  C2321   1.527   1_455 S
C1573  C1574   1.526   .     S
C1573  H2100   1.111   .     S
C1573  C2320   1.527   .     S
C1573  H2849   1.111   .     S
C1574  H2104   1.109   .     S
C1574  H2102   1.110   .     S
C1574  H2103   1.109   .     S
C1575  C1722   1.393   .     A
C1575  C2245   1.399   .     S
C1575  C2463   1.449   .     S
C1576  H2105   1.111   .     S
C1576  O2190   1.419   .     S
C1576  H2106   1.118   .     S
C1576  C1577   1.535   .     S
C1577  H2109   1.108   .     S
C1577  C1578   1.524   .     S
C1577  H2108   1.111   .     S
C1578  H2110   1.109   .     S
C1578  H2111   1.110   .     S
C1578  H2112   1.111   .     S
C1579  H2113   1.110   .     S
C1579  C1580   1.529   .     S
C1579  O2191   1.419   .     S
C1579  H2114   1.117   .     S
C1580  H2115   1.111   .     S
C1580  H2116   1.107   .     S
C1580  C1581   1.527   .     S
C1581  H2117   1.111   .     S
C1581  H2119   1.109   .     S
C1581  H624    1.109   1_565 S
C1582  H2121   1.115   .     S
C1582  O2192   1.411   .     S
C1582  C1583   1.528   .     S
C1582  H2122   1.115   .     S
C1583  H2124   1.112   .     S
C1583  C1584   1.525   .     S
C1583  H2123   1.109   .     S
C1584  H2125   1.111   .     S
C1584  H2127   1.111   .     S
C1584  H2126   1.111   .     S
C1585  H1795   1.118   .     S
C1585  O2193   1.417   .     S
C1585  C1587   1.530   .     S
C1585  H2128   1.112   .     S
C1586  C1716   1.465   .     S
C1586  C1608   1.402   .     A
C1586  C2481   1.402   .     S
C1587  H1796   1.111   .     S
C1587  H1797   1.111   .     S
C1587  C2336   1.526   .     S
C1588  H1800   1.111   .     S
C1588  H1799   1.110   .     S
C1588  H1798   1.111   .     S
C1588  C2335   1.526   1_455 S
C1589  O2194   1.419   .     S
C1589  H1802   1.116   .     S
C1589  C1590   1.530   .     S
C1589  H1801   1.111   .     S
C1590  H1804   1.109   .     S
C1590  C1591   1.523   .     S
C1590  H1803   1.111   .     S
C1591  H1807   1.110   .     S
C1591  H1806   1.108   .     S
C1591  H1808   1.111   .     S
C1592  O2195   1.413   .     S
C1592  H1810   1.115   .     S
C1592  C1593   1.527   .     S
C1592  H1809   1.115   .     S
C1593  C1594   1.526   .     S
C1593  H1812   1.111   .     S
C1593  H1811   1.111   .     S
C1594  H1813   1.111   .     S
C1594  H1814   1.109   .     S
C1594  H1815   1.110   .     S
C1595  O2197   1.419   .     S
C1595  H1818   1.113   .     S
C1595  C1596   1.530   .     S
C1595  H1817   1.115   .     S
C1596  H1819   1.109   .     S
C1596  H1820   1.112   .     S
C1596  C1598   1.524   .     S
C1597  C1700   1.400   .     A
C1597  C1713   1.462   .     S
C1597  C248    1.398   1_565 S
C1598  H1823   1.108   .     S
C1598  H1821   1.107   .     S
C1598  H1822   1.110   .     S
C1599  H1825   1.117   .     S
C1599  O2198   1.420   .     S
C1599  H1824   1.111   .     S
C1599  C1600   1.529   .     S
C1600  C1601   1.528   .     S
C1600  H1826   1.111   .     S
C1600  H1828   1.108   .     S
C1601  H1830   1.109   .     S
C1601  H1829   1.111   .     S
C1601  H1831   1.110   .     S
C1602  C1603   1.528   .     S
C1602  O2199   1.415   .     S
C1602  H1833   1.116   .     S
C1602  H1832   1.113   .     S
C1603  H1834   1.111   .     S
C1603  C1604   1.521   .     S
C1603  H1835   1.112   .     S
C1604  H1837   1.110   .     S
C1604  H1839   1.108   .     S
C1604  H1836   1.111   .     S
C1605  H1841   1.115   .     S
C1605  H1840   1.115   .     S
C1605  O2200   1.412   .     S
C1605  C1606   1.527   .     S
C1606  C1607   1.526   .     S
C1606  H1842   1.111   .     S
C1606  H1843   1.111   .     S
C1607  H1844   1.111   .     S
C1607  H1846   1.110   .     S
C1607  H1845   1.109   .     S
C1608  O2214   1.385   .     S
C1609  C1755   1.397   .     A
C1609  C215    1.397   1_565 S
C1609  C218    1.447   1_565 S
C1610  C1611   1.527   .     S
C1610  O2201   1.418   .     S
C1610  H1848   1.116   .     S
C1610  H1847   1.114   .     S
C1611  C1612   1.522   .     S
C1611  H1850   1.109   .     S
C1611  H1851   1.111   .     S
C1612  H1853   1.109   .     S
C1612  H1852   1.105   .     S
C1612  H1854   1.108   .     S
C1613  O2202   1.419   .     S
C1613  H1855   1.111   .     S
C1613  C1614   1.529   .     S
C1613  H1856   1.117   .     S
C1614  H1857   1.111   .     S
C1614  H1858   1.108   .     S
C1614  C1615   1.528   .     S
C1615  H1859   1.111   .     S
C1615  H1862   1.110   .     S
C1615  H1861   1.110   .     S
C1616  O2203   1.412   .     S
C1616  H1863   1.116   .     S
C1616  C1617   1.527   .     S
C1616  H1864   1.114   .     S
C1617  H1865   1.109   .     S
C1617  C1618   1.525   .     S
C1617  H1866   1.111   .     S
C1618  H1867   1.111   .     S
C1618  H1868   1.111   .     S
C1618  H1869   1.111   .     S
C1619  O2204   1.419   .     S
C1619  C1621   1.528   .     S
C1619  H1872   1.116   .     S
C1619  H1870   1.110   .     S
C1620  C1766   1.398   .     A
C1620  C1719   1.452   .     S
C1621  H1874   1.111   .     S
C1621  H1873   1.110   .     S
C1621  C1622   1.527   .     S
C1622  H1876   1.110   .     S
C1622  H1877   1.109   .     S
C1622  H1875   1.110   .     S
C1623  H1878   1.116   .     S
C1623  H1879   1.115   .     S
C1623  C1624   1.528   .     S
C1623  O2205   1.413   .     S
C1624  C1625   1.526   .     S
C1624  H1881   1.112   .     S
C1624  H1880   1.109   .     S
C1625  H1884   1.111   .     S
C1625  H1885   1.111   .     S
C1625  H1883   1.111   .     S
C1626  C1627   1.531   .     S
C1626  O2206   1.416   .     S
C1626  H1887   1.118   .     S
C1626  H1886   1.112   .     S
C1627  H1889   1.111   .     S
C1627  C1628   1.526   .     S
C1627  H1888   1.110   .     S
C1628  H1892   1.111   .     S
C1628  H1891   1.109   .     S
C1628  H1890   1.111   .     S
C1629  H1895   1.117   .     S
C1629  O2208   1.419   .     S
C1629  H1894   1.110   .     S
C1629  C1630   1.529   .     S
C1630  H1896   1.111   .     S
C1630  H1897   1.109   .     S
C1630  C1632   1.523   .     S
C1631  C1720   1.462   .     S
C1632  H1899   1.110   .     S
C1632  H1898   1.109   .     S
C1632  H1900   1.111   .     S
C1633  H1902   1.117   .     S
C1633  H1901   1.103   .     S
C1633  O2209   1.418   .     S
C1633  C1634   1.535   .     S
C1634  H1906   1.110   .     S
C1634  H1903   1.112   .     S
C1634  C1635   1.527   .     S
C1635  H1908   1.107   .     S
C1635  H1909   1.109   .     S
C1635  H1907   1.111   .     S
C1636  C1637   1.527   .     S
C1636  H1911   1.115   .     S
C1636  H1910   1.114   .     S
C1636  O2210   1.412   .     S
C1637  H1913   1.112   .     S
C1637  H1912   1.109   .     S
C1637  C1638   1.526   .     S
C1638  H1914   1.111   .     S
C1638  H1917   1.111   .     S
C1638  H1915   1.111   .     S
C1639  O2211   1.414   .     S
C1639  H1919   1.116   .     S
C1639  C1640   1.528   .     S
C1639  H1918   1.115   .     S
C1640  C1641   1.528   .     S
C1640  H1920   1.112   .     S
C1640  H1921   1.112   .     S
C1641  H1923   1.109   .     S
C1641  H1922   1.110   .     S
C1641  H1924   1.108   .     S
C1642  C1717   1.464   .     S
C1642  C2257   1.402   1_455 S
C1643  H1925   1.110   .     S
C1643  O2212   1.419   .     S
C1643  C1644   1.529   .     S
C1643  H1926   1.117   .     S
C1644  H1929   1.109   .     S
C1644  C1645   1.524   .     S
C1644  H1928   1.111   .     S
C1645  H1931   1.111   .     S
C1645  H1930   1.109   .     S
C1645  H1932   1.111   .     S
C1646  H1934   1.116   .     S
C1646  H1933   1.113   .     S
C1646  C2395   1.529   .     S
C1646  O2961   1.414   .     S
C1647  H1935   1.112   .     S
C1647  H1936   1.112   .     S
C1647  C2394   1.529   1_455 S
C1647  C2396   1.527   1_455 S
C1648  H1940   1.111   .     S
C1648  H1937   1.111   .     S
C1648  H1939   1.110   .     S
C1648  C2395   1.527   .     S
C1649  O2214   1.419   .     S
C1649  H1941   1.111   .     S
C1649  H1942   1.118   .     S
C1649  C1650   1.527   .     S
C1650  H1944   1.110   .     S
C1650  C1651   1.524   .     S
C1650  H1943   1.106   .     S
C1651  H1945   1.110   .     S
C1651  H1947   1.111   .     S
C1651  H1946   1.107   .     S
C1652  H1950   1.114   .     S
C1652  C1654   1.524   .     S
C1652  O2215   1.415   .     S
C1652  H1948   1.114   .     S
C1653  C1718   1.451   .     S
C1653  C2312   1.393   1_455 S
C1654  H1951   1.111   .     S
C1654  C1655   1.525   .     S
C1654  H1952   1.110   .     S
C1655  H1954   1.110   .     S
C1655  H1955   1.111   .     S
C1655  H1953   1.111   .     S
C1656  H1957   1.116   .     S
C1656  H1956   1.112   .     S
C1656  C161    1.530   1_565 S
C1656  O720    1.418   1_565 S
C1657  H1958   1.112   .     S
C1657  H1959   1.112   .     S
C1658  H1963   1.111   .     S
C1658  H1961   1.111   .     S
C1658  H1962   1.110   .     S
C1658  C161    1.527   1_565 S
C1659  H1965   1.114   .     S
C1659  C1660   1.536   .     S
C1659  H1964   1.111   .     S
C1659  O2965   1.420   1_455 S
C1660  H1967   1.111   .     S
C1660  C1661   1.524   .     S
C1660  H1966   1.112   .     S
C1661  H1970   1.110   .     S
C1661  H1968   1.111   .     S
C1661  H1969   1.108   .     S
C1662  H1972   1.111   .     S
C1662  O2219   1.419   .     S
C1662  C1663   1.528   .     S
C1662  H1973   1.118   .     S
C1663  H1974   1.105   .     S
C1663  C1665   1.524   .     S
C1663  H1975   1.110   .     S
C1664  C1774   1.416   .     A
C1664  Cl1777  1.774   .     S
C1664  C1701   1.399   .     A
C1665  H1976   1.110   .     S
C1665  H1977   1.108   .     S
C1665  H1978   1.110   .     S
C1666  H1980   1.115   .     S
C1666  H1979   1.112   .     S
C1666  C1667   1.523   .     S
C1666  O2220   1.416   .     S
C1667  H1981   1.110   .     S
C1667  C1668   1.523   .     S
C1667  H1983   1.111   .     S
C1668  H1986   1.111   .     S
C1668  H1984   1.111   .     S
C1668  H1985   1.107   .     S
C1669  H1987   1.112   .     S
C1669  H1988   1.116   .     S
C1670  H1990   1.112   .     S
C1670  H1989   1.112   .     S
C1670  C173    1.530   1_565 S
C1670  C175    1.526   1_565 S
C1671  H1994   1.111   .     S
C1671  H1991   1.111   .     S
C1671  H1992   1.110   .     S
C1672  H1996   1.113   .     S
C1672  H1995   1.111   .     S
C1672  C1673   1.535   .     S
C1672  O2222   1.421   .     S
C1673  H1997   1.111   .     S
C1673  C1674   1.527   .     S
C1673  H1998   1.110   .     S
C1674  H1999   1.111   .     S
C1674  H2001   1.110   .     S
C1674  H2000   1.109   .     S
C1675  C1699   1.405   .     A
C1675  C1775   1.413   .     A
C1675  Cl1785  1.776   .     S
C1676  C1677   1.526   .     S
C1676  O2223   1.419   .     S
C1676  H2002   1.111   .     S
C1676  H507    1.119   1_565 S
C1677  H2005   1.106   .     S
C1677  C1678   1.524   .     S
C1677  H510    1.111   1_565 S
C1678  H2009   1.111   .     S
C1678  H2008   1.107   .     S
C1678  H511    1.111   1_565 S
C1679  O2224   1.419   .     S
C1679  H2010   1.111   .     S
C1679  C1680   1.527   .     S
C1679  H2759   1.117   .     S
C1680  H2012   1.106   .     S
C1680  C2429   1.523   .     S
C1680  H2761   1.109   .     S
C1681  H2014   1.110   .     S
C1681  H2017   1.107   .     S
C1681  C2428   1.523   1_455 S
C1681  H2766   1.110   1_455 S
C1682  H2019   1.112   .     S
C1682  H2020   1.116   .     S
C1682  O2225   1.417   .     S
C1682  C1683   1.529   .     S
C1683  H2021   1.112   .     S
C1683  C1684   1.526   .     S
C1683  H2022   1.112   .     S
C1684  H2023   1.111   .     S
C1684  H2025   1.111   .     S
C1684  H2024   1.110   .     S
C1685  H2028   1.113   .     S
C1685  C1687   1.535   .     S
C1685  H2026   1.111   .     S
C1685  O2226   1.421   .     S
C1686  C1776   1.409   .     A
C1686  C1703   1.400   .     A
C1686  Cl1786  1.778   .     S
C1687  H2030   1.111   .     S
C1687  C1688   1.528   .     S
C1687  H2029   1.111   .     S
C1688  H2031   1.111   .     S
C1688  H2032   1.108   .     S
C1688  H2033   1.110   .     S
C1689  O2227   1.421   .     S
C1689  H2035   1.113   .     S
C1689  H2034   1.109   .     S
C1690  C1691   1.524   .     S
C1690  H2036   1.111   .     S
C1690  H2037   1.111   .     S
C1690  C193    1.533   1_565 S
C1691  H2041   1.111   .     S
C1691  H2040   1.107   .     S
C1691  H2039   1.111   .     S
C1692  O2228   1.419   .     S
C1692  C1693   1.527   .     S
C1692  H2042   1.111   .     S
C1692  H2791   1.118   1_455 S
C1693  H2044   1.105   .     S
C1693  C2442   1.524   1_455 S
C1693  H2793   1.110   1_455 S
C1694  H2046   1.110   .     S
C1694  H2047   1.108   .     S
C1694  C2441   1.524   .     S
C1694  H2796   1.110   .     S
C1695  H2050   1.111   .     S
C1695  H2051   1.114   .     S
C1695  O2131   1.421   .     S
C1695  C1696   1.537   .     S
C1696  H2053   1.109   .     S
C1696  C1698   1.523   .     S
C1696  H2052   1.112   .     S
C1697  C1702   1.400   .     A
C1697  Cl1787  1.775   .     S
C1698  H2055   1.109   .     S
C1698  H2054   1.111   .     S
C1698  H2056   1.110   .     S
C1699  Cl1788  1.775   .     S
C1700  O2215   1.383   .     S
C1701  Cl1789  1.776   .     S
C1702  Cl1790  1.779   .     S
C1703  Cl1791  1.774   .     S
C1704  Cl1792  1.771   .     S
C1704  C1709   1.401   1_556 S
C1705  Cl1778  1.775   .     S
C1705  C1708   1.402   1_554 S
C1706  Cl1779  1.777   .     S
C1706  C1712   1.405   1_556 S
C1707  Cl1780  1.772   .     S
C1707  C1710   1.397   1_554 S
C1708  Cl1781  1.772   .     S
C1708  C1705   1.402   1_556 S
C1709  Cl1782  1.776   .     S
C1709  C1704   1.401   1_554 S
C1710  Cl1783  1.776   .     S
C1710  C1707   1.397   1_556 S
C1711  O2216   1.386   .     S
C1712  Cl1784  1.772   .     S
C1712  C1706   1.405   1_554 S
C1713  O2174   1.281   .     A
C1713  O722    1.286   1_565 S
C1714  O2185   1.279   .     A
C1715  O2196   1.277   .     A
C1715  C2323   1.449   1_455 S
C1715  O2880   1.277   1_455 S
C1716  O2207   1.282   .     A
C1716  O2881   1.283   .     S
C1717  O2134   1.282   .     S
C1717  O2138   1.286   .     S
C1718  O2139   1.279   .     A
C1718  O2135   1.281   .     S
C1719  O2140   1.278   .     A
C1719  O2136   1.279   .     A
C1720  O2137   1.283   .     A
C1720  O2142   1.280   .     A
C1721  O2171   1.276   .     A
C1721  O2143   1.283   .     A
C1722  C1774   1.409   .     A
C1722  O2217   1.389   .     S
C1723  O2144   1.282   .     A
C1723  O2172   1.284   .     A
C1724  O2145   1.286   .     A
C1724  O2169   1.282   .     A
C1725  O2170   1.283   .     A
C1725  O2146   1.283   .     A
C1726  O2176   1.279   .     A
C1726  O2147   1.282   .     A
C1727  O2148   1.284   .     A
C1727  O2177   1.285   .     A
C1728  O2173   1.280   .     A
C1728  O2149   1.283   .     A
C1729  O2175   1.279   .     A
C1729  O2150   1.282   .     A
C1730  O2151   1.284   .     A
C1730  O2162   1.284   .     A
C1731  O2153   1.282   .     A
C1731  O2164   1.284   .     A
C1732  O2160   1.280   .     A
C1732  O2154   1.281   .     A
C1733  C1775   1.412   .     A
C1733  O2219   1.384   .     S
C1733  C2334   1.402   1_455 S
C1734  O2161   1.282   .     A
C1734  O2155   1.286   .     A
C1735  O2156   1.281   .     A
C1735  O2167   1.282   .     A
C1736  O2157   1.282   .     A
C1736  O2168   1.279   .     A
C1737  O2165   1.282   .     A
C1737  O2158   1.280   .     A
C1738  O2159   1.287   .     A
C1738  O2166   1.282   .     A
C1739  O2178   1.384   .     S
C1739  C1756   1.395   .     A
C1740  C1754   1.393   .     A
C1740  O2179   1.386   .     S
C1741  C1753   1.397   .     A
C1741  O2180   1.386   .     S
C1742  O2181   1.384   .     S
C1742  C1752   1.392   .     A
C1743  O2182   1.383   .     S
C1743  C1751   1.394   .     A
C1744  C1776   1.412   .     A
C1744  O2220   1.384   .     S
C1745  C1750   1.393   .     A
C1745  O2183   1.386   .     S
C1746  C1749   1.395   .     A
C1746  O2184   1.387   .     S
C1747  O2186   1.384   .     S
C1747  C1748   1.390   .     A
C1748  O2187   1.384   .     S
C1749  O2188   1.389   .     S
C1750  O2189   1.384   .     S
C1751  O2190   1.386   .     S
C1752  O2191   1.385   .     S
C1753  O2192   1.383   .     S
C1754  O2193   1.385   .     S
C1755  O2221   1.386   .     S
C1756  O2194   1.386   .     S
C1757  C1773   1.391   .     A
C1757  O2195   1.384   .     S
C1758  O2197   1.384   .     S
C1758  C1772   1.394   .     A
C1759  C1771   1.393   .     A
C1759  O2198   1.387   .     S
C1760  C1770   1.391   .     A
C1760  O2199   1.383   .     S
C1761  C1769   1.392   .     A
C1761  O2200   1.384   .     S
C1762  O2201   1.384   .     S
C1762  C1768   1.391   .     A
C1763  O2202   1.387   .     S
C1763  C1767   1.394   .     A
C1764  O2203   1.384   .     S
C1764  C1765   1.394   .     A
C1765  O2204   1.385   .     S
C1766  O2222   1.389   .     S
C1767  O2205   1.383   .     S
C1768  O2206   1.384   .     S
C1769  O2208   1.386   .     S
C1770  O2209   1.381   .     S
C1771  O2210   1.384   .     S
C1772  O2211   1.384   .     S
C1773  O2212   1.386   .     S
C1775  C2280   1.414   1_455 S
H2011  C2427   1.117   1_455 S
H2013  C2428   1.109   1_455 S
H2018  C2429   1.110   .     S
H2043  C2440   1.118   .     S
H2045  C2441   1.110   .     S
H2048  C2442   1.110   1_455 S
H2073  C2309   1.110   1_455 S
H2089  C72     1.110   1_565 S
H2101  C2321   1.111   1_455 S
O2129  Zn2229  1.946   .     S
O2129  Zn2232  1.954   .     S
O2129  Zn2240  1.951   .     S
O2130  Zn2231  1.944   .     S
O2130  C218    1.278   1_565 S
O2132  Zn2234  1.943   .     S
O2132  C2463   1.277   .     S
O2133  Zn2233  1.943   .     S
O2133  C2464   1.283   1_455 S
O2134  Zn2243  1.946   .     S
O2135  Zn2242  1.946   .     S
O2136  Zn2237  1.946   .     S
O2137  Zn2229  1.946   .     S
O2138  Zn2239  1.944   .     S
O2139  Zn2238  1.944   .     S
O2140  Zn2241  1.943   .     S
O2141  Zn2241  1.951   .     S
O2141  Zn2237  1.946   .     S
O2141  Zn2235  1.951   .     S
O2142  Zn2240  1.943   .     S
O2143  Zn2232  1.937   .     S
O2144  Zn2231  1.937   .     S
O2145  Zn2234  1.947   .     S
O2146  Zn2233  1.947   .     S
O2147  Zn2236  1.939   .     S
O2148  Zn2235  1.939   .     S
O2149  Zn2230  1.947   .     S
O2150  Zn2244  1.947   .     S
O2151  Zn2231  1.946   .     S
O2152  Zn2238  1.954   .     S
O2152  Zn2982  1.951   1_455 S
O2152  Zn2230  1.946   .     S
O2152  Zn2242  1.951   .     S
O2153  Zn2232  1.946   .     S
O2154  Zn2244  1.941   .     S
O2155  Zn2230  1.941   .     S
O2156  Zn2235  1.945   .     S
O2157  Zn2236  1.945   .     S
O2158  Zn2233  1.939   .     S
O2159  Zn2234  1.939   .     S
O2160  Zn2987  1.937   .     S
O2161  Zn2238  1.937   .     S
O2162  Zn745   1.947   1_565 S
O2163  Zn2992  1.946   1_455 S
O2163  Zn2243  1.951   .     S
O2163  Zn2239  1.954   .     S
O2163  Zn2233  1.951   .     S
O2164  Zn2240  1.947   .     S
O2165  Zn2243  1.939   .     S
O2166  Zn2990  1.939   .     S
O2167  Zn2237  1.947   .     S
O2168  Zn733   1.947   1_565 S
O2169  Zn2986  1.946   .     S
O2170  Zn2239  1.946   .     S
O2171  Zn2229  1.941   .     S
O2172  Zn741   1.941   1_565 S
O2173  Zn2242  1.945   .     S
O2174  Zn2236  1.946   .     S
O2175  Zn2991  1.945   .     S
O2176  Zn744   1.939   1_565 S
O2177  Zn2241  1.939   .     S
O2185  Zn2235  1.946   .     S
O2196  Zn2230  1.946   .     S
O2207  Zn2244  1.946   .     S
O2213  C2394   1.414   1_455 S
O2217  C2407   1.420   .     S
O2218  Zn2232  1.944   .     S
O2221  C173    1.418   1_565 S
Zn2231 O645    1.954   1_565 S
Zn2234 O2900   1.951   .     S
Zn2236 O633    1.951   1_565 S
Zn2238 O2917   1.946   1_455 S
Zn2239 O2908   1.937   1_455 S
Zn2242 O2914   1.939   1_455 S
Zn2243 O2923   1.945   1_455 S
Zn2244 O2911   1.946   .     S
C2245  O2961   1.384   .     S
C2245  C2248   1.414   .     A
C2246  C2258   1.408   .     A
C2246  O2971   1.384   .     S
C2246  C883    1.400   1_565 S
C2247  C2503   1.412   .     A
C2247  C2282   1.429   .     A
C2247  C2445   1.423   .     A
C2248  C2447   1.421   .     A
C2249  C2280   1.417   .     A
C2249  C2356   1.410   .     A
C2249  C2449   1.413   .     A
C2250  C2448   1.410   .     A
C2250  C2450   1.411   .     A
C2250  C2281   1.417   .     A
C2251  C2451   1.423   .     A
C2251  C2459   1.412   .     A
C2252  C2279   1.414   .     A
C2252  C2452   1.417   .     A
C2252  C787    1.420   1_565 S
C2253  C2290   1.415   .     A
C2253  C2284   1.416   .     A
C2253  C2453   1.414   .     A
C2254  C2285   1.414   .     A
C2254  C2454   1.411   .     A
C2254  C2301   1.412   .     A
C2255  C2312   1.408   .     A
C2255  C2455   1.416   .     A
C2255  C1538   1.420   1_655 S
C2256  C2456   1.418   .     A
C2256  C2514   1.415   .     A
C2256  C2283   1.419   .     A
C2257  O2972   1.385   .     S
C2257  C2259   1.409   .     A
C2257  C1642   1.402   1_655 S
C2258  C2457   1.412   .     A
C2258  C788    1.414   1_565 S
C2259  C2458   1.412   .     A
C2259  C1537   1.418   1_655 S
C2260  C2460   1.423   .     A
C2260  C2268   1.417   .     A
C2260  C2286   1.426   .     A
C2261  C2504   1.416   .     A
C2261  C2506   1.410   .     A
C2261  C2476   1.465   .     S
C2262  C2505   1.409   .     A
C2262  C2502   1.412   .     A
C2262  C2477   1.461   .     S
C2263  C2501   1.407   .     A
C2263  C2508   1.399   .     A
C2263  C2469   1.451   .     S
C2264  C2471   1.463   .     S
C2264  C2500   1.415   .     A
C2264  C2507   1.417   .     A
C2265  C2510   1.411   .     A
C2265  C2499   1.415   .     A
C2265  C2472   1.466   .     S
C2266  C2509   1.409   .     A
C2266  C2473   1.461   .     S
C2266  C2498   1.409   .     A
C2267  C2497   1.412   .     A
C2267  C2512   1.401   .     A
C2267  C2474   1.451   .     S
C2268  C2401   1.402   .     A
C2268  O2973   1.385   .     S
C2269  C2511   1.417   .     A
C2269  C2475   1.463   .     S
C2269  C2496   1.415   .     A
C2270  C2485   1.453   .     S
C2270  C2495   1.405   .     A
C2270  C2515   1.407   .     A
C2271  C2486   1.465   .     S
C2271  C2513   1.411   .     A
C2271  C2494   1.419   .     A
C2272  C2517   1.415   .     A
C2272  C2478   1.466   .     S
C2272  C2493   1.415   .     A
C2273  C2491   1.409   .     A
C2273  C2479   1.462   .     S
C2273  C2516   1.410   .     A
C2274  C2519   1.406   .     A
C2274  C2490   1.406   .     A
C2274  C2480   1.453   .     S
C2275  C2482   1.464   .     S
C2275  C2518   1.411   .     A
C2275  C2489   1.417   .     A
C2276  C2521   1.415   .     A
C2276  C2488   1.416   .     A
C2276  C2483   1.465   .     S
C2277  C2520   1.407   .     A
C2277  C2484   1.461   .     S
C2277  C2487   1.410   .     A
C2278  C2280   1.405   .     A
C2278  C2522   1.420   .     A
C2278  C1500   1.424   1_655 S
C2279  O2974   1.389   .     S
C2279  C872    1.397   1_565 S
C2280  C1775   1.414   1_655 S
C2281  C2282   1.410   .     A
C2281  C1028   1.417   1_565 S
C2282  C755    1.430   1_565 S
C2283  C2284   1.404   1_556 S
C2284  C2283   1.404   1_554 S
C2285  C2286   1.406   1_556 S
C2286  C2285   1.406   1_554 S
C2287  H2541   1.115   .     S
C2287  C2288   1.527   .     S
C2287  H2652   1.116   .     S
C2287  O2926   1.413   .     S
C2288  H2811   1.111   .     S
C2288  C793    1.525   1_565 S
C2288  H1267   1.112   1_565 S
C2289  H2833   1.109   .     S
C2289  H2844   1.110   .     S
C2289  H2822   1.111   .     S
C2290  C2379   1.405   .     A
C2290  O2975   1.390   .     S
C2291  H2866   1.117   .     S
C2291  H2855   1.110   .     S
C2291  O2927   1.419   .     S
C2291  C2292   1.529   .     S
C2292  H2542   1.111   .     S
C2292  C2293   1.523   .     S
C2292  H2553   1.108   .     S
C2293  H2586   1.111   .     S
C2293  H2575   1.110   .     S
C2293  H2564   1.108   .     S
C2294  H2597   1.112   .     S
C2294  C2295   1.530   .     S
C2294  O2928   1.419   .     S
C2294  H2608   1.117   .     S
C2295  C2296   1.526   .     S
C2295  H2630   1.109   .     S
C2295  H2619   1.112   .     S
C2296  H2664   1.110   .     S
C2296  H2653   1.109   .     S
C2296  H2641   1.111   .     S
C2297  O2929   1.413   .     S
C2297  C2298   1.527   .     S
C2297  H2686   1.114   .     S
C2297  H2675   1.114   .     S
C2298  H2708   1.112   .     S
C2298  H2697   1.109   .     S
C2298  C2299   1.526   .     S
C2299  H2741   1.111   .     S
C2299  H2730   1.111   .     S
C2299  H2719   1.111   .     S
C2300  H2752   1.116   .     S
C2300  O2930   1.412   .     S
C2300  H2764   1.115   .     S
C2301  O2976   1.384   .     S
C2301  C2390   1.401   .     A
C2302  C2303   1.526   .     S
C2302  H2775   1.111   .     S
C2302  C804    1.527   1_565 S
C2302  H1290   1.112   1_565 S
C2303  H2797   1.111   .     S
C2303  H2806   1.110   .     S
C2303  H2805   1.108   .     S
C2304  H2807   1.109   .     S
C2304  H2808   1.117   .     S
C2304  C2305   1.529   .     S
C2304  O2931   1.419   .     S
C2305  H2809   1.111   .     S
C2305  C2306   1.523   .     S
C2305  H2810   1.108   .     S
C2306  H2813   1.110   .     S
C2306  H2814   1.111   .     S
C2306  H2812   1.108   .     S
C2307  H2816   1.117   .     S
C2307  O2932   1.420   .     S
C2307  H2815   1.111   .     S
C2307  C2308   1.528   .     S
C2308  H2817   1.111   .     S
C2308  H2818   1.108   .     S
C2308  C2309   1.527   .     S
C2309  H2819   1.111   .     S
C2309  H2820   1.111   .     S
C2309  H2073   1.110   1_655 S
C2310  H2824   1.113   .     S
C2310  C2311   1.526   .     S
C2310  H2823   1.114   .     S
C2310  O2934   1.413   .     S
C2311  H2825   1.108   .     S
C2311  H2826   1.112   .     S
C2311  C2313   1.526   .     S
C2312  O2879   1.389   .     S
C2312  C1653   1.393   1_655 S
C2313  H2827   1.111   .     S
C2313  H2828   1.111   .     S
C2313  H2829   1.111   .     S
C2314  O2935   1.419   .     S
C2314  H2831   1.118   .     S
C2314  C2315   1.528   .     S
C2314  H2830   1.110   .     S
C2315  H2832   1.111   .     S
C2315  C2316   1.528   .     S
C2315  H2834   1.110   .     S
C2316  H2835   1.111   .     S
C2316  H2836   1.109   .     S
C2317  O2936   1.419   .     S
C2317  C2318   1.523   .     S
C2317  H2838   1.110   .     S
C2317  H2839   1.113   .     S
C2318  H2840   1.111   .     S
C2318  H2841   1.110   .     S
C2318  C2319   1.526   .     S
C2319  H2845   1.111   .     S
C2319  H2842   1.111   .     S
C2319  H2843   1.110   .     S
C2320  H2847   1.115   .     S
C2320  O2937   1.412   .     S
C2320  H2846   1.115   .     S
C2321  C2322   1.526   .     S
C2321  H2848   1.111   .     S
C2321  C1572   1.527   1_655 S
C2321  H2101   1.111   1_655 S
C2322  H2852   1.109   .     S
C2322  H2850   1.110   .     S
C2322  H2851   1.109   .     S
C2323  C2470   1.393   .     A
C2323  C1497   1.399   1_655 S
C2323  C1715   1.449   1_655 S
C2324  H2853   1.111   .     S
C2324  O2938   1.419   .     S
C2324  H2854   1.118   .     S
C2324  C2325   1.535   .     S
C2325  H2857   1.108   .     S
C2325  C2326   1.524   .     S
C2325  H2856   1.111   .     S
C2326  H2858   1.109   .     S
C2326  H2859   1.110   .     S
C2326  H2860   1.111   .     S
C2327  H2861   1.110   .     S
C2327  C2328   1.529   .     S
C2327  O2939   1.419   .     S
C2327  H2862   1.117   .     S
C2328  H2863   1.111   .     S
C2328  H2864   1.107   .     S
C2328  C2329   1.527   .     S
C2329  H2865   1.111   .     S
C2329  H2867   1.109   .     S
C2329  H1372   1.109   1_565 S
C2330  H2869   1.115   .     S
C2330  O2940   1.411   .     S
C2330  C2331   1.528   .     S
C2330  H2870   1.115   .     S
C2331  H2872   1.112   .     S
C2331  C2332   1.525   .     S
C2331  H2871   1.109   .     S
C2332  H2873   1.111   .     S
C2332  H2875   1.111   .     S
C2332  H2874   1.111   .     S
C2333  H2543   1.118   .     S
C2333  O2941   1.417   .     S
C2333  C2335   1.530   .     S
C2333  H2876   1.112   .     S
C2334  C2464   1.465   .     S
C2334  C2356   1.402   .     A
C2334  C1733   1.402   1_655 S
C2335  H2544   1.111   .     S
C2335  H2545   1.111   .     S
C2335  C1588   1.526   1_655 S
C2336  H2548   1.111   .     S
C2336  H2547   1.110   .     S
C2336  H2546   1.111   .     S
C2337  O2942   1.419   .     S
C2337  H2550   1.116   .     S
C2337  C2338   1.530   .     S
C2337  H2549   1.111   .     S
C2338  H2552   1.109   .     S
C2338  C2339   1.523   .     S
C2338  H2551   1.111   .     S
C2339  H2555   1.110   .     S
C2339  H2554   1.108   .     S
C2339  H2556   1.111   .     S
C2340  O2943   1.413   .     S
C2340  H2558   1.115   .     S
C2340  C2341   1.527   .     S
C2340  H2557   1.115   .     S
C2341  C2342   1.526   .     S
C2341  H2560   1.111   .     S
C2341  H2559   1.111   .     S
C2342  H2561   1.111   .     S
C2342  H2562   1.109   .     S
C2342  H2563   1.110   .     S
C2343  O2945   1.419   .     S
C2343  H2566   1.113   .     S
C2343  C2344   1.530   .     S
C2343  H2565   1.115   .     S
C2344  H2567   1.109   .     S
C2344  H2568   1.112   .     S
C2344  C2346   1.524   .     S
C2345  C2448   1.400   .     A
C2345  C2461   1.462   .     S
C2345  C996    1.398   1_565 S
C2346  H2571   1.108   .     S
C2346  H2569   1.107   .     S
C2346  H2570   1.110   .     S
C2347  H2573   1.117   .     S
C2347  O2946   1.420   .     S
C2347  H2572   1.111   .     S
C2347  C2348   1.529   .     S
C2348  C2349   1.528   .     S
C2348  H2574   1.111   .     S
C2348  H2576   1.108   .     S
C2349  H2578   1.109   .     S
C2349  H2577   1.111   .     S
C2349  H2579   1.110   .     S
C2350  C2351   1.528   .     S
C2350  O2947   1.415   .     S
C2350  H2581   1.116   .     S
C2350  H2580   1.113   .     S
C2351  H2582   1.111   .     S
C2351  C2352   1.521   .     S
C2351  H2583   1.112   .     S
C2352  H2585   1.110   .     S
C2352  H2587   1.108   .     S
C2352  H2584   1.111   .     S
C2353  H2589   1.115   .     S
C2353  H2588   1.115   .     S
C2353  O2948   1.412   .     S
C2353  C2354   1.527   .     S
C2354  C2355   1.526   .     S
C2354  H2590   1.111   .     S
C2354  H2591   1.111   .     S
C2355  H2592   1.111   .     S
C2355  H2594   1.110   .     S
C2355  H2593   1.109   .     S
C2356  O2962   1.385   .     S
C2357  C2503   1.397   .     A
C2357  C963    1.397   1_565 S
C2357  C966    1.447   1_565 S
C2358  C2359   1.527   .     S
C2358  O2949   1.418   .     S
C2358  H2596   1.116   .     S
C2358  H2595   1.114   .     S
C2359  C2360   1.522   .     S
C2359  H2598   1.109   .     S
C2359  H2599   1.111   .     S
C2360  H2601   1.109   .     S
C2360  H2600   1.105   .     S
C2360  H2602   1.108   .     S
C2361  O2950   1.419   .     S
C2361  H2603   1.111   .     S
C2361  C2362   1.529   .     S
C2361  H2604   1.117   .     S
C2362  H2605   1.111   .     S
C2362  H2606   1.108   .     S
C2362  C2363   1.528   .     S
C2363  H2607   1.111   .     S
C2363  H2610   1.110   .     S
C2363  H2609   1.110   .     S
C2364  O2951   1.412   .     S
C2364  H2611   1.116   .     S
C2364  C2365   1.527   .     S
C2364  H2612   1.114   .     S
C2365  H2613   1.109   .     S
C2365  C2366   1.525   .     S
C2365  H2614   1.111   .     S
C2366  H2615   1.111   .     S
C2366  H2616   1.111   .     S
C2366  H2617   1.111   .     S
C2367  O2952   1.419   .     S
C2367  C2369   1.528   .     S
C2367  H2620   1.116   .     S
C2367  H2618   1.110   .     S
C2368  C2514   1.398   .     A
C2368  C2467   1.452   .     S
C2369  H2622   1.111   .     S
C2369  H2621   1.110   .     S
C2369  C2370   1.527   .     S
C2370  H2624   1.110   .     S
C2370  H2625   1.109   .     S
C2370  H2623   1.110   .     S
C2371  H2626   1.116   .     S
C2371  H2627   1.115   .     S
C2371  C2372   1.528   .     S
C2371  O2953   1.413   .     S
C2372  C2373   1.526   .     S
C2372  H2629   1.112   .     S
C2372  H2628   1.109   .     S
C2373  H2632   1.111   .     S
C2373  H2633   1.111   .     S
C2373  H2631   1.111   .     S
C2374  C2375   1.531   .     S
C2374  O2954   1.416   .     S
C2374  H2635   1.118   .     S
C2374  H2634   1.112   .     S
C2375  H2637   1.111   .     S
C2375  C2376   1.526   .     S
C2375  H2636   1.110   .     S
C2376  H2640   1.111   .     S
C2376  H2639   1.109   .     S
C2376  H2638   1.111   .     S
C2377  H2643   1.117   .     S
C2377  O2956   1.419   .     S
C2377  H2642   1.110   .     S
C2377  C2378   1.529   .     S
C2378  H2644   1.111   .     S
C2378  H2645   1.109   .     S
C2378  C2380   1.523   .     S
C2379  C2468   1.462   .     S
C2380  H2647   1.110   .     S
C2380  H2646   1.109   .     S
C2380  H2648   1.111   .     S
C2381  H2650   1.117   .     S
C2381  H2649   1.103   .     S
C2381  O2957   1.418   .     S
C2381  C2382   1.535   .     S
C2382  H2654   1.110   .     S
C2382  H2651   1.112   .     S
C2382  C2383   1.527   .     S
C2383  H2656   1.107   .     S
C2383  H2657   1.109   .     S
C2383  H2655   1.111   .     S
C2384  C2385   1.527   .     S
C2384  H2659   1.115   .     S
C2384  H2658   1.114   .     S
C2384  O2958   1.412   .     S
C2385  H2661   1.112   .     S
C2385  H2660   1.109   .     S
C2385  C2386   1.526   .     S
C2386  H2662   1.111   .     S
C2386  H2665   1.111   .     S
C2386  H2663   1.111   .     S
C2387  O2959   1.414   .     S
C2387  H2667   1.116   .     S
C2387  C2388   1.528   .     S
C2387  H2666   1.115   .     S
C2388  C2389   1.528   .     S
C2388  H2668   1.112   .     S
C2388  H2669   1.112   .     S
C2389  H2671   1.109   .     S
C2389  H2670   1.110   .     S
C2389  H2672   1.108   .     S
C2390  C2465   1.464   .     S
C2391  H2673   1.110   .     S
C2391  O2960   1.419   .     S
C2391  C2392   1.529   .     S
C2391  H2674   1.117   .     S
C2392  H2677   1.109   .     S
C2392  C2393   1.524   .     S
C2392  H2676   1.111   .     S
C2393  H2679   1.111   .     S
C2393  H2678   1.109   .     S
C2393  H2680   1.111   .     S
C2394  H2682   1.116   .     S
C2394  H2681   1.113   .     S
C2394  C1647   1.529   1_655 S
C2394  O2213   1.414   1_655 S
C2395  H2683   1.112   .     S
C2395  H2684   1.112   .     S
C2396  H2688   1.111   .     S
C2396  H2685   1.111   .     S
C2396  H2687   1.110   .     S
C2396  C1647   1.527   1_655 S
C2397  O2962   1.419   .     S
C2397  H2689   1.111   .     S
C2397  H2690   1.118   .     S
C2397  C2398   1.527   .     S
C2398  H2692   1.110   .     S
C2398  C2399   1.524   .     S
C2398  H2691   1.106   .     S
C2399  H2693   1.110   .     S
C2399  H2695   1.111   .     S
C2399  H2694   1.107   .     S
C2400  H2698   1.114   .     S
C2400  C2402   1.524   .     S
C2400  O2963   1.415   .     S
C2400  H2696   1.114   .     S
C2401  C2466   1.451   .     S
C2402  H2699   1.111   .     S
C2402  C2403   1.525   .     S
C2402  H2700   1.110   .     S
C2403  H2702   1.110   .     S
C2403  H2703   1.111   .     S
C2403  H2701   1.111   .     S
C2404  H2705   1.116   .     S
C2404  H2704   1.112   .     S
C2404  C909    1.530   1_565 S
C2404  O1468   1.418   1_565 S
C2405  H2706   1.112   .     S
C2405  H2707   1.112   .     S
C2406  H2711   1.111   .     S
C2406  H2709   1.111   .     S
C2406  H2710   1.110   .     S
C2406  C909    1.527   1_565 S
C2407  H2713   1.114   .     S
C2407  C2408   1.536   .     S
C2407  H2712   1.111   .     S
C2408  H2715   1.111   .     S
C2408  C2409   1.524   .     S
C2408  H2714   1.112   .     S
C2409  H2718   1.110   .     S
C2409  H2716   1.111   .     S
C2409  H2717   1.108   .     S
C2410  H2720   1.111   .     S
C2410  O2967   1.419   .     S
C2410  C2411   1.528   .     S
C2410  H2721   1.118   .     S
C2411  H2722   1.105   .     S
C2411  C2413   1.524   .     S
C2411  H2723   1.110   .     S
C2412  C2522   1.416   .     A
C2412  Cl2525  1.774   .     S
C2412  C2449   1.399   .     A
C2413  H2724   1.110   .     S
C2413  H2725   1.108   .     S
C2413  H2726   1.110   .     S
C2414  H2728   1.115   .     S
C2414  H2727   1.112   .     S
C2414  C2415   1.523   .     S
C2414  O2968   1.416   .     S
C2415  H2729   1.110   .     S
C2415  C2416   1.523   .     S
C2415  H2731   1.111   .     S
C2416  H2734   1.111   .     S
C2416  H2732   1.111   .     S
C2416  H2733   1.107   .     S
C2417  H2735   1.112   .     S
C2417  H2736   1.116   .     S
C2418  H2738   1.112   .     S
C2418  H2737   1.112   .     S
C2418  C921    1.530   1_565 S
C2418  C923    1.526   1_565 S
C2419  H2742   1.111   .     S
C2419  H2739   1.111   .     S
C2419  H2740   1.110   .     S
C2420  H2744   1.113   .     S
C2420  H2743   1.111   .     S
C2420  C2421   1.535   .     S
C2420  O2970   1.421   .     S
C2421  H2745   1.111   .     S
C2421  C2422   1.527   .     S
C2421  H2746   1.110   .     S
C2422  H2747   1.111   .     S
C2422  H2749   1.110   .     S
C2422  H2748   1.109   .     S
C2423  C2447   1.405   .     A
C2423  C2523   1.413   .     A
C2423  Cl2533  1.776   .     S
C2424  C2425   1.526   .     S
C2424  O2971   1.419   .     S
C2424  H2750   1.111   .     S
C2424  H1255   1.119   1_565 S
C2425  H2753   1.106   .     S
C2425  C2426   1.524   .     S
C2425  H1258   1.111   1_565 S
C2426  H2757   1.111   .     S
C2426  H2756   1.107   .     S
C2426  H1259   1.111   1_565 S
C2427  O2972   1.419   .     S
C2427  H2758   1.111   .     S
C2427  C2428   1.527   .     S
C2427  H2011   1.117   1_655 S
C2428  H2760   1.106   .     S
C2428  C1681   1.523   1_655 S
C2428  H2013   1.109   1_655 S
C2429  H2762   1.110   .     S
C2429  H2765   1.107   .     S
C2430  H2767   1.112   .     S
C2430  H2768   1.116   .     S
C2430  O2973   1.417   .     S
C2430  C2431   1.529   .     S
C2431  H2769   1.112   .     S
C2431  C2432   1.526   .     S
C2431  H2770   1.112   .     S
C2432  H2771   1.111   .     S
C2432  H2773   1.111   .     S
C2432  H2772   1.110   .     S
C2433  H2776   1.113   .     S
C2433  C2435   1.535   .     S
C2433  H2774   1.111   .     S
C2433  O2974   1.421   .     S
C2434  C2524   1.409   .     A
C2434  C2451   1.400   .     A
C2434  Cl2534  1.778   .     S
C2435  H2778   1.111   .     S
C2435  C2436   1.528   .     S
C2435  H2777   1.111   .     S
C2436  H2779   1.111   .     S
C2436  H2780   1.108   .     S
C2436  H2781   1.110   .     S
C2437  O2975   1.421   .     S
C2437  H2783   1.113   .     S
C2437  H2782   1.109   .     S
C2438  C2439   1.524   .     S
C2438  H2784   1.111   .     S
C2438  H2785   1.111   .     S
C2438  C941    1.533   1_565 S
C2439  H2789   1.111   .     S
C2439  H2788   1.107   .     S
C2439  H2787   1.111   .     S
C2440  O2976   1.419   .     S
C2440  C2441   1.527   .     S
C2440  H2790   1.111   .     S
C2441  H2792   1.105   .     S
C2442  H2794   1.110   .     S
C2442  H2795   1.108   .     S
C2442  C1693   1.524   1_655 S
C2442  H2048   1.110   1_655 S
C2443  H2798   1.111   .     S
C2443  H2799   1.114   .     S
C2443  O2879   1.421   .     S
C2443  C2444   1.537   .     S
C2444  H2801   1.109   .     S
C2444  C2446   1.523   .     S
C2444  H2800   1.112   .     S
C2445  C2450   1.400   .     A
C2445  Cl2535  1.775   .     S
C2446  H2803   1.109   .     S
C2446  H2802   1.111   .     S
C2446  H2804   1.110   .     S
C2447  Cl2536  1.775   .     S
C2448  O2963   1.383   .     S
C2449  Cl2537  1.776   .     S
C2450  Cl2538  1.779   .     S
C2451  Cl2539  1.774   .     S
C2452  Cl2540  1.771   .     S
C2452  C2457   1.401   1_556 S
C2453  Cl2526  1.775   .     S
C2453  C2456   1.402   1_554 S
C2454  Cl2527  1.777   .     S
C2454  C2460   1.405   1_556 S
C2455  Cl2528  1.772   .     S
C2455  C2458   1.397   1_554 S
C2456  Cl2529  1.772   .     S
C2456  C2453   1.402   1_556 S
C2457  Cl2530  1.776   .     S
C2457  C2452   1.401   1_554 S
C2458  Cl2531  1.776   .     S
C2458  C2455   1.397   1_556 S
C2459  O2964   1.386   .     S
C2460  Cl2532  1.772   .     S
C2460  C2454   1.405   1_554 S
C2461  O2922   1.281   .     A
C2461  O1470   1.286   1_565 S
C2462  O2933   1.279   .     A
C2463  O2944   1.277   .     A
C2464  O2955   1.282   .     A
C2464  O2133   1.283   1_655 S
C2465  O2882   1.282   .     S
C2465  O2886   1.286   .     S
C2466  O2887   1.279   .     A
C2466  O2883   1.281   .     S
C2467  O2888   1.278   .     A
C2467  O2884   1.279   .     A
C2468  O2885   1.283   .     A
C2468  O2890   1.280   .     A
C2469  O2919   1.276   .     A
C2469  O2891   1.283   .     A
C2470  C2522   1.409   .     A
C2470  O2965   1.389   .     S
C2471  O2892   1.282   .     A
C2471  O2920   1.284   .     A
C2472  O2893   1.286   .     A
C2472  O2917   1.282   .     A
C2473  O2918   1.283   .     A
C2473  O2894   1.283   .     A
C2474  O2924   1.279   .     A
C2474  O2895   1.282   .     A
C2475  O2896   1.284   .     A
C2475  O2925   1.285   .     A
C2476  O2921   1.280   .     A
C2476  O2897   1.283   .     A
C2477  O2923   1.279   .     A
C2477  O2898   1.282   .     A
C2478  O2899   1.284   .     A
C2478  O2910   1.284   .     A
C2479  O2901   1.282   .     A
C2479  O2912   1.284   .     A
C2480  O2908   1.280   .     A
C2480  O2902   1.281   .     A
C2481  C2523   1.412   .     A
C2481  O2967   1.384   .     S
C2482  O2909   1.282   .     A
C2482  O2903   1.286   .     A
C2483  O2904   1.281   .     A
C2483  O2915   1.282   .     A
C2484  O2905   1.282   .     A
C2484  O2916   1.279   .     A
C2485  O2913   1.282   .     A
C2485  O2906   1.280   .     A
C2486  O2907   1.287   .     A
C2486  O2914   1.282   .     A
C2487  O2926   1.384   .     S
C2487  C2504   1.395   .     A
C2488  C2502   1.393   .     A
C2488  O2927   1.386   .     S
C2489  C2501   1.397   .     A
C2489  O2928   1.386   .     S
C2490  O2929   1.384   .     S
C2490  C2500   1.392   .     A
C2491  O2930   1.383   .     S
C2491  C2499   1.394   .     A
C2492  C2524   1.412   .     A
C2492  O2968   1.384   .     S
C2493  C2498   1.393   .     A
C2493  O2931   1.386   .     S
C2494  C2497   1.395   .     A
C2494  O2932   1.387   .     S
C2495  O2934   1.384   .     S
C2495  C2496   1.390   .     A
C2496  O2935   1.384   .     S
C2497  O2936   1.389   .     S
C2498  O2937   1.384   .     S
C2499  O2938   1.386   .     S
C2500  O2939   1.385   .     S
C2501  O2940   1.383   .     S
C2502  O2941   1.385   .     S
C2503  O2969   1.386   .     S
C2504  O2942   1.386   .     S
C2505  C2521   1.391   .     A
C2505  O2943   1.384   .     S
C2506  O2945   1.384   .     S
C2506  C2520   1.394   .     A
C2507  C2519   1.393   .     A
C2507  O2946   1.387   .     S
C2508  C2518   1.391   .     A
C2508  O2947   1.383   .     S
C2509  C2517   1.392   .     A
C2509  O2948   1.384   .     S
C2510  O2949   1.384   .     S
C2510  C2516   1.391   .     A
C2511  O2950   1.387   .     S
C2511  C2515   1.394   .     A
C2512  O2951   1.384   .     S
C2512  C2513   1.394   .     A
C2513  O2952   1.385   .     S
C2514  O2970   1.389   .     S
C2515  O2953   1.383   .     S
C2516  O2954   1.384   .     S
C2517  O2956   1.386   .     S
C2518  O2957   1.381   .     S
C2519  O2958   1.384   .     S
C2520  O2959   1.384   .     S
C2521  O2960   1.386   .     S
H2766  C1681   1.110   1_655 S
H2791  C1692   1.118   1_655 S
H2793  C1693   1.110   1_655 S
H2837  C820    1.110   1_565 S
O2877  Zn2977  1.946   .     S
O2877  Zn2980  1.954   .     S
O2877  Zn2988  1.951   .     S
O2878  Zn2979  1.944   .     S
O2878  C966    1.278   1_565 S
O2880  Zn2982  1.943   .     S
O2880  C1715   1.277   1_655 S
O2881  Zn2981  1.943   .     S
O2882  Zn2991  1.946   .     S
O2883  Zn2990  1.946   .     S
O2884  Zn2985  1.946   .     S
O2885  Zn2977  1.946   .     S
O2886  Zn2987  1.944   .     S
O2887  Zn2986  1.944   .     S
O2888  Zn2989  1.943   .     S
O2889  Zn2989  1.951   .     S
O2889  Zn2985  1.946   .     S
O2889  Zn2983  1.951   .     S
O2890  Zn2988  1.943   .     S
O2891  Zn2980  1.937   .     S
O2892  Zn2979  1.937   .     S
O2893  Zn2982  1.947   .     S
O2894  Zn2981  1.947   .     S
O2895  Zn2984  1.939   .     S
O2896  Zn2983  1.939   .     S
O2897  Zn2978  1.947   .     S
O2898  Zn2992  1.947   .     S
O2899  Zn2979  1.946   .     S
O2900  Zn2986  1.954   .     S
O2900  Zn2978  1.946   .     S
O2900  Zn2990  1.951   .     S
O2901  Zn2980  1.946   .     S
O2902  Zn2992  1.941   .     S
O2903  Zn2978  1.941   .     S
O2904  Zn2983  1.945   .     S
O2905  Zn2984  1.945   .     S
O2906  Zn2981  1.939   .     S
O2907  Zn2982  1.939   .     S
O2908  Zn2239  1.937   1_655 S
O2909  Zn2986  1.937   .     S
O2910  Zn1493  1.947   1_565 S
O2911  Zn2991  1.951   .     S
O2911  Zn2987  1.954   .     S
O2911  Zn2981  1.951   .     S
O2912  Zn2988  1.947   .     S
O2913  Zn2991  1.939   .     S
O2914  Zn2242  1.939   1_655 S
O2915  Zn2985  1.947   .     S
O2916  Zn1481  1.947   1_565 S
O2917  Zn2238  1.946   1_655 S
O2918  Zn2987  1.946   .     S
O2919  Zn2977  1.941   .     S
O2920  Zn1489  1.941   1_565 S
O2921  Zn2990  1.945   .     S
O2922  Zn2984  1.946   .     S
O2923  Zn2243  1.945   1_655 S
O2924  Zn1492  1.939   1_565 S
O2925  Zn2989  1.939   .     S
O2933  Zn2983  1.946   .     S
O2944  Zn2978  1.946   .     S
O2955  Zn2992  1.946   .     S
O2965  C1659   1.420   1_655 S
O2966  Zn2980  1.944   .     S
O2969  C921    1.418   1_565 S
Zn2979 O1393   1.954   1_565 S
Zn2982 O2152   1.951   1_655 S
Zn2984 O1381   1.951   1_565 S
Zn2992 O2163   1.946   1_655 S
