data_str_m1_o1_o17_pcu_sym.155
_audit_creation_date              2020-01-03
_audit_creation_method            'Materials Studio'
_symmetry_space_group_name_H-M    'P1'
_symmetry_Int_Tables_number       1
_symmetry_cell_setting            triclinic
loop_
_symmetry_equiv_pos_as_xyz
  x,y,z
_cell_length_a                    36.4989
_cell_length_b                    36.4978
_cell_length_c                    34.4664
_cell_angle_alpha                 90.0000
_cell_angle_beta                  90.0001
_cell_angle_gamma                 89.9819
loop_
_atom_site_label
_atom_site_type_symbol
_atom_site_fract_x
_atom_site_fract_y
_atom_site_fract_z
_atom_site_U_iso_or_equiv
_atom_site_adp_type
_atom_site_occupancy
C1     C     0.46675   0.25215   0.41884   0.00000  Uiso   1.00
C2     C     0.03325   0.24785   0.58116   0.00000  Uiso   1.00
C3     C     0.25209   0.46674   0.41884   0.00000  Uiso   1.00
C4     C     0.24791   0.03326   0.58116   0.00000  Uiso   1.00
C5     C     0.03325   0.24785   0.41884   0.00000  Uiso   1.00
C6     C     0.46675   0.25215   0.58116   0.00000  Uiso   1.00
C7     C     0.24791   0.03326   0.41884   0.00000  Uiso   1.00
C8     C     0.25209   0.46674   0.58116   0.00000  Uiso   1.00
C9     C     0.21675   0.00213   0.91884   0.00000  Uiso   1.00
C10    C     0.28325   0.49787   0.08116   0.00000  Uiso   1.00
C11    C     0.00221   0.21675   0.91884   0.00000  Uiso   1.00
C12    C     0.49779   0.28325   0.08116   0.00000  Uiso   1.00
C13    C     0.28325   0.49787   0.91884   0.00000  Uiso   1.00
C14    C     0.21675   0.00213   0.08116   0.00000  Uiso   1.00
C15    C     0.49779   0.28325   0.91884   0.00000  Uiso   1.00
C16    C     0.00221   0.21675   0.08116   0.00000  Uiso   1.00
C17    C     0.00000   0.25000   0.39850   0.00000  Uiso   1.00
C18    C     0.00000   0.25000   0.60149   0.00000  Uiso   1.00
C19    C     0.25000   0.00000   0.39850   0.00000  Uiso   1.00
C20    C     0.25000  -0.00000   0.60150   0.00000  Uiso   1.00
C21    C     0.25000   0.00000   0.89850   0.00000  Uiso   1.00
C22    C     0.25000  -0.00000   0.10149   0.00000  Uiso   1.00
C23    C     0.00000   0.25000   0.89850   0.00000  Uiso   1.00
C24    C    -0.00000   0.25000   0.10150   0.00000  Uiso   1.00
C25    C     0.06661   0.24565   0.47976   0.00000  Uiso   1.00
C26    C     0.43339   0.25435   0.52023   0.00000  Uiso   1.00
C27    C     0.24576   0.06662   0.47976   0.00000  Uiso   1.00
C28    C     0.25424   0.43338   0.52024   0.00000  Uiso   1.00
C29    C     0.43339   0.25435   0.47976   0.00000  Uiso   1.00
C30    C     0.06661   0.24565   0.52024   0.00000  Uiso   1.00
C31    C     0.25424   0.43338   0.47976   0.00000  Uiso   1.00
C32    C     0.24576   0.06662   0.52024   0.00000  Uiso   1.00
C33    C     0.31661   0.49570   0.97976   0.00000  Uiso   1.00
C34    C     0.18339   0.00430   0.02024   0.00000  Uiso   1.00
C35    C     0.49553   0.31660   0.97976   0.00000  Uiso   1.00
C36    C     0.00447   0.18340   0.02024   0.00000  Uiso   1.00
C37    C     0.18339   0.00430   0.97976   0.00000  Uiso   1.00
C38    C     0.31661   0.49570   0.02024   0.00000  Uiso   1.00
C39    C     0.00447   0.18340   0.97976   0.00000  Uiso   1.00
C40    C     0.49553   0.31660   0.02024   0.00000  Uiso   1.00
C41    C     0.25000   0.00000   0.35604   0.00000  Uiso   1.00
C42    C     0.25000  -0.00000   0.64396   0.00000  Uiso   1.00
C43    C     0.00000   0.25000   0.35604   0.00000  Uiso   1.00
C44    C     0.00000   0.25000   0.64396   0.00000  Uiso   1.00
C45    C     0.00000   0.25000   0.85604   0.00000  Uiso   1.00
C46    C     0.00000   0.25000   0.14396   0.00000  Uiso   1.00
C47    C     0.25000   0.00000   0.85604   0.00000  Uiso   1.00
C48    C     0.25000  -0.00000   0.14396   0.00000  Uiso   1.00
C49    C     0.17998   0.07002   0.25000   0.00000  Uiso   1.00
C50    C     0.32002   0.42998   0.75000   0.00000  Uiso   1.00
C51    C     0.42998   0.17998   0.25000   0.00000  Uiso   1.00
C52    C     0.07002   0.32002   0.75000   0.00000  Uiso   1.00
C53    C     0.32002   0.42998   0.25000   0.00000  Uiso   1.00
C54    C     0.17998   0.07002   0.75000   0.00000  Uiso   1.00
C55    C     0.07002   0.32002   0.25000   0.00000  Uiso   1.00
C56    C     0.42998   0.17998   0.75000   0.00000  Uiso   1.00
C57    C     0.17998   0.42998   0.75000   0.00000  Uiso   1.00
C58    C     0.32002   0.07002   0.25000   0.00000  Uiso   1.00
C59    C     0.42998   0.32002   0.75000   0.00000  Uiso   1.00
C60    C     0.07002   0.17998   0.25000   0.00000  Uiso   1.00
C61    C     0.32002   0.07002   0.75000   0.00000  Uiso   1.00
C62    C     0.17998   0.42998   0.25000   0.00000  Uiso   1.00
C63    C     0.07002   0.17998   0.75000   0.00000  Uiso   1.00
C64    C     0.42998   0.32002   0.25000   0.00000  Uiso   1.00
C65    C     0.11605   0.41109   0.26143   0.00000  Uiso   1.00
C66    C     0.38395   0.08891   0.73857   0.00000  Uiso   1.00
C67    C     0.11900   0.14614   0.21624   0.00000  Uiso   1.00
C68    C     0.38100   0.35386   0.78376   0.00000  Uiso   1.00
C69    C     0.38396   0.08891   0.26142   0.00000  Uiso   1.00
C70    C     0.11605   0.41109   0.73857   0.00000  Uiso   1.00
C71    C     0.38100   0.35386   0.21624   0.00000  Uiso   1.00
C72    C     0.11900   0.14614   0.78376   0.00000  Uiso   1.00
C73    C     0.14614   0.11901   0.78376   0.00000  Uiso   1.00
C74    C     0.35386   0.38100   0.21624   0.00000  Uiso   1.00
C75    C     0.08891   0.38396   0.73857   0.00000  Uiso   1.00
C76    C     0.41109   0.11604   0.26142   0.00000  Uiso   1.00
C77    C     0.35386   0.38100   0.78376   0.00000  Uiso   1.00
C78    C     0.14614   0.11901   0.21624   0.00000  Uiso   1.00
C79    C     0.41109   0.11604   0.73857   0.00000  Uiso   1.00
C80    C     0.08891   0.38396   0.26143   0.00000  Uiso   1.00
C81    C     0.36605   0.16109   0.76143   0.00000  Uiso   1.00
C82    C     0.13395   0.33891   0.23857   0.00000  Uiso   1.00
C83    C     0.36900   0.39614   0.71624   0.00000  Uiso   1.00
C84    C     0.13100   0.10386   0.28376   0.00000  Uiso   1.00
C85    C     0.13396   0.33891   0.76143   0.00000  Uiso   1.00
C86    C     0.36604   0.16109   0.23858   0.00000  Uiso   1.00
C87    C     0.13100   0.10386   0.71624   0.00000  Uiso   1.00
C88    C     0.36900   0.39614   0.28376   0.00000  Uiso   1.00
C89    C     0.39614   0.36900   0.28376   0.00000  Uiso   1.00
C90    C     0.10386   0.13099   0.71624   0.00000  Uiso   1.00
C91    C     0.33891   0.13396   0.23858   0.00000  Uiso   1.00
C92    C     0.16109   0.36604   0.76142   0.00000  Uiso   1.00
C93    C     0.10386   0.13099   0.28376   0.00000  Uiso   1.00
C94    C     0.39614   0.36900   0.71624   0.00000  Uiso   1.00
C95    C     0.16109   0.36604   0.23857   0.00000  Uiso   1.00
C96    C     0.33891   0.13396   0.76143   0.00000  Uiso   1.00
C97    C     0.03348   0.24782   0.45930   0.00000  Uiso   1.00
C98    C     0.46652   0.25218   0.54070   0.00000  Uiso   1.00
C99    C     0.24788   0.03349   0.45930   0.00000  Uiso   1.00
C100   C     0.25212   0.46651   0.54070   0.00000  Uiso   1.00
C101   C     0.46652   0.25218   0.45930   0.00000  Uiso   1.00
C102   C     0.03348   0.24782   0.54070   0.00000  Uiso   1.00
C103   C     0.25212   0.46651   0.45930   0.00000  Uiso   1.00
C104   C     0.24788   0.03349   0.54070   0.00000  Uiso   1.00
C105   C     0.28348   0.49785   0.95930   0.00000  Uiso   1.00
C106   C     0.21652   0.00215   0.04070   0.00000  Uiso   1.00
C107   C     0.49776   0.28348   0.95930   0.00000  Uiso   1.00
C108   C     0.00224   0.21652   0.04070   0.00000  Uiso   1.00
C109   C     0.21652   0.00215   0.95930   0.00000  Uiso   1.00
C110   C     0.28348   0.49785   0.04070   0.00000  Uiso   1.00
C111   C     0.00224   0.21652   0.95930   0.00000  Uiso   1.00
C112   C     0.49776   0.28348   0.04070   0.00000  Uiso   1.00
C113   C     0.09808   0.34808   0.25000   0.00000  Uiso   1.00
C114   C     0.40192   0.15192   0.75000   0.00000  Uiso   1.00
C115   C     0.15192   0.09808   0.25000   0.00000  Uiso   1.00
C116   C     0.34808   0.40192   0.75000   0.00000  Uiso   1.00
C117   C     0.40192   0.15192   0.25000   0.00000  Uiso   1.00
C118   C     0.09808   0.34808   0.75000   0.00000  Uiso   1.00
C119   C     0.34808   0.40192   0.25000   0.00000  Uiso   1.00
C120   C     0.15192   0.09808   0.75000   0.00000  Uiso   1.00
C121   C     0.09808   0.15192   0.75000   0.00000  Uiso   1.00
C122   C     0.40192   0.34808   0.25000   0.00000  Uiso   1.00
C123   C     0.15192   0.40192   0.75000   0.00000  Uiso   1.00
C124   C     0.34808   0.09808   0.25000   0.00000  Uiso   1.00
C125   C     0.40192   0.34808   0.75000   0.00000  Uiso   1.00
C126   C     0.09808   0.15192   0.25000   0.00000  Uiso   1.00
C127   C     0.34808   0.09809   0.75000   0.00000  Uiso   1.00
C128   C     0.15192   0.40192   0.25000   0.00000  Uiso   1.00
C129   C     0.00000   0.25000   0.47964   0.00000  Uiso   1.00
C130   C     0.00000   0.25000   0.52036   0.00000  Uiso   1.00
C131   C     0.25000  -0.00000   0.47964   0.00000  Uiso   1.00
C132   C     0.25000   0.00000   0.52036   0.00000  Uiso   1.00
C133   C     0.25000  -0.00000   0.97964   0.00000  Uiso   1.00
C134   C     0.25000  -0.00000   0.02036   0.00000  Uiso   1.00
C135   C     0.00000   0.25000   0.97964   0.00000  Uiso   1.00
C136   C     0.00000   0.25000   0.02036   0.00000  Uiso   1.00
H137   H     0.09249   0.24395   0.46447   0.00000  Uiso   1.00
H138   H     0.40751   0.25605   0.53553   0.00000  Uiso   1.00
H139   H     0.24411   0.09250   0.46447   0.00000  Uiso   1.00
H140   H     0.25589   0.40750   0.53553   0.00000  Uiso   1.00
H141   H     0.40751   0.25605   0.46447   0.00000  Uiso   1.00
H142   H     0.09249   0.24395   0.53553   0.00000  Uiso   1.00
H143   H     0.25589   0.40750   0.46447   0.00000  Uiso   1.00
H144   H     0.24411   0.09250   0.53553   0.00000  Uiso   1.00
H145   H     0.34250   0.49403   0.96447   0.00000  Uiso   1.00
H146   H     0.15750   0.00597   0.03553   0.00000  Uiso   1.00
H147   H     0.49379   0.34248   0.96447   0.00000  Uiso   1.00
H148   H     0.00621   0.15752   0.03553   0.00000  Uiso   1.00
H149   H     0.15750   0.00597   0.96447   0.00000  Uiso   1.00
H150   H     0.34250   0.49403   0.03553   0.00000  Uiso   1.00
H151   H     0.00621   0.15752   0.96447   0.00000  Uiso   1.00
H152   H     0.49379   0.34248   0.03553   0.00000  Uiso   1.00
H153   H     0.44102   0.25388   0.40321   0.00000  Uiso   1.00
H154   H     0.05898   0.24612   0.59678   0.00000  Uiso   1.00
H155   H     0.25378   0.44101   0.40321   0.00000  Uiso   1.00
H156   H     0.24622   0.05899   0.59678   0.00000  Uiso   1.00
H157   H     0.05898   0.24612   0.40321   0.00000  Uiso   1.00
H158   H     0.44102   0.25388   0.59678   0.00000  Uiso   1.00
H159   H     0.24622   0.05899   0.40321   0.00000  Uiso   1.00
H160   H     0.25378   0.44101   0.59678   0.00000  Uiso   1.00
H161   H     0.19102   0.00383   0.90321   0.00000  Uiso   1.00
H162   H     0.30898   0.49617   0.09678   0.00000  Uiso   1.00
H163   H     0.00398   0.19103   0.90321   0.00000  Uiso   1.00
H164   H     0.49602   0.30897   0.09679   0.00000  Uiso   1.00
H165   H     0.30898   0.49617   0.90322   0.00000  Uiso   1.00
H166   H     0.19102   0.00383   0.09678   0.00000  Uiso   1.00
H167   H     0.49602   0.30897   0.90321   0.00000  Uiso   1.00
H168   H     0.00398   0.19103   0.09679   0.00000  Uiso   1.00
O169   O     0.25000   0.00000   0.25000   0.00000  Uiso   1.00
O170   O     0.25000   0.00000   0.75000   0.00000  Uiso   1.00
O171   O     0.00000   0.25000   0.25000   0.00000  Uiso   1.00
O172   O     0.00000   0.25000   0.75000   0.00000  Uiso   1.00
O173   O     0.25000   0.46963   0.33755   0.00000  Uiso   1.00
O174   O     0.25000   0.03037   0.66245   0.00000  Uiso   1.00
O175   O     0.03037   0.25000   0.33755   0.00000  Uiso   1.00
O176   O     0.46964   0.25000   0.66245   0.00000  Uiso   1.00
O177   O     0.25000   0.03037   0.33755   0.00000  Uiso   1.00
O178   O     0.25000   0.46963   0.66245   0.00000  Uiso   1.00
O179   O     0.46964   0.25000   0.33755   0.00000  Uiso   1.00
O180   O     0.03037   0.25000   0.66245   0.00000  Uiso   1.00
O181   O     0.00000   0.21963   0.83755   0.00000  Uiso   1.00
O182   O     0.00000   0.28037   0.16245   0.00000  Uiso   1.00
O183   O     0.28037   0.00000   0.83755   0.00000  Uiso   1.00
O184   O     0.21964   0.00000   0.16245   0.00000  Uiso   1.00
O185   O     0.00000   0.28036   0.83755   0.00000  Uiso   1.00
O186   O     0.00000   0.21964   0.16245   0.00000  Uiso   1.00
O187   O     0.21964   0.00000   0.83755   0.00000  Uiso   1.00
O188   O     0.28037   0.00000   0.16245   0.00000  Uiso   1.00
O189   O     0.20725   0.07308   0.27302   0.00000  Uiso   1.00
O190   O     0.29276   0.42692   0.72698   0.00000  Uiso   1.00
O191   O     0.42693   0.20725   0.27302   0.00000  Uiso   1.00
O192   O     0.07308   0.29275   0.72698   0.00000  Uiso   1.00
O193   O     0.29276   0.42692   0.27302   0.00000  Uiso   1.00
O194   O     0.20725   0.07308   0.72698   0.00000  Uiso   1.00
O195   O     0.07308   0.29275   0.27302   0.00000  Uiso   1.00
O196   O     0.42693   0.20725   0.72698   0.00000  Uiso   1.00
O197   O     0.20725   0.42692   0.72698   0.00000  Uiso   1.00
O198   O     0.29276   0.07308   0.27302   0.00000  Uiso   1.00
O199   O     0.42693   0.29276   0.72698   0.00000  Uiso   1.00
O200   O     0.07308   0.20724   0.27302   0.00000  Uiso   1.00
O201   O     0.29276   0.07308   0.72698   0.00000  Uiso   1.00
O202   O     0.20725   0.42692   0.27302   0.00000  Uiso   1.00
O203   O     0.07308   0.20724   0.72698   0.00000  Uiso   1.00
O204   O     0.42693   0.29276   0.27302   0.00000  Uiso   1.00
O205   O     0.45725   0.32308   0.77302   0.00000  Uiso   1.00
O206   O     0.04276   0.17692   0.22698   0.00000  Uiso   1.00
O207   O     0.17693   0.45724   0.77302   0.00000  Uiso   1.00
O208   O     0.32308   0.04276   0.22698   0.00000  Uiso   1.00
O209   O     0.04276   0.17692   0.77302   0.00000  Uiso   1.00
O210   O     0.45725   0.32308   0.22698   0.00000  Uiso   1.00
O211   O     0.32308   0.04276   0.77302   0.00000  Uiso   1.00
O212   O     0.17693   0.45724   0.22698   0.00000  Uiso   1.00
O213   O     0.45725   0.17693   0.22698   0.00000  Uiso   1.00
O214   O     0.04276   0.32307   0.77302   0.00000  Uiso   1.00
O215   O     0.17693   0.04276   0.22698   0.00000  Uiso   1.00
O216   O     0.32308   0.45724   0.77302   0.00000  Uiso   1.00
O217   O     0.04276   0.32307   0.22698   0.00000  Uiso   1.00
O218   O     0.45725   0.17693   0.77302   0.00000  Uiso   1.00
O219   O     0.32308   0.45724   0.22698   0.00000  Uiso   1.00
O220   O     0.17693   0.04276   0.77302   0.00000  Uiso   1.00
Zn221  Zn    0.20660   0.00000   0.21735   0.00000  Uiso   1.00
Zn222  Zn    0.29341  -0.00000   0.78265   0.00000  Uiso   1.00
Zn223  Zn    0.00000   0.20659   0.21735   0.00000  Uiso   1.00
Zn224  Zn    0.00000   0.29341   0.78265   0.00000  Uiso   1.00
Zn225  Zn    0.29341   0.00000   0.21735   0.00000  Uiso   1.00
Zn226  Zn    0.20660  -0.00000   0.78265   0.00000  Uiso   1.00
Zn227  Zn    0.00000   0.29340   0.21735   0.00000  Uiso   1.00
Zn228  Zn    0.00000   0.20660   0.78265   0.00000  Uiso   1.00
Zn229  Zn    0.45660   0.25000   0.71735   0.00000  Uiso   1.00
Zn230  Zn    0.04341   0.25000   0.28265   0.00000  Uiso   1.00
Zn231  Zn    0.25000   0.45659   0.71735   0.00000  Uiso   1.00
Zn232  Zn    0.25000   0.04341   0.28265   0.00000  Uiso   1.00
Zn233  Zn    0.04341   0.25000   0.71735   0.00000  Uiso   1.00
Zn234  Zn    0.45660   0.25000   0.28265   0.00000  Uiso   1.00
Zn235  Zn    0.25000   0.04341   0.71735   0.00000  Uiso   1.00
Zn236  Zn    0.25000   0.45659   0.28265   0.00000  Uiso   1.00
I237   I     0.10370   0.46570   0.28043   0.00000  Uiso   1.00
I238   I     0.39630   0.03430   0.71958   0.00000  Uiso   1.00
I239   I     0.11047   0.17986   0.16604   0.00000  Uiso   1.00
I240   I     0.38953   0.32015   0.83397   0.00000  Uiso   1.00
I241   I     0.39630   0.03430   0.28041   0.00000  Uiso   1.00
I242   I     0.10370   0.46570   0.71959   0.00000  Uiso   1.00
I243   I     0.38953   0.32015   0.16603   0.00000  Uiso   1.00
I244   I     0.11047   0.17985   0.83396   0.00000  Uiso   1.00
I245   I     0.17986   0.11047   0.83396   0.00000  Uiso   1.00
I246   I     0.32014   0.38953   0.16604   0.00000  Uiso   1.00
I247   I     0.03430   0.39631   0.71959   0.00000  Uiso   1.00
I248   I     0.46570   0.10369   0.28040   0.00000  Uiso   1.00
I249   I     0.32014   0.38953   0.83396   0.00000  Uiso   1.00
I250   I     0.17986   0.11047   0.16604   0.00000  Uiso   1.00
I251   I     0.46570   0.10370   0.71958   0.00000  Uiso   1.00
I252   I     0.03430   0.39630   0.28043   0.00000  Uiso   1.00
I253   I     0.35370   0.21570   0.78042   0.00000  Uiso   1.00
I254   I     0.14630   0.28430   0.21957   0.00000  Uiso   1.00
I255   I     0.36047   0.42985   0.66603   0.00000  Uiso   1.00
I256   I     0.13953   0.07014   0.33396   0.00000  Uiso   1.00
I257   I     0.14630   0.28430   0.78041   0.00000  Uiso   1.00
I258   I     0.35370   0.21570   0.21959   0.00000  Uiso   1.00
I259   I     0.13953   0.07014   0.66604   0.00000  Uiso   1.00
I260   I     0.36047   0.42985   0.33396   0.00000  Uiso   1.00
I261   I     0.42986   0.36047   0.33396   0.00000  Uiso   1.00
I262   I     0.07015   0.13953   0.66604   0.00000  Uiso   1.00
I263   I     0.28430   0.14631   0.21959   0.00000  Uiso   1.00
I264   I     0.21570   0.35369   0.78041   0.00000  Uiso   1.00
I265   I     0.07014   0.13953   0.33396   0.00000  Uiso   1.00
I266   I     0.42985   0.36047   0.66604   0.00000  Uiso   1.00
I267   I     0.21569   0.35370   0.21957   0.00000  Uiso   1.00
I268   I     0.28430   0.14631   0.78042   0.00000  Uiso   1.00
C269   C     0.96675   0.25215   0.41884   0.00000  Uiso   1.00
C270   C     0.53325   0.24785   0.58116   0.00000  Uiso   1.00
C271   C     0.75209   0.46674   0.41884   0.00000  Uiso   1.00
C272   C     0.74791   0.03326   0.58116   0.00000  Uiso   1.00
C273   C     0.53325   0.24785   0.41884   0.00000  Uiso   1.00
C274   C     0.96675   0.25215   0.58116   0.00000  Uiso   1.00
C275   C     0.74791   0.03326   0.41884   0.00000  Uiso   1.00
C276   C     0.75209   0.46674   0.58116   0.00000  Uiso   1.00
C277   C     0.71675   0.00213   0.91884   0.00000  Uiso   1.00
C278   C     0.78325   0.49787   0.08116   0.00000  Uiso   1.00
C279   C     0.50221   0.21675   0.91884   0.00000  Uiso   1.00
C280   C     0.99779   0.28325   0.08116   0.00000  Uiso   1.00
C281   C     0.78325   0.49787   0.91884   0.00000  Uiso   1.00
C282   C     0.71675   0.00213   0.08116   0.00000  Uiso   1.00
C283   C     0.99779   0.28325   0.91884   0.00000  Uiso   1.00
C284   C     0.50221   0.21675   0.08116   0.00000  Uiso   1.00
C285   C     0.50000   0.25000   0.39850   0.00000  Uiso   1.00
C286   C     0.50000   0.25000   0.60149   0.00000  Uiso   1.00
C287   C     0.75000   0.00000   0.39850   0.00000  Uiso   1.00
C288   C     0.75000  -0.00000   0.60150   0.00000  Uiso   1.00
C289   C     0.75000   0.00000   0.89850   0.00000  Uiso   1.00
C290   C     0.75000  -0.00000   0.10149   0.00000  Uiso   1.00
C291   C     0.50000   0.25000   0.89850   0.00000  Uiso   1.00
C292   C     0.50000   0.25000   0.10150   0.00000  Uiso   1.00
C293   C     0.56661   0.24565   0.47976   0.00000  Uiso   1.00
C294   C     0.93339   0.25435   0.52023   0.00000  Uiso   1.00
C295   C     0.74576   0.06662   0.47976   0.00000  Uiso   1.00
C296   C     0.75424   0.43338   0.52024   0.00000  Uiso   1.00
C297   C     0.93339   0.25435   0.47976   0.00000  Uiso   1.00
C298   C     0.56661   0.24565   0.52024   0.00000  Uiso   1.00
C299   C     0.75424   0.43338   0.47976   0.00000  Uiso   1.00
C300   C     0.74576   0.06662   0.52024   0.00000  Uiso   1.00
C301   C     0.81661   0.49570   0.97976   0.00000  Uiso   1.00
C302   C     0.68339   0.00430   0.02024   0.00000  Uiso   1.00
C303   C     0.99553   0.31660   0.97976   0.00000  Uiso   1.00
C304   C     0.50447   0.18340   0.02024   0.00000  Uiso   1.00
C305   C     0.68339   0.00430   0.97976   0.00000  Uiso   1.00
C306   C     0.81661   0.49570   0.02024   0.00000  Uiso   1.00
C307   C     0.50447   0.18340   0.97976   0.00000  Uiso   1.00
C308   C     0.99553   0.31660   0.02024   0.00000  Uiso   1.00
C309   C     0.75000   0.00000   0.35604   0.00000  Uiso   1.00
C310   C     0.75000  -0.00000   0.64396   0.00000  Uiso   1.00
C311   C     0.50000   0.25000   0.35604   0.00000  Uiso   1.00
C312   C     0.50000   0.25000   0.64396   0.00000  Uiso   1.00
C313   C     0.50000   0.25000   0.85604   0.00000  Uiso   1.00
C314   C     0.50000   0.25000   0.14396   0.00000  Uiso   1.00
C315   C     0.75000   0.00000   0.85604   0.00000  Uiso   1.00
C316   C     0.75000  -0.00000   0.14396   0.00000  Uiso   1.00
C317   C     0.67998   0.07002   0.25000   0.00000  Uiso   1.00
C318   C     0.82002   0.42998   0.75000   0.00000  Uiso   1.00
C319   C     0.92998   0.17998   0.25000   0.00000  Uiso   1.00
C320   C     0.57002   0.32002   0.75000   0.00000  Uiso   1.00
C321   C     0.82002   0.42998   0.25000   0.00000  Uiso   1.00
C322   C     0.67998   0.07002   0.75000   0.00000  Uiso   1.00
C323   C     0.57002   0.32002   0.25000   0.00000  Uiso   1.00
C324   C     0.92998   0.17998   0.75000   0.00000  Uiso   1.00
C325   C     0.67998   0.42998   0.75000   0.00000  Uiso   1.00
C326   C     0.82002   0.07002   0.25000   0.00000  Uiso   1.00
C327   C     0.92998   0.32002   0.75000   0.00000  Uiso   1.00
C328   C     0.57002   0.17998   0.25000   0.00000  Uiso   1.00
C329   C     0.82002   0.07002   0.75000   0.00000  Uiso   1.00
C330   C     0.67998   0.42998   0.25000   0.00000  Uiso   1.00
C331   C     0.57002   0.17998   0.75000   0.00000  Uiso   1.00
C332   C     0.92998   0.32002   0.25000   0.00000  Uiso   1.00
C333   C     0.61605   0.41109   0.26143   0.00000  Uiso   1.00
C334   C     0.88395   0.08891   0.73857   0.00000  Uiso   1.00
C335   C     0.61900   0.14614   0.21624   0.00000  Uiso   1.00
C336   C     0.88100   0.35386   0.78376   0.00000  Uiso   1.00
C337   C     0.88396   0.08891   0.26142   0.00000  Uiso   1.00
C338   C     0.61605   0.41109   0.73857   0.00000  Uiso   1.00
C339   C     0.88100   0.35386   0.21624   0.00000  Uiso   1.00
C340   C     0.61900   0.14614   0.78376   0.00000  Uiso   1.00
C341   C     0.64614   0.11901   0.78376   0.00000  Uiso   1.00
C342   C     0.85386   0.38100   0.21624   0.00000  Uiso   1.00
C343   C     0.58891   0.38396   0.73857   0.00000  Uiso   1.00
C344   C     0.91109   0.11604   0.26142   0.00000  Uiso   1.00
C345   C     0.85386   0.38100   0.78376   0.00000  Uiso   1.00
C346   C     0.64614   0.11901   0.21624   0.00000  Uiso   1.00
C347   C     0.91109   0.11604   0.73857   0.00000  Uiso   1.00
C348   C     0.58891   0.38396   0.26143   0.00000  Uiso   1.00
C349   C     0.86605   0.16109   0.76143   0.00000  Uiso   1.00
C350   C     0.63395   0.33891   0.23857   0.00000  Uiso   1.00
C351   C     0.86900   0.39614   0.71624   0.00000  Uiso   1.00
C352   C     0.63100   0.10386   0.28376   0.00000  Uiso   1.00
C353   C     0.63396   0.33891   0.76143   0.00000  Uiso   1.00
C354   C     0.86604   0.16109   0.23858   0.00000  Uiso   1.00
C355   C     0.63100   0.10386   0.71624   0.00000  Uiso   1.00
C356   C     0.86900   0.39614   0.28376   0.00000  Uiso   1.00
C357   C     0.89614   0.36900   0.28376   0.00000  Uiso   1.00
C358   C     0.60386   0.13099   0.71624   0.00000  Uiso   1.00
C359   C     0.83891   0.13396   0.23858   0.00000  Uiso   1.00
C360   C     0.66109   0.36604   0.76142   0.00000  Uiso   1.00
C361   C     0.60386   0.13099   0.28376   0.00000  Uiso   1.00
C362   C     0.89614   0.36900   0.71624   0.00000  Uiso   1.00
C363   C     0.66109   0.36604   0.23857   0.00000  Uiso   1.00
C364   C     0.83891   0.13396   0.76143   0.00000  Uiso   1.00
C365   C     0.53348   0.24782   0.45930   0.00000  Uiso   1.00
C366   C     0.96652   0.25218   0.54070   0.00000  Uiso   1.00
C367   C     0.74788   0.03349   0.45930   0.00000  Uiso   1.00
C368   C     0.75212   0.46651   0.54070   0.00000  Uiso   1.00
C369   C     0.96652   0.25218   0.45930   0.00000  Uiso   1.00
C370   C     0.53348   0.24782   0.54070   0.00000  Uiso   1.00
C371   C     0.75212   0.46651   0.45930   0.00000  Uiso   1.00
C372   C     0.74788   0.03349   0.54070   0.00000  Uiso   1.00
C373   C     0.78348   0.49785   0.95930   0.00000  Uiso   1.00
C374   C     0.71652   0.00215   0.04070   0.00000  Uiso   1.00
C375   C     0.99776   0.28348   0.95930   0.00000  Uiso   1.00
C376   C     0.50224   0.21652   0.04070   0.00000  Uiso   1.00
C377   C     0.71652   0.00215   0.95930   0.00000  Uiso   1.00
C378   C     0.78348   0.49785   0.04070   0.00000  Uiso   1.00
C379   C     0.50224   0.21652   0.95930   0.00000  Uiso   1.00
C380   C     0.99776   0.28348   0.04070   0.00000  Uiso   1.00
C381   C     0.59808   0.34808   0.25000   0.00000  Uiso   1.00
C382   C     0.90192   0.15192   0.75000   0.00000  Uiso   1.00
C383   C     0.65192   0.09808   0.25000   0.00000  Uiso   1.00
C384   C     0.84808   0.40192   0.75000   0.00000  Uiso   1.00
C385   C     0.90192   0.15192   0.25000   0.00000  Uiso   1.00
C386   C     0.59808   0.34808   0.75000   0.00000  Uiso   1.00
C387   C     0.84808   0.40192   0.25000   0.00000  Uiso   1.00
C388   C     0.65192   0.09808   0.75000   0.00000  Uiso   1.00
C389   C     0.59808   0.15192   0.75000   0.00000  Uiso   1.00
C390   C     0.90192   0.34808   0.25000   0.00000  Uiso   1.00
C391   C     0.65192   0.40192   0.75000   0.00000  Uiso   1.00
C392   C     0.84808   0.09808   0.25000   0.00000  Uiso   1.00
C393   C     0.90192   0.34808   0.75000   0.00000  Uiso   1.00
C394   C     0.59808   0.15192   0.25000   0.00000  Uiso   1.00
C395   C     0.84808   0.09809   0.75000   0.00000  Uiso   1.00
C396   C     0.65192   0.40192   0.25000   0.00000  Uiso   1.00
C397   C     0.50000   0.25000   0.47964   0.00000  Uiso   1.00
C398   C     0.50000   0.25000   0.52036   0.00000  Uiso   1.00
C399   C     0.75000  -0.00000   0.47964   0.00000  Uiso   1.00
C400   C     0.75000   0.00000   0.52036   0.00000  Uiso   1.00
C401   C     0.75000  -0.00000   0.97964   0.00000  Uiso   1.00
C402   C     0.75000  -0.00000   0.02036   0.00000  Uiso   1.00
C403   C     0.50000   0.25000   0.97964   0.00000  Uiso   1.00
C404   C     0.50000   0.25000   0.02036   0.00000  Uiso   1.00
H405   H     0.59249   0.24395   0.46447   0.00000  Uiso   1.00
H406   H     0.90751   0.25605   0.53553   0.00000  Uiso   1.00
H407   H     0.74411   0.09250   0.46447   0.00000  Uiso   1.00
H408   H     0.75589   0.40750   0.53553   0.00000  Uiso   1.00
H409   H     0.90751   0.25605   0.46447   0.00000  Uiso   1.00
H410   H     0.59249   0.24395   0.53553   0.00000  Uiso   1.00
H411   H     0.75589   0.40750   0.46447   0.00000  Uiso   1.00
H412   H     0.74411   0.09250   0.53553   0.00000  Uiso   1.00
H413   H     0.84250   0.49403   0.96447   0.00000  Uiso   1.00
H414   H     0.65750   0.00597   0.03553   0.00000  Uiso   1.00
H415   H     0.99379   0.34248   0.96447   0.00000  Uiso   1.00
H416   H     0.50621   0.15752   0.03553   0.00000  Uiso   1.00
H417   H     0.65750   0.00597   0.96447   0.00000  Uiso   1.00
H418   H     0.84250   0.49403   0.03553   0.00000  Uiso   1.00
H419   H     0.50621   0.15752   0.96447   0.00000  Uiso   1.00
H420   H     0.99379   0.34248   0.03553   0.00000  Uiso   1.00
H421   H     0.94102   0.25388   0.40321   0.00000  Uiso   1.00
H422   H     0.55898   0.24612   0.59678   0.00000  Uiso   1.00
H423   H     0.75378   0.44101   0.40321   0.00000  Uiso   1.00
H424   H     0.74622   0.05899   0.59678   0.00000  Uiso   1.00
H425   H     0.55898   0.24612   0.40321   0.00000  Uiso   1.00
H426   H     0.94102   0.25388   0.59678   0.00000  Uiso   1.00
H427   H     0.74622   0.05899   0.40321   0.00000  Uiso   1.00
H428   H     0.75378   0.44101   0.59678   0.00000  Uiso   1.00
H429   H     0.69102   0.00383   0.90321   0.00000  Uiso   1.00
H430   H     0.80898   0.49617   0.09678   0.00000  Uiso   1.00
H431   H     0.50398   0.19103   0.90321   0.00000  Uiso   1.00
H432   H     0.99602   0.30897   0.09679   0.00000  Uiso   1.00
H433   H     0.80898   0.49617   0.90322   0.00000  Uiso   1.00
H434   H     0.69102   0.00383   0.09678   0.00000  Uiso   1.00
H435   H     0.99602   0.30897   0.90321   0.00000  Uiso   1.00
H436   H     0.50398   0.19103   0.09679   0.00000  Uiso   1.00
O437   O     0.75000   0.00000   0.25000   0.00000  Uiso   1.00
O438   O     0.75000   0.00000   0.75000   0.00000  Uiso   1.00
O439   O     0.50000   0.25000   0.25000   0.00000  Uiso   1.00
O440   O     0.50000   0.25000   0.75000   0.00000  Uiso   1.00
O441   O     0.75000   0.46963   0.33755   0.00000  Uiso   1.00
O442   O     0.75000   0.03037   0.66245   0.00000  Uiso   1.00
O443   O     0.53037   0.25000   0.33755   0.00000  Uiso   1.00
O444   O     0.96964   0.25000   0.66245   0.00000  Uiso   1.00
O445   O     0.75000   0.03037   0.33755   0.00000  Uiso   1.00
O446   O     0.75000   0.46963   0.66245   0.00000  Uiso   1.00
O447   O     0.96964   0.25000   0.33755   0.00000  Uiso   1.00
O448   O     0.53037   0.25000   0.66245   0.00000  Uiso   1.00
O449   O     0.50000   0.21963   0.83755   0.00000  Uiso   1.00
O450   O     0.50000   0.28037   0.16245   0.00000  Uiso   1.00
O451   O     0.78037   0.00000   0.83755   0.00000  Uiso   1.00
O452   O     0.71964   0.00000   0.16245   0.00000  Uiso   1.00
O453   O     0.50000   0.28036   0.83755   0.00000  Uiso   1.00
O454   O     0.50000   0.21964   0.16245   0.00000  Uiso   1.00
O455   O     0.71964   0.00000   0.83755   0.00000  Uiso   1.00
O456   O     0.78037   0.00000   0.16245   0.00000  Uiso   1.00
O457   O     0.70725   0.07308   0.27302   0.00000  Uiso   1.00
O458   O     0.79276   0.42692   0.72698   0.00000  Uiso   1.00
O459   O     0.92693   0.20725   0.27302   0.00000  Uiso   1.00
O460   O     0.57308   0.29275   0.72698   0.00000  Uiso   1.00
O461   O     0.79276   0.42692   0.27302   0.00000  Uiso   1.00
O462   O     0.70725   0.07308   0.72698   0.00000  Uiso   1.00
O463   O     0.57308   0.29275   0.27302   0.00000  Uiso   1.00
O464   O     0.92693   0.20725   0.72698   0.00000  Uiso   1.00
O465   O     0.70725   0.42692   0.72698   0.00000  Uiso   1.00
O466   O     0.79276   0.07308   0.27302   0.00000  Uiso   1.00
O467   O     0.92693   0.29276   0.72698   0.00000  Uiso   1.00
O468   O     0.57308   0.20724   0.27302   0.00000  Uiso   1.00
O469   O     0.79276   0.07308   0.72698   0.00000  Uiso   1.00
O470   O     0.70725   0.42692   0.27302   0.00000  Uiso   1.00
O471   O     0.57308   0.20724   0.72698   0.00000  Uiso   1.00
O472   O     0.92693   0.29276   0.27302   0.00000  Uiso   1.00
O473   O     0.95725   0.32308   0.77302   0.00000  Uiso   1.00
O474   O     0.54276   0.17692   0.22698   0.00000  Uiso   1.00
O475   O     0.67693   0.45724   0.77302   0.00000  Uiso   1.00
O476   O     0.82308   0.04276   0.22698   0.00000  Uiso   1.00
O477   O     0.54276   0.17692   0.77302   0.00000  Uiso   1.00
O478   O     0.95725   0.32308   0.22698   0.00000  Uiso   1.00
O479   O     0.82308   0.04276   0.77302   0.00000  Uiso   1.00
O480   O     0.67693   0.45724   0.22698   0.00000  Uiso   1.00
O481   O     0.95725   0.17693   0.22698   0.00000  Uiso   1.00
O482   O     0.54276   0.32307   0.77302   0.00000  Uiso   1.00
O483   O     0.67693   0.04276   0.22698   0.00000  Uiso   1.00
O484   O     0.82308   0.45724   0.77302   0.00000  Uiso   1.00
O485   O     0.54276   0.32307   0.22698   0.00000  Uiso   1.00
O486   O     0.95725   0.17693   0.77302   0.00000  Uiso   1.00
O487   O     0.82308   0.45724   0.22698   0.00000  Uiso   1.00
O488   O     0.67693   0.04276   0.77302   0.00000  Uiso   1.00
Zn489  Zn    0.70660   0.00000   0.21735   0.00000  Uiso   1.00
Zn490  Zn    0.79341  -0.00000   0.78265   0.00000  Uiso   1.00
Zn491  Zn    0.50000   0.20659   0.21735   0.00000  Uiso   1.00
Zn492  Zn    0.50000   0.29341   0.78265   0.00000  Uiso   1.00
Zn493  Zn    0.79341   0.00000   0.21735   0.00000  Uiso   1.00
Zn494  Zn    0.70660  -0.00000   0.78265   0.00000  Uiso   1.00
Zn495  Zn    0.50000   0.29340   0.21735   0.00000  Uiso   1.00
Zn496  Zn    0.50000   0.20660   0.78265   0.00000  Uiso   1.00
Zn497  Zn    0.95660   0.25000   0.71735   0.00000  Uiso   1.00
Zn498  Zn    0.54341   0.25000   0.28265   0.00000  Uiso   1.00
Zn499  Zn    0.75000   0.45659   0.71735   0.00000  Uiso   1.00
Zn500  Zn    0.75000   0.04341   0.28265   0.00000  Uiso   1.00
Zn501  Zn    0.54341   0.25000   0.71735   0.00000  Uiso   1.00
Zn502  Zn    0.95660   0.25000   0.28265   0.00000  Uiso   1.00
Zn503  Zn    0.75000   0.04341   0.71735   0.00000  Uiso   1.00
Zn504  Zn    0.75000   0.45659   0.28265   0.00000  Uiso   1.00
I505   I     0.60370   0.46570   0.28043   0.00000  Uiso   1.00
I506   I     0.89630   0.03430   0.71958   0.00000  Uiso   1.00
I507   I     0.61047   0.17986   0.16604   0.00000  Uiso   1.00
I508   I     0.88953   0.32015   0.83397   0.00000  Uiso   1.00
I509   I     0.89630   0.03430   0.28041   0.00000  Uiso   1.00
I510   I     0.60370   0.46570   0.71959   0.00000  Uiso   1.00
I511   I     0.88953   0.32015   0.16603   0.00000  Uiso   1.00
I512   I     0.61047   0.17985   0.83396   0.00000  Uiso   1.00
I513   I     0.67986   0.11047   0.83396   0.00000  Uiso   1.00
I514   I     0.82014   0.38953   0.16604   0.00000  Uiso   1.00
I515   I     0.53430   0.39631   0.71959   0.00000  Uiso   1.00
I516   I     0.96570   0.10369   0.28040   0.00000  Uiso   1.00
I517   I     0.82014   0.38953   0.83396   0.00000  Uiso   1.00
I518   I     0.67986   0.11047   0.16604   0.00000  Uiso   1.00
I519   I     0.96570   0.10370   0.71958   0.00000  Uiso   1.00
I520   I     0.53430   0.39630   0.28043   0.00000  Uiso   1.00
I521   I     0.85370   0.21570   0.78042   0.00000  Uiso   1.00
I522   I     0.64630   0.28430   0.21957   0.00000  Uiso   1.00
I523   I     0.86047   0.42985   0.66603   0.00000  Uiso   1.00
I524   I     0.63953   0.07014   0.33396   0.00000  Uiso   1.00
I525   I     0.64630   0.28430   0.78041   0.00000  Uiso   1.00
I526   I     0.85370   0.21570   0.21959   0.00000  Uiso   1.00
I527   I     0.63953   0.07014   0.66604   0.00000  Uiso   1.00
I528   I     0.86047   0.42985   0.33396   0.00000  Uiso   1.00
I529   I     0.92986   0.36047   0.33396   0.00000  Uiso   1.00
I530   I     0.57015   0.13953   0.66604   0.00000  Uiso   1.00
I531   I     0.78430   0.14631   0.21959   0.00000  Uiso   1.00
I532   I     0.71570   0.35369   0.78041   0.00000  Uiso   1.00
I533   I     0.57014   0.13953   0.33396   0.00000  Uiso   1.00
I534   I     0.92985   0.36047   0.66604   0.00000  Uiso   1.00
I535   I     0.71569   0.35370   0.21957   0.00000  Uiso   1.00
I536   I     0.78430   0.14631   0.78042   0.00000  Uiso   1.00
C537   C     0.46675   0.75215   0.41884   0.00000  Uiso   1.00
C538   C     0.03325   0.74785   0.58116   0.00000  Uiso   1.00
C539   C     0.25209   0.96674   0.41884   0.00000  Uiso   1.00
C540   C     0.24791   0.53326   0.58116   0.00000  Uiso   1.00
C541   C     0.03325   0.74785   0.41884   0.00000  Uiso   1.00
C542   C     0.46675   0.75215   0.58116   0.00000  Uiso   1.00
C543   C     0.24791   0.53326   0.41884   0.00000  Uiso   1.00
C544   C     0.25209   0.96674   0.58116   0.00000  Uiso   1.00
C545   C     0.21675   0.50213   0.91884   0.00000  Uiso   1.00
C546   C     0.28325   0.99787   0.08116   0.00000  Uiso   1.00
C547   C     0.00221   0.71675   0.91884   0.00000  Uiso   1.00
C548   C     0.49779   0.78325   0.08116   0.00000  Uiso   1.00
C549   C     0.28325   0.99787   0.91884   0.00000  Uiso   1.00
C550   C     0.21675   0.50213   0.08116   0.00000  Uiso   1.00
C551   C     0.49779   0.78325   0.91884   0.00000  Uiso   1.00
C552   C     0.00221   0.71675   0.08116   0.00000  Uiso   1.00
C553   C     0.00000   0.75000   0.39850   0.00000  Uiso   1.00
C554   C     0.00000   0.75000   0.60149   0.00000  Uiso   1.00
C555   C     0.25000   0.50000   0.39850   0.00000  Uiso   1.00
C556   C     0.25000   0.50000   0.60150   0.00000  Uiso   1.00
C557   C     0.25000   0.50000   0.89850   0.00000  Uiso   1.00
C558   C     0.25000   0.50000   0.10149   0.00000  Uiso   1.00
C559   C     0.00000   0.75000   0.89850   0.00000  Uiso   1.00
C560   C    -0.00000   0.75000   0.10150   0.00000  Uiso   1.00
C561   C     0.06661   0.74565   0.47976   0.00000  Uiso   1.00
C562   C     0.43339   0.75435   0.52023   0.00000  Uiso   1.00
C563   C     0.24576   0.56662   0.47976   0.00000  Uiso   1.00
C564   C     0.25424   0.93338   0.52024   0.00000  Uiso   1.00
C565   C     0.43339   0.75435   0.47976   0.00000  Uiso   1.00
C566   C     0.06661   0.74565   0.52024   0.00000  Uiso   1.00
C567   C     0.25424   0.93338   0.47976   0.00000  Uiso   1.00
C568   C     0.24576   0.56662   0.52024   0.00000  Uiso   1.00
C569   C     0.31661   0.99570   0.97976   0.00000  Uiso   1.00
C570   C     0.18339   0.50430   0.02024   0.00000  Uiso   1.00
C571   C     0.49553   0.81660   0.97976   0.00000  Uiso   1.00
C572   C     0.00447   0.68340   0.02024   0.00000  Uiso   1.00
C573   C     0.18339   0.50430   0.97976   0.00000  Uiso   1.00
C574   C     0.31661   0.99570   0.02024   0.00000  Uiso   1.00
C575   C     0.00447   0.68340   0.97976   0.00000  Uiso   1.00
C576   C     0.49553   0.81660   0.02024   0.00000  Uiso   1.00
C577   C     0.25000   0.50000   0.35604   0.00000  Uiso   1.00
C578   C     0.25000   0.50000   0.64396   0.00000  Uiso   1.00
C579   C     0.00000   0.75000   0.35604   0.00000  Uiso   1.00
C580   C     0.00000   0.75000   0.64396   0.00000  Uiso   1.00
C581   C     0.00000   0.75000   0.85604   0.00000  Uiso   1.00
C582   C     0.00000   0.75000   0.14396   0.00000  Uiso   1.00
C583   C     0.25000   0.50000   0.85604   0.00000  Uiso   1.00
C584   C     0.25000   0.50000   0.14396   0.00000  Uiso   1.00
C585   C     0.17998   0.57002   0.25000   0.00000  Uiso   1.00
C586   C     0.32002   0.92998   0.75000   0.00000  Uiso   1.00
C587   C     0.42998   0.67998   0.25000   0.00000  Uiso   1.00
C588   C     0.07002   0.82002   0.75000   0.00000  Uiso   1.00
C589   C     0.32002   0.92998   0.25000   0.00000  Uiso   1.00
C590   C     0.17998   0.57002   0.75000   0.00000  Uiso   1.00
C591   C     0.07002   0.82002   0.25000   0.00000  Uiso   1.00
C592   C     0.42998   0.67998   0.75000   0.00000  Uiso   1.00
C593   C     0.17998   0.92998   0.75000   0.00000  Uiso   1.00
C594   C     0.32002   0.57002   0.25000   0.00000  Uiso   1.00
C595   C     0.42998   0.82002   0.75000   0.00000  Uiso   1.00
C596   C     0.07002   0.67998   0.25000   0.00000  Uiso   1.00
C597   C     0.32002   0.57002   0.75000   0.00000  Uiso   1.00
C598   C     0.17998   0.92998   0.25000   0.00000  Uiso   1.00
C599   C     0.07002   0.67998   0.75000   0.00000  Uiso   1.00
C600   C     0.42998   0.82002   0.25000   0.00000  Uiso   1.00
C601   C     0.11605   0.91109   0.26143   0.00000  Uiso   1.00
C602   C     0.38395   0.58891   0.73857   0.00000  Uiso   1.00
C603   C     0.11900   0.64614   0.21624   0.00000  Uiso   1.00
C604   C     0.38100   0.85386   0.78376   0.00000  Uiso   1.00
C605   C     0.38396   0.58891   0.26142   0.00000  Uiso   1.00
C606   C     0.11605   0.91109   0.73857   0.00000  Uiso   1.00
C607   C     0.38100   0.85386   0.21624   0.00000  Uiso   1.00
C608   C     0.11900   0.64614   0.78376   0.00000  Uiso   1.00
C609   C     0.14614   0.61901   0.78376   0.00000  Uiso   1.00
C610   C     0.35386   0.88100   0.21624   0.00000  Uiso   1.00
C611   C     0.08891   0.88396   0.73857   0.00000  Uiso   1.00
C612   C     0.41109   0.61604   0.26142   0.00000  Uiso   1.00
C613   C     0.35386   0.88100   0.78376   0.00000  Uiso   1.00
C614   C     0.14614   0.61901   0.21624   0.00000  Uiso   1.00
C615   C     0.41109   0.61604   0.73857   0.00000  Uiso   1.00
C616   C     0.08891   0.88396   0.26143   0.00000  Uiso   1.00
C617   C     0.36605   0.66109   0.76143   0.00000  Uiso   1.00
C618   C     0.13395   0.83891   0.23857   0.00000  Uiso   1.00
C619   C     0.36900   0.89614   0.71624   0.00000  Uiso   1.00
C620   C     0.13100   0.60386   0.28376   0.00000  Uiso   1.00
C621   C     0.13396   0.83891   0.76143   0.00000  Uiso   1.00
C622   C     0.36604   0.66109   0.23858   0.00000  Uiso   1.00
C623   C     0.13100   0.60386   0.71624   0.00000  Uiso   1.00
C624   C     0.36900   0.89614   0.28376   0.00000  Uiso   1.00
C625   C     0.39614   0.86900   0.28376   0.00000  Uiso   1.00
C626   C     0.10386   0.63099   0.71624   0.00000  Uiso   1.00
C627   C     0.33891   0.63396   0.23858   0.00000  Uiso   1.00
C628   C     0.16109   0.86604   0.76142   0.00000  Uiso   1.00
C629   C     0.10386   0.63099   0.28376   0.00000  Uiso   1.00
C630   C     0.39614   0.86900   0.71624   0.00000  Uiso   1.00
C631   C     0.16109   0.86604   0.23857   0.00000  Uiso   1.00
C632   C     0.33891   0.63396   0.76143   0.00000  Uiso   1.00
C633   C     0.03348   0.74782   0.45930   0.00000  Uiso   1.00
C634   C     0.46652   0.75218   0.54070   0.00000  Uiso   1.00
C635   C     0.24788   0.53349   0.45930   0.00000  Uiso   1.00
C636   C     0.25212   0.96651   0.54070   0.00000  Uiso   1.00
C637   C     0.46652   0.75218   0.45930   0.00000  Uiso   1.00
C638   C     0.03348   0.74782   0.54070   0.00000  Uiso   1.00
C639   C     0.25212   0.96651   0.45930   0.00000  Uiso   1.00
C640   C     0.24788   0.53349   0.54070   0.00000  Uiso   1.00
C641   C     0.28348   0.99785   0.95930   0.00000  Uiso   1.00
C642   C     0.21652   0.50215   0.04070   0.00000  Uiso   1.00
C643   C     0.49776   0.78348   0.95930   0.00000  Uiso   1.00
C644   C     0.00224   0.71652   0.04070   0.00000  Uiso   1.00
C645   C     0.21652   0.50215   0.95930   0.00000  Uiso   1.00
C646   C     0.28348   0.99785   0.04070   0.00000  Uiso   1.00
C647   C     0.00224   0.71652   0.95930   0.00000  Uiso   1.00
C648   C     0.49776   0.78348   0.04070   0.00000  Uiso   1.00
C649   C     0.09808   0.84808   0.25000   0.00000  Uiso   1.00
C650   C     0.40192   0.65192   0.75000   0.00000  Uiso   1.00
C651   C     0.15192   0.59808   0.25000   0.00000  Uiso   1.00
C652   C     0.34808   0.90192   0.75000   0.00000  Uiso   1.00
C653   C     0.40192   0.65192   0.25000   0.00000  Uiso   1.00
C654   C     0.09808   0.84808   0.75000   0.00000  Uiso   1.00
C655   C     0.34808   0.90192   0.25000   0.00000  Uiso   1.00
C656   C     0.15192   0.59808   0.75000   0.00000  Uiso   1.00
C657   C     0.09808   0.65192   0.75000   0.00000  Uiso   1.00
C658   C     0.40192   0.84808   0.25000   0.00000  Uiso   1.00
C659   C     0.15192   0.90192   0.75000   0.00000  Uiso   1.00
C660   C     0.34808   0.59808   0.25000   0.00000  Uiso   1.00
C661   C     0.40192   0.84808   0.75000   0.00000  Uiso   1.00
C662   C     0.09808   0.65192   0.25000   0.00000  Uiso   1.00
C663   C     0.34808   0.59809   0.75000   0.00000  Uiso   1.00
C664   C     0.15192   0.90192   0.25000   0.00000  Uiso   1.00
C665   C     0.00000   0.75000   0.47964   0.00000  Uiso   1.00
C666   C     0.00000   0.75000   0.52036   0.00000  Uiso   1.00
C667   C     0.25000   0.50000   0.47964   0.00000  Uiso   1.00
C668   C     0.25000   0.50000   0.52036   0.00000  Uiso   1.00
C669   C     0.25000   0.50000   0.97964   0.00000  Uiso   1.00
C670   C     0.25000   0.50000   0.02036   0.00000  Uiso   1.00
C671   C     0.00000   0.75000   0.97964   0.00000  Uiso   1.00
C672   C     0.00000   0.75000   0.02036   0.00000  Uiso   1.00
H673   H     0.09249   0.74395   0.46447   0.00000  Uiso   1.00
H674   H     0.40751   0.75605   0.53553   0.00000  Uiso   1.00
H675   H     0.24411   0.59250   0.46447   0.00000  Uiso   1.00
H676   H     0.25589   0.90750   0.53553   0.00000  Uiso   1.00
H677   H     0.40751   0.75605   0.46447   0.00000  Uiso   1.00
H678   H     0.09249   0.74395   0.53553   0.00000  Uiso   1.00
H679   H     0.25589   0.90750   0.46447   0.00000  Uiso   1.00
H680   H     0.24411   0.59250   0.53553   0.00000  Uiso   1.00
H681   H     0.34250   0.99403   0.96447   0.00000  Uiso   1.00
H682   H     0.15750   0.50597   0.03553   0.00000  Uiso   1.00
H683   H     0.49379   0.84248   0.96447   0.00000  Uiso   1.00
H684   H     0.00621   0.65752   0.03553   0.00000  Uiso   1.00
H685   H     0.15750   0.50597   0.96447   0.00000  Uiso   1.00
H686   H     0.34250   0.99403   0.03553   0.00000  Uiso   1.00
H687   H     0.00621   0.65752   0.96447   0.00000  Uiso   1.00
H688   H     0.49379   0.84248   0.03553   0.00000  Uiso   1.00
H689   H     0.44102   0.75388   0.40321   0.00000  Uiso   1.00
H690   H     0.05898   0.74612   0.59678   0.00000  Uiso   1.00
H691   H     0.25378   0.94101   0.40321   0.00000  Uiso   1.00
H692   H     0.24622   0.55899   0.59678   0.00000  Uiso   1.00
H693   H     0.05898   0.74612   0.40321   0.00000  Uiso   1.00
H694   H     0.44102   0.75388   0.59678   0.00000  Uiso   1.00
H695   H     0.24622   0.55899   0.40321   0.00000  Uiso   1.00
H696   H     0.25378   0.94101   0.59678   0.00000  Uiso   1.00
H697   H     0.19102   0.50383   0.90321   0.00000  Uiso   1.00
H698   H     0.30898   0.99617   0.09678   0.00000  Uiso   1.00
H699   H     0.00398   0.69103   0.90321   0.00000  Uiso   1.00
H700   H     0.49602   0.80897   0.09679   0.00000  Uiso   1.00
H701   H     0.30898   0.99617   0.90322   0.00000  Uiso   1.00
H702   H     0.19102   0.50383   0.09678   0.00000  Uiso   1.00
H703   H     0.49602   0.80897   0.90321   0.00000  Uiso   1.00
H704   H     0.00398   0.69103   0.09679   0.00000  Uiso   1.00
O705   O     0.25000   0.50000   0.25000   0.00000  Uiso   1.00
O706   O     0.25000   0.50000   0.75000   0.00000  Uiso   1.00
O707   O     0.00000   0.75000   0.25000   0.00000  Uiso   1.00
O708   O     0.00000   0.75000   0.75000   0.00000  Uiso   1.00
O709   O     0.25000   0.96963   0.33755   0.00000  Uiso   1.00
O710   O     0.25000   0.53037   0.66245   0.00000  Uiso   1.00
O711   O     0.03037   0.75000   0.33755   0.00000  Uiso   1.00
O712   O     0.46964   0.75000   0.66245   0.00000  Uiso   1.00
O713   O     0.25000   0.53037   0.33755   0.00000  Uiso   1.00
O714   O     0.25000   0.96963   0.66245   0.00000  Uiso   1.00
O715   O     0.46964   0.75000   0.33755   0.00000  Uiso   1.00
O716   O     0.03037   0.75000   0.66245   0.00000  Uiso   1.00
O717   O     0.00000   0.71963   0.83755   0.00000  Uiso   1.00
O718   O     0.00000   0.78037   0.16245   0.00000  Uiso   1.00
O719   O     0.28037   0.50000   0.83755   0.00000  Uiso   1.00
O720   O     0.21964   0.50000   0.16245   0.00000  Uiso   1.00
O721   O     0.00000   0.78036   0.83755   0.00000  Uiso   1.00
O722   O     0.00000   0.71964   0.16245   0.00000  Uiso   1.00
O723   O     0.21964   0.50000   0.83755   0.00000  Uiso   1.00
O724   O     0.28037   0.50000   0.16245   0.00000  Uiso   1.00
O725   O     0.20725   0.57308   0.27302   0.00000  Uiso   1.00
O726   O     0.29276   0.92692   0.72698   0.00000  Uiso   1.00
O727   O     0.42693   0.70725   0.27302   0.00000  Uiso   1.00
O728   O     0.07308   0.79275   0.72698   0.00000  Uiso   1.00
O729   O     0.29276   0.92692   0.27302   0.00000  Uiso   1.00
O730   O     0.20725   0.57308   0.72698   0.00000  Uiso   1.00
O731   O     0.07308   0.79275   0.27302   0.00000  Uiso   1.00
O732   O     0.42693   0.70725   0.72698   0.00000  Uiso   1.00
O733   O     0.20725   0.92692   0.72698   0.00000  Uiso   1.00
O734   O     0.29276   0.57308   0.27302   0.00000  Uiso   1.00
O735   O     0.42693   0.79276   0.72698   0.00000  Uiso   1.00
O736   O     0.07308   0.70724   0.27302   0.00000  Uiso   1.00
O737   O     0.29276   0.57308   0.72698   0.00000  Uiso   1.00
O738   O     0.20725   0.92692   0.27302   0.00000  Uiso   1.00
O739   O     0.07308   0.70724   0.72698   0.00000  Uiso   1.00
O740   O     0.42693   0.79276   0.27302   0.00000  Uiso   1.00
O741   O     0.45725   0.82308   0.77302   0.00000  Uiso   1.00
O742   O     0.04276   0.67692   0.22698   0.00000  Uiso   1.00
O743   O     0.17693   0.95724   0.77302   0.00000  Uiso   1.00
O744   O     0.32308   0.54276   0.22698   0.00000  Uiso   1.00
O745   O     0.04276   0.67692   0.77302   0.00000  Uiso   1.00
O746   O     0.45725   0.82308   0.22698   0.00000  Uiso   1.00
O747   O     0.32308   0.54276   0.77302   0.00000  Uiso   1.00
O748   O     0.17693   0.95724   0.22698   0.00000  Uiso   1.00
O749   O     0.45725   0.67693   0.22698   0.00000  Uiso   1.00
O750   O     0.04276   0.82307   0.77302   0.00000  Uiso   1.00
O751   O     0.17693   0.54276   0.22698   0.00000  Uiso   1.00
O752   O     0.32308   0.95724   0.77302   0.00000  Uiso   1.00
O753   O     0.04276   0.82307   0.22698   0.00000  Uiso   1.00
O754   O     0.45725   0.67693   0.77302   0.00000  Uiso   1.00
O755   O     0.32308   0.95724   0.22698   0.00000  Uiso   1.00
O756   O     0.17693   0.54276   0.77302   0.00000  Uiso   1.00
Zn757  Zn    0.20660   0.50000   0.21735   0.00000  Uiso   1.00
Zn758  Zn    0.29341   0.50000   0.78265   0.00000  Uiso   1.00
Zn759  Zn    0.00000   0.70659   0.21735   0.00000  Uiso   1.00
Zn760  Zn    0.00000   0.79341   0.78265   0.00000  Uiso   1.00
Zn761  Zn    0.29341   0.50000   0.21735   0.00000  Uiso   1.00
Zn762  Zn    0.20660   0.50000   0.78265   0.00000  Uiso   1.00
Zn763  Zn    0.00000   0.79340   0.21735   0.00000  Uiso   1.00
Zn764  Zn    0.00000   0.70660   0.78265   0.00000  Uiso   1.00
Zn765  Zn    0.45660   0.75000   0.71735   0.00000  Uiso   1.00
Zn766  Zn    0.04341   0.75000   0.28265   0.00000  Uiso   1.00
Zn767  Zn    0.25000   0.95659   0.71735   0.00000  Uiso   1.00
Zn768  Zn    0.25000   0.54341   0.28265   0.00000  Uiso   1.00
Zn769  Zn    0.04341   0.75000   0.71735   0.00000  Uiso   1.00
Zn770  Zn    0.45660   0.75000   0.28265   0.00000  Uiso   1.00
Zn771  Zn    0.25000   0.54341   0.71735   0.00000  Uiso   1.00
Zn772  Zn    0.25000   0.95659   0.28265   0.00000  Uiso   1.00
I773   I     0.10370   0.96570   0.28043   0.00000  Uiso   1.00
I774   I     0.39630   0.53430   0.71958   0.00000  Uiso   1.00
I775   I     0.11047   0.67986   0.16604   0.00000  Uiso   1.00
I776   I     0.38953   0.82015   0.83397   0.00000  Uiso   1.00
I777   I     0.39630   0.53430   0.28041   0.00000  Uiso   1.00
I778   I     0.10370   0.96570   0.71959   0.00000  Uiso   1.00
I779   I     0.38953   0.82015   0.16603   0.00000  Uiso   1.00
I780   I     0.11047   0.67985   0.83396   0.00000  Uiso   1.00
I781   I     0.17986   0.61047   0.83396   0.00000  Uiso   1.00
I782   I     0.32014   0.88953   0.16604   0.00000  Uiso   1.00
I783   I     0.03430   0.89631   0.71959   0.00000  Uiso   1.00
I784   I     0.46570   0.60369   0.28040   0.00000  Uiso   1.00
I785   I     0.32014   0.88953   0.83396   0.00000  Uiso   1.00
I786   I     0.17986   0.61047   0.16604   0.00000  Uiso   1.00
I787   I     0.46570   0.60370   0.71958   0.00000  Uiso   1.00
I788   I     0.03430   0.89630   0.28043   0.00000  Uiso   1.00
I789   I     0.35370   0.71570   0.78042   0.00000  Uiso   1.00
I790   I     0.14630   0.78430   0.21957   0.00000  Uiso   1.00
I791   I     0.36047   0.92985   0.66603   0.00000  Uiso   1.00
I792   I     0.13953   0.57014   0.33396   0.00000  Uiso   1.00
I793   I     0.14630   0.78430   0.78041   0.00000  Uiso   1.00
I794   I     0.35370   0.71570   0.21959   0.00000  Uiso   1.00
I795   I     0.13953   0.57014   0.66604   0.00000  Uiso   1.00
I796   I     0.36047   0.92985   0.33396   0.00000  Uiso   1.00
I797   I     0.42986   0.86047   0.33396   0.00000  Uiso   1.00
I798   I     0.07015   0.63953   0.66604   0.00000  Uiso   1.00
I799   I     0.28430   0.64631   0.21959   0.00000  Uiso   1.00
I800   I     0.21570   0.85369   0.78041   0.00000  Uiso   1.00
I801   I     0.07014   0.63953   0.33396   0.00000  Uiso   1.00
I802   I     0.42985   0.86047   0.66604   0.00000  Uiso   1.00
I803   I     0.21569   0.85370   0.21957   0.00000  Uiso   1.00
I804   I     0.28430   0.64631   0.78042   0.00000  Uiso   1.00
C805   C     0.96675   0.75215   0.41884   0.00000  Uiso   1.00
C806   C     0.53325   0.74785   0.58116   0.00000  Uiso   1.00
C807   C     0.75209   0.96674   0.41884   0.00000  Uiso   1.00
C808   C     0.74791   0.53326   0.58116   0.00000  Uiso   1.00
C809   C     0.53325   0.74785   0.41884   0.00000  Uiso   1.00
C810   C     0.96675   0.75215   0.58116   0.00000  Uiso   1.00
C811   C     0.74791   0.53326   0.41884   0.00000  Uiso   1.00
C812   C     0.75209   0.96674   0.58116   0.00000  Uiso   1.00
C813   C     0.71675   0.50213   0.91884   0.00000  Uiso   1.00
C814   C     0.78325   0.99787   0.08116   0.00000  Uiso   1.00
C815   C     0.50221   0.71675   0.91884   0.00000  Uiso   1.00
C816   C     0.99779   0.78325   0.08116   0.00000  Uiso   1.00
C817   C     0.78325   0.99787   0.91884   0.00000  Uiso   1.00
C818   C     0.71675   0.50213   0.08116   0.00000  Uiso   1.00
C819   C     0.99779   0.78325   0.91884   0.00000  Uiso   1.00
C820   C     0.50221   0.71675   0.08116   0.00000  Uiso   1.00
C821   C     0.50000   0.75000   0.39850   0.00000  Uiso   1.00
C822   C     0.50000   0.75000   0.60149   0.00000  Uiso   1.00
C823   C     0.75000   0.50000   0.39850   0.00000  Uiso   1.00
C824   C     0.75000   0.50000   0.60150   0.00000  Uiso   1.00
C825   C     0.75000   0.50000   0.89850   0.00000  Uiso   1.00
C826   C     0.75000   0.50000   0.10149   0.00000  Uiso   1.00
C827   C     0.50000   0.75000   0.89850   0.00000  Uiso   1.00
C828   C     0.50000   0.75000   0.10150   0.00000  Uiso   1.00
C829   C     0.56661   0.74565   0.47976   0.00000  Uiso   1.00
C830   C     0.93339   0.75435   0.52023   0.00000  Uiso   1.00
C831   C     0.74576   0.56662   0.47976   0.00000  Uiso   1.00
C832   C     0.75424   0.93338   0.52024   0.00000  Uiso   1.00
C833   C     0.93339   0.75435   0.47976   0.00000  Uiso   1.00
C834   C     0.56661   0.74565   0.52024   0.00000  Uiso   1.00
C835   C     0.75424   0.93338   0.47976   0.00000  Uiso   1.00
C836   C     0.74576   0.56662   0.52024   0.00000  Uiso   1.00
C837   C     0.81661   0.99570   0.97976   0.00000  Uiso   1.00
C838   C     0.68339   0.50430   0.02024   0.00000  Uiso   1.00
C839   C     0.99553   0.81660   0.97976   0.00000  Uiso   1.00
C840   C     0.50447   0.68340   0.02024   0.00000  Uiso   1.00
C841   C     0.68339   0.50430   0.97976   0.00000  Uiso   1.00
C842   C     0.81661   0.99570   0.02024   0.00000  Uiso   1.00
C843   C     0.50447   0.68340   0.97976   0.00000  Uiso   1.00
C844   C     0.99553   0.81660   0.02024   0.00000  Uiso   1.00
C845   C     0.75000   0.50000   0.35604   0.00000  Uiso   1.00
C846   C     0.75000   0.50000   0.64396   0.00000  Uiso   1.00
C847   C     0.50000   0.75000   0.35604   0.00000  Uiso   1.00
C848   C     0.50000   0.75000   0.64396   0.00000  Uiso   1.00
C849   C     0.50000   0.75000   0.85604   0.00000  Uiso   1.00
C850   C     0.50000   0.75000   0.14396   0.00000  Uiso   1.00
C851   C     0.75000   0.50000   0.85604   0.00000  Uiso   1.00
C852   C     0.75000   0.50000   0.14396   0.00000  Uiso   1.00
C853   C     0.67998   0.57002   0.25000   0.00000  Uiso   1.00
C854   C     0.82002   0.92998   0.75000   0.00000  Uiso   1.00
C855   C     0.92998   0.67998   0.25000   0.00000  Uiso   1.00
C856   C     0.57002   0.82002   0.75000   0.00000  Uiso   1.00
C857   C     0.82002   0.92998   0.25000   0.00000  Uiso   1.00
C858   C     0.67998   0.57002   0.75000   0.00000  Uiso   1.00
C859   C     0.57002   0.82002   0.25000   0.00000  Uiso   1.00
C860   C     0.92998   0.67998   0.75000   0.00000  Uiso   1.00
C861   C     0.67998   0.92998   0.75000   0.00000  Uiso   1.00
C862   C     0.82002   0.57002   0.25000   0.00000  Uiso   1.00
C863   C     0.92998   0.82002   0.75000   0.00000  Uiso   1.00
C864   C     0.57002   0.67998   0.25000   0.00000  Uiso   1.00
C865   C     0.82002   0.57002   0.75000   0.00000  Uiso   1.00
C866   C     0.67998   0.92998   0.25000   0.00000  Uiso   1.00
C867   C     0.57002   0.67998   0.75000   0.00000  Uiso   1.00
C868   C     0.92998   0.82002   0.25000   0.00000  Uiso   1.00
C869   C     0.61605   0.91109   0.26143   0.00000  Uiso   1.00
C870   C     0.88395   0.58891   0.73857   0.00000  Uiso   1.00
C871   C     0.61900   0.64614   0.21624   0.00000  Uiso   1.00
C872   C     0.88100   0.85386   0.78376   0.00000  Uiso   1.00
C873   C     0.88396   0.58891   0.26142   0.00000  Uiso   1.00
C874   C     0.61605   0.91109   0.73857   0.00000  Uiso   1.00
C875   C     0.88100   0.85386   0.21624   0.00000  Uiso   1.00
C876   C     0.61900   0.64614   0.78376   0.00000  Uiso   1.00
C877   C     0.64614   0.61901   0.78376   0.00000  Uiso   1.00
C878   C     0.85386   0.88100   0.21624   0.00000  Uiso   1.00
C879   C     0.58891   0.88396   0.73857   0.00000  Uiso   1.00
C880   C     0.91109   0.61604   0.26142   0.00000  Uiso   1.00
C881   C     0.85386   0.88100   0.78376   0.00000  Uiso   1.00
C882   C     0.64614   0.61901   0.21624   0.00000  Uiso   1.00
C883   C     0.91109   0.61604   0.73857   0.00000  Uiso   1.00
C884   C     0.58891   0.88396   0.26143   0.00000  Uiso   1.00
C885   C     0.86605   0.66109   0.76143   0.00000  Uiso   1.00
C886   C     0.63395   0.83891   0.23857   0.00000  Uiso   1.00
C887   C     0.86900   0.89614   0.71624   0.00000  Uiso   1.00
C888   C     0.63100   0.60386   0.28376   0.00000  Uiso   1.00
C889   C     0.63396   0.83891   0.76143   0.00000  Uiso   1.00
C890   C     0.86604   0.66109   0.23858   0.00000  Uiso   1.00
C891   C     0.63100   0.60386   0.71624   0.00000  Uiso   1.00
C892   C     0.86900   0.89614   0.28376   0.00000  Uiso   1.00
C893   C     0.89614   0.86900   0.28376   0.00000  Uiso   1.00
C894   C     0.60386   0.63099   0.71624   0.00000  Uiso   1.00
C895   C     0.83891   0.63396   0.23858   0.00000  Uiso   1.00
C896   C     0.66109   0.86604   0.76142   0.00000  Uiso   1.00
C897   C     0.60386   0.63099   0.28376   0.00000  Uiso   1.00
C898   C     0.89614   0.86900   0.71624   0.00000  Uiso   1.00
C899   C     0.66109   0.86604   0.23857   0.00000  Uiso   1.00
C900   C     0.83891   0.63396   0.76143   0.00000  Uiso   1.00
C901   C     0.53348   0.74782   0.45930   0.00000  Uiso   1.00
C902   C     0.96652   0.75218   0.54070   0.00000  Uiso   1.00
C903   C     0.74788   0.53349   0.45930   0.00000  Uiso   1.00
C904   C     0.75212   0.96651   0.54070   0.00000  Uiso   1.00
C905   C     0.96652   0.75218   0.45930   0.00000  Uiso   1.00
C906   C     0.53348   0.74782   0.54070   0.00000  Uiso   1.00
C907   C     0.75212   0.96651   0.45930   0.00000  Uiso   1.00
C908   C     0.74788   0.53349   0.54070   0.00000  Uiso   1.00
C909   C     0.78348   0.99785   0.95930   0.00000  Uiso   1.00
C910   C     0.71652   0.50215   0.04070   0.00000  Uiso   1.00
C911   C     0.99776   0.78348   0.95930   0.00000  Uiso   1.00
C912   C     0.50224   0.71652   0.04070   0.00000  Uiso   1.00
C913   C     0.71652   0.50215   0.95930   0.00000  Uiso   1.00
C914   C     0.78348   0.99785   0.04070   0.00000  Uiso   1.00
C915   C     0.50224   0.71652   0.95930   0.00000  Uiso   1.00
C916   C     0.99776   0.78348   0.04070   0.00000  Uiso   1.00
C917   C     0.59808   0.84808   0.25000   0.00000  Uiso   1.00
C918   C     0.90192   0.65192   0.75000   0.00000  Uiso   1.00
C919   C     0.65192   0.59808   0.25000   0.00000  Uiso   1.00
C920   C     0.84808   0.90192   0.75000   0.00000  Uiso   1.00
C921   C     0.90192   0.65192   0.25000   0.00000  Uiso   1.00
C922   C     0.59808   0.84808   0.75000   0.00000  Uiso   1.00
C923   C     0.84808   0.90192   0.25000   0.00000  Uiso   1.00
C924   C     0.65192   0.59808   0.75000   0.00000  Uiso   1.00
C925   C     0.59808   0.65192   0.75000   0.00000  Uiso   1.00
C926   C     0.90192   0.84808   0.25000   0.00000  Uiso   1.00
C927   C     0.65192   0.90192   0.75000   0.00000  Uiso   1.00
C928   C     0.84808   0.59808   0.25000   0.00000  Uiso   1.00
C929   C     0.90192   0.84808   0.75000   0.00000  Uiso   1.00
C930   C     0.59808   0.65192   0.25000   0.00000  Uiso   1.00
C931   C     0.84808   0.59809   0.75000   0.00000  Uiso   1.00
C932   C     0.65192   0.90192   0.25000   0.00000  Uiso   1.00
C933   C     0.50000   0.75000   0.47964   0.00000  Uiso   1.00
C934   C     0.50000   0.75000   0.52036   0.00000  Uiso   1.00
C935   C     0.75000   0.50000   0.47964   0.00000  Uiso   1.00
C936   C     0.75000   0.50000   0.52036   0.00000  Uiso   1.00
C937   C     0.75000   0.50000   0.97964   0.00000  Uiso   1.00
C938   C     0.75000   0.50000   0.02036   0.00000  Uiso   1.00
C939   C     0.50000   0.75000   0.97964   0.00000  Uiso   1.00
C940   C     0.50000   0.75000   0.02036   0.00000  Uiso   1.00
H941   H     0.59249   0.74395   0.46447   0.00000  Uiso   1.00
H942   H     0.90751   0.75605   0.53553   0.00000  Uiso   1.00
H943   H     0.74411   0.59250   0.46447   0.00000  Uiso   1.00
H944   H     0.75589   0.90750   0.53553   0.00000  Uiso   1.00
H945   H     0.90751   0.75605   0.46447   0.00000  Uiso   1.00
H946   H     0.59249   0.74395   0.53553   0.00000  Uiso   1.00
H947   H     0.75589   0.90750   0.46447   0.00000  Uiso   1.00
H948   H     0.74411   0.59250   0.53553   0.00000  Uiso   1.00
H949   H     0.84250   0.99403   0.96447   0.00000  Uiso   1.00
H950   H     0.65750   0.50597   0.03553   0.00000  Uiso   1.00
H951   H     0.99379   0.84248   0.96447   0.00000  Uiso   1.00
H952   H     0.50621   0.65752   0.03553   0.00000  Uiso   1.00
H953   H     0.65750   0.50597   0.96447   0.00000  Uiso   1.00
H954   H     0.84250   0.99403   0.03553   0.00000  Uiso   1.00
H955   H     0.50621   0.65752   0.96447   0.00000  Uiso   1.00
H956   H     0.99379   0.84248   0.03553   0.00000  Uiso   1.00
H957   H     0.94102   0.75388   0.40321   0.00000  Uiso   1.00
H958   H     0.55898   0.74612   0.59678   0.00000  Uiso   1.00
H959   H     0.75378   0.94101   0.40321   0.00000  Uiso   1.00
H960   H     0.74622   0.55899   0.59678   0.00000  Uiso   1.00
H961   H     0.55898   0.74612   0.40321   0.00000  Uiso   1.00
H962   H     0.94102   0.75388   0.59678   0.00000  Uiso   1.00
H963   H     0.74622   0.55899   0.40321   0.00000  Uiso   1.00
H964   H     0.75378   0.94101   0.59678   0.00000  Uiso   1.00
H965   H     0.69102   0.50383   0.90321   0.00000  Uiso   1.00
H966   H     0.80898   0.99617   0.09678   0.00000  Uiso   1.00
H967   H     0.50398   0.69103   0.90321   0.00000  Uiso   1.00
H968   H     0.99602   0.80897   0.09679   0.00000  Uiso   1.00
H969   H     0.80898   0.99617   0.90322   0.00000  Uiso   1.00
H970   H     0.69102   0.50383   0.09678   0.00000  Uiso   1.00
H971   H     0.99602   0.80897   0.90321   0.00000  Uiso   1.00
H972   H     0.50398   0.69103   0.09679   0.00000  Uiso   1.00
O973   O     0.75000   0.50000   0.25000   0.00000  Uiso   1.00
O974   O     0.75000   0.50000   0.75000   0.00000  Uiso   1.00
O975   O     0.50000   0.75000   0.25000   0.00000  Uiso   1.00
O976   O     0.50000   0.75000   0.75000   0.00000  Uiso   1.00
O977   O     0.75000   0.96963   0.33755   0.00000  Uiso   1.00
O978   O     0.75000   0.53037   0.66245   0.00000  Uiso   1.00
O979   O     0.53037   0.75000   0.33755   0.00000  Uiso   1.00
O980   O     0.96964   0.75000   0.66245   0.00000  Uiso   1.00
O981   O     0.75000   0.53037   0.33755   0.00000  Uiso   1.00
O982   O     0.75000   0.96963   0.66245   0.00000  Uiso   1.00
O983   O     0.96964   0.75000   0.33755   0.00000  Uiso   1.00
O984   O     0.53037   0.75000   0.66245   0.00000  Uiso   1.00
O985   O     0.50000   0.71963   0.83755   0.00000  Uiso   1.00
O986   O     0.50000   0.78037   0.16245   0.00000  Uiso   1.00
O987   O     0.78037   0.50000   0.83755   0.00000  Uiso   1.00
O988   O     0.71964   0.50000   0.16245   0.00000  Uiso   1.00
O989   O     0.50000   0.78036   0.83755   0.00000  Uiso   1.00
O990   O     0.50000   0.71964   0.16245   0.00000  Uiso   1.00
O991   O     0.71964   0.50000   0.83755   0.00000  Uiso   1.00
O992   O     0.78037   0.50000   0.16245   0.00000  Uiso   1.00
O993   O     0.70725   0.57308   0.27302   0.00000  Uiso   1.00
O994   O     0.79276   0.92692   0.72698   0.00000  Uiso   1.00
O995   O     0.92693   0.70725   0.27302   0.00000  Uiso   1.00
O996   O     0.57308   0.79275   0.72698   0.00000  Uiso   1.00
O997   O     0.79276   0.92692   0.27302   0.00000  Uiso   1.00
O998   O     0.70725   0.57308   0.72698   0.00000  Uiso   1.00
O999   O     0.57308   0.79275   0.27302   0.00000  Uiso   1.00
O1000  O     0.92693   0.70725   0.72698   0.00000  Uiso   1.00
O1001  O     0.70725   0.92692   0.72698   0.00000  Uiso   1.00
O1002  O     0.79276   0.57308   0.27302   0.00000  Uiso   1.00
O1003  O     0.92693   0.79276   0.72698   0.00000  Uiso   1.00
O1004  O     0.57308   0.70724   0.27302   0.00000  Uiso   1.00
O1005  O     0.79276   0.57308   0.72698   0.00000  Uiso   1.00
O1006  O     0.70725   0.92692   0.27302   0.00000  Uiso   1.00
O1007  O     0.57308   0.70724   0.72698   0.00000  Uiso   1.00
O1008  O     0.92693   0.79276   0.27302   0.00000  Uiso   1.00
O1009  O     0.95725   0.82308   0.77302   0.00000  Uiso   1.00
O1010  O     0.54276   0.67692   0.22698   0.00000  Uiso   1.00
O1011  O     0.67693   0.95724   0.77302   0.00000  Uiso   1.00
O1012  O     0.82308   0.54276   0.22698   0.00000  Uiso   1.00
O1013  O     0.54276   0.67692   0.77302   0.00000  Uiso   1.00
O1014  O     0.95725   0.82308   0.22698   0.00000  Uiso   1.00
O1015  O     0.82308   0.54276   0.77302   0.00000  Uiso   1.00
O1016  O     0.67693   0.95724   0.22698   0.00000  Uiso   1.00
O1017  O     0.95725   0.67693   0.22698   0.00000  Uiso   1.00
O1018  O     0.54276   0.82307   0.77302   0.00000  Uiso   1.00
O1019  O     0.67693   0.54276   0.22698   0.00000  Uiso   1.00
O1020  O     0.82308   0.95724   0.77302   0.00000  Uiso   1.00
O1021  O     0.54276   0.82307   0.22698   0.00000  Uiso   1.00
O1022  O     0.95725   0.67693   0.77302   0.00000  Uiso   1.00
O1023  O     0.82308   0.95724   0.22698   0.00000  Uiso   1.00
O1024  O     0.67693   0.54276   0.77302   0.00000  Uiso   1.00
Zn1025 Zn    0.70660   0.50000   0.21735   0.00000  Uiso   1.00
Zn1026 Zn    0.79341   0.50000   0.78265   0.00000  Uiso   1.00
Zn1027 Zn    0.50000   0.70659   0.21735   0.00000  Uiso   1.00
Zn1028 Zn    0.50000   0.79341   0.78265   0.00000  Uiso   1.00
Zn1029 Zn    0.79341   0.50000   0.21735   0.00000  Uiso   1.00
Zn1030 Zn    0.70660   0.50000   0.78265   0.00000  Uiso   1.00
Zn1031 Zn    0.50000   0.79340   0.21735   0.00000  Uiso   1.00
Zn1032 Zn    0.50000   0.70660   0.78265   0.00000  Uiso   1.00
Zn1033 Zn    0.95660   0.75000   0.71735   0.00000  Uiso   1.00
Zn1034 Zn    0.54341   0.75000   0.28265   0.00000  Uiso   1.00
Zn1035 Zn    0.75000   0.95659   0.71735   0.00000  Uiso   1.00
Zn1036 Zn    0.75000   0.54341   0.28265   0.00000  Uiso   1.00
Zn1037 Zn    0.54341   0.75000   0.71735   0.00000  Uiso   1.00
Zn1038 Zn    0.95660   0.75000   0.28265   0.00000  Uiso   1.00
Zn1039 Zn    0.75000   0.54341   0.71735   0.00000  Uiso   1.00
Zn1040 Zn    0.75000   0.95659   0.28265   0.00000  Uiso   1.00
I1041  I     0.60370   0.96570   0.28043   0.00000  Uiso   1.00
I1042  I     0.89630   0.53430   0.71958   0.00000  Uiso   1.00
I1043  I     0.61047   0.67986   0.16604   0.00000  Uiso   1.00
I1044  I     0.88953   0.82015   0.83397   0.00000  Uiso   1.00
I1045  I     0.89630   0.53430   0.28041   0.00000  Uiso   1.00
I1046  I     0.60370   0.96570   0.71959   0.00000  Uiso   1.00
I1047  I     0.88953   0.82015   0.16603   0.00000  Uiso   1.00
I1048  I     0.61047   0.67985   0.83396   0.00000  Uiso   1.00
I1049  I     0.67986   0.61047   0.83396   0.00000  Uiso   1.00
I1050  I     0.82014   0.88953   0.16604   0.00000  Uiso   1.00
I1051  I     0.53430   0.89631   0.71959   0.00000  Uiso   1.00
I1052  I     0.96570   0.60369   0.28040   0.00000  Uiso   1.00
I1053  I     0.82014   0.88953   0.83396   0.00000  Uiso   1.00
I1054  I     0.67986   0.61047   0.16604   0.00000  Uiso   1.00
I1055  I     0.96570   0.60370   0.71958   0.00000  Uiso   1.00
I1056  I     0.53430   0.89630   0.28043   0.00000  Uiso   1.00
I1057  I     0.85370   0.71570   0.78042   0.00000  Uiso   1.00
I1058  I     0.64630   0.78430   0.21957   0.00000  Uiso   1.00
I1059  I     0.86047   0.92985   0.66603   0.00000  Uiso   1.00
I1060  I     0.63953   0.57014   0.33396   0.00000  Uiso   1.00
I1061  I     0.64630   0.78430   0.78041   0.00000  Uiso   1.00
I1062  I     0.85370   0.71570   0.21959   0.00000  Uiso   1.00
I1063  I     0.63953   0.57014   0.66604   0.00000  Uiso   1.00
I1064  I     0.86047   0.92985   0.33396   0.00000  Uiso   1.00
I1065  I     0.92986   0.86047   0.33396   0.00000  Uiso   1.00
I1066  I     0.57015   0.63953   0.66604   0.00000  Uiso   1.00
I1067  I     0.78430   0.64631   0.21959   0.00000  Uiso   1.00
I1068  I     0.71570   0.85369   0.78041   0.00000  Uiso   1.00
I1069  I     0.57014   0.63953   0.33396   0.00000  Uiso   1.00
I1070  I     0.92985   0.86047   0.66604   0.00000  Uiso   1.00
I1071  I     0.71569   0.85370   0.21957   0.00000  Uiso   1.00
I1072  I     0.78430   0.64631   0.78042   0.00000  Uiso   1.00
loop_
_geom_bond_atom_site_label_1
_geom_bond_atom_site_label_2
_geom_bond_distance
_geom_bond_site_symmetry_2
_ccdc_geom_bond_type
C1     H153    1.084   .     S
C1     C101    1.395   .     A
C1     C285    1.404   .     S
C2     C102    1.395   .     A
C2     H154    1.084   .     S
C2     C18     1.404   .     S
C3     H155    1.084   .     S
C3     C103    1.395   .     A
C3     C555    1.404   .     S
C4     H156    1.084   .     S
C4     C104    1.395   .     A
C4     C20     1.404   .     S
C5     C97     1.395   .     A
C5     H157    1.084   .     S
C5     C17     1.404   .     A
C6     C98     1.395   .     A
C6     C286    1.404   .     A
C6     H158    1.084   .     S
C7     C99     1.395   .     A
C7     C19     1.404   .     A
C7     H159    1.084   .     S
C8     C556    1.404   .     A
C8     H160    1.084   .     S
C8     C100    1.395   .     A
C9     C109    1.395   .     A
C9     H161    1.084   .     S
C9     C21     1.404   .     A
C10    C558    1.404   .     A
C10    H162    1.084   .     S
C10    C110    1.395   .     A
C11    C23     1.404   .     A
C11    C111    1.395   .     A
C11    H163    1.084   .     S
C12    C112    1.395   .     A
C12    H164    1.084   .     S
C12    C292    1.404   .     A
C13    C105    1.395   .     A
C13    H165    1.084   .     S
C13    C557    1.404   .     S
C14    C106    1.395   .     A
C14    H166    1.084   .     S
C14    C22     1.404   .     S
C15    C107    1.395   .     A
C15    H167    1.084   .     S
C15    C291    1.404   .     S
C16    C108    1.395   .     A
C16    H168    1.084   .     S
C16    C24     1.404   .     S
C17    C43     1.464   .     S
C17    C269    1.404   1_455 S
C18    C274    1.404   1_455 A
C18    C44     1.464   .     S
C19    C41     1.464   .     S
C19    C539    1.404   1_545 S
C20    C42     1.464   .     S
C20    C544    1.404   1_545 A
C21    C47     1.464   .     S
C21    C549    1.404   1_545 S
C22    C48     1.464   .     S
C22    C546    1.404   1_545 A
C23    C45     1.464   .     S
C23    C283    1.404   1_455 S
C24    C46     1.464   .     S
C24    C280    1.404   1_455 A
C25    C97     1.402   .     A
C25    H137    1.084   .     S
C25    C30     1.395   .     A
C26    C98     1.402   .     A
C26    H138    1.084   .     S
C26    C29     1.395   .     A
C27    C99     1.402   .     A
C27    H139    1.084   .     S
C27    C32     1.395   .     A
C28    H140    1.084   .     S
C28    C100    1.402   .     A
C28    C31     1.395   .     A
C29    H141    1.084   .     S
C29    C101    1.402   .     A
C30    C102    1.402   .     A
C30    H142    1.084   .     S
C31    C103    1.402   .     A
C31    H143    1.084   .     S
C32    C104    1.402   .     A
C32    H144    1.084   .     S
C33    C105    1.402   .     A
C33    H145    1.084   .     S
C33    C38     1.395   1_556 S
C34    C106    1.402   .     A
C34    H146    1.084   .     S
C34    C37     1.395   1_554 S
C35    C107    1.402   .     A
C35    H147    1.084   .     S
C35    C40     1.395   1_556 S
C36    H148    1.084   .     S
C36    C108    1.402   .     A
C36    C39     1.395   1_554 S
C37    C109    1.402   .     A
C37    H149    1.084   .     S
C37    C34     1.395   1_556 S
C38    C110    1.402   .     A
C38    H150    1.084   .     S
C38    C33     1.395   1_554 S
C39    H151    1.084   .     S
C39    C111    1.402   .     A
C39    C36     1.395   1_556 S
C40    H152    1.084   .     S
C40    C112    1.402   .     A
C40    C35     1.395   1_554 S
C41    O177    1.278   .     A
C41    O709    1.278   1_545 S
C42    O714    1.278   1_545 A
C42    O174    1.278   .     S
C43    O175    1.278   .     A
C43    O447    1.278   1_455 S
C44    O444    1.278   1_455 A
C44    O180    1.278   .     S
C45    O181    1.278   .     A
C45    O185    1.278   .     A
C46    O182    1.278   .     A
C46    O186    1.278   .     A
C47    O183    1.278   .     A
C47    O187    1.278   .     A
C48    O184    1.278   .     S
C48    O188    1.278   .     S
C49    O189    1.278   .     A
C49    C115    1.448   .     S
C49    O215    1.278   .     A
C50    O216    1.278   .     A
C50    C116    1.448   .     S
C50    O190    1.278   .     A
C51    O213    1.278   .     A
C51    O191    1.278   .     A
C51    C117    1.449   .     S
C52    O192    1.278   .     A
C52    O214    1.278   .     A
C52    C118    1.449   .     S
C53    O219    1.278   .     A
C53    O193    1.278   .     A
C53    C119    1.448   .     S
C54    C120    1.448   .     S
C54    O194    1.278   .     A
C54    O220    1.278   .     A
C55    O195    1.278   .     A
C55    O217    1.278   .     A
C55    C113    1.449   .     S
C56    O218    1.278   .     A
C56    O196    1.278   .     A
C56    C114    1.449   .     S
C57    O197    1.278   .     A
C57    C123    1.449   .     S
C57    O207    1.278   .     A
C58    C124    1.449   .     S
C58    O208    1.278   .     A
C58    O198    1.278   .     A
C59    O199    1.278   .     A
C59    C125    1.448   .     S
C59    O205    1.278   .     A
C60    O200    1.278   .     A
C60    O206    1.278   .     A
C60    C126    1.448   .     S
C61    O211    1.278   .     A
C61    O201    1.278   .     A
C61    C127    1.449   .     S
C62    O202    1.278   .     A
C62    C128    1.449   .     S
C62    O212    1.278   .     A
C63    O209    1.278   .     A
C63    O203    1.278   .     A
C63    C121    1.448   .     S
C64    O204    1.278   .     A
C64    O210    1.278   .     A
C64    C122    1.448   .     S
C65    I237    2.146   .     S
C65    C80     1.401   .     A
C65    C128    1.407   .     A
C66    C127    1.407   .     A
C66    I238    2.146   .     S
C66    C79     1.401   .     A
C67    C78     1.400   .     A
C67    C126    1.408   .     A
C67    I239    2.146   .     S
C68    C77     1.400   .     A
C68    I240    2.146   .     S
C68    C125    1.408   .     A
C69    C76     1.401   .     A
C69    I241    2.146   .     S
C69    C124    1.408   .     A
C70    C123    1.407   .     A
C70    I242    2.146   .     S
C70    C75     1.401   .     A
C71    C122    1.408   .     A
C71    C74     1.400   .     A
C71    I243    2.146   .     S
C72    C121    1.408   .     A
C72    I244    2.146   .     S
C72    C73     1.400   .     A
C73    I245    2.146   .     S
C73    C120    1.408   .     A
C74    C119    1.408   .     A
C74    I246    2.146   .     S
C75    I247    2.146   .     S
C75    C118    1.407   .     A
C76    I248    2.146   .     S
C76    C117    1.407   .     A
C77    C116    1.408   .     A
C77    I249    2.146   .     S
C78    C115    1.408   .     A
C78    I250    2.146   .     S
C79    I251    2.146   .     S
C79    C114    1.407   .     A
C80    C113    1.408   .     A
C80    I252    2.146   .     S
C81    C114    1.407   .     A
C81    C96     1.401   .     A
C81    I253    2.146   .     S
C82    C95     1.401   .     A
C82    C113    1.407   .     A
C82    I254    2.146   .     S
C83    I255    2.146   .     S
C83    C94     1.400   .     A
C83    C116    1.408   .     A
C84    I256    2.146   .     S
C84    C115    1.408   .     A
C84    C93     1.400   .     A
C85    C118    1.407   .     A
C85    C92     1.401   .     A
C85    I257    2.146   .     S
C86    C91     1.401   .     A
C86    I258    2.146   .     S
C86    C117    1.407   .     A
C87    C90     1.400   .     A
C87    I259    2.146   .     S
C87    C120    1.408   .     A
C88    C89     1.400   .     A
C88    C119    1.408   .     A
C88    I260    2.146   .     S
C89    C122    1.408   .     A
C89    I261    2.146   .     S
C90    I262    2.146   .     S
C90    C121    1.408   .     A
C91    C124    1.407   .     A
C91    I263    2.146   .     S
C92    C123    1.407   .     A
C92    I264    2.146   .     S
C93    C126    1.408   .     A
C93    I265    2.146   .     S
C94    I266    2.146   .     S
C94    C125    1.408   .     A
C95    C128    1.407   .     A
C95    I267    2.146   .     S
C96    I268    2.146   .     S
C96    C127    1.408   .     A
C97    C129    1.411   .     A
C98    C398    1.411   .     S
C99    C131    1.411   .     S
C100   C668    1.411   .     S
C101   C397    1.411   .     S
C102   C130    1.411   .     A
C103   C667    1.411   .     A
C104   C132    1.411   .     A
C105   C669    1.411   .     A
C106   C134    1.411   .     S
C107   C403    1.411   .     S
C108   C136    1.411   .     S
C109   C133    1.411   .     S
C110   C670    1.411   .     A
C111   C135    1.411   .     A
C112   C404    1.411   .     A
C129   C130    1.403   .     A
C129   C369    1.411   1_455 S
C130   C366    1.411   1_455 S
C131   C639    1.411   1_545 A
C131   C132    1.403   .     S
C132   C636    1.411   1_545 S
C133   C641    1.411   1_545 A
C133   C134    1.403   1_556 S
C134   C646    1.411   1_545 A
C134   C133    1.403   1_554 S
C135   C375    1.411   1_455 S
C135   C136    1.403   1_556 S
C136   C380    1.411   1_455 A
C136   C135    1.403   1_554 S
O169   Zn221   1.943   .     S
O169   Zn225   1.943   .     S
O169   Zn232   1.943   .     S
O169   Zn772   1.943   1_545 S
O170   Zn235   1.943   .     S
O170   Zn222   1.943   .     S
O170   Zn226   1.943   .     S
O170   Zn767   1.943   1_545 S
O171   Zn230   1.943   .     S
O171   Zn227   1.943   .     S
O171   Zn223   1.943   .     S
O171   Zn502   1.943   1_455 S
O172   Zn233   1.943   .     S
O172   Zn224   1.943   .     S
O172   Zn228   1.943   .     S
O172   Zn497   1.943   1_455 S
O173   Zn236   1.951   .     S
O173   C577    1.278   .     S
O174   Zn235   1.951   .     S
O175   Zn230   1.951   .     S
O176   C312    1.278   .     A
O176   Zn229   1.951   .     S
O177   Zn232   1.951   .     S
O178   C578    1.278   .     A
O178   Zn231   1.951   .     S
O179   Zn234   1.951   .     S
O179   C311    1.278   .     S
O180   Zn233   1.951   .     S
O181   Zn228   1.951   .     S
O182   Zn227   1.951   .     S
O183   Zn222   1.951   .     S
O184   Zn221   1.951   .     S
O185   Zn224   1.951   .     S
O186   Zn223   1.951   .     S
O187   Zn226   1.951   .     S
O188   Zn225   1.951   .     S
O189   Zn232   1.928   .     S
O190   Zn231   1.928   .     S
O191   Zn234   1.928   .     S
O192   Zn233   1.928   .     S
O193   Zn236   1.928   .     S
O194   Zn235   1.928   .     S
O195   Zn230   1.928   .     S
O196   Zn229   1.928   .     S
O197   Zn231   1.928   .     S
O198   Zn232   1.928   .     S
O199   Zn229   1.928   .     S
O200   Zn230   1.928   .     S
O201   Zn235   1.928   .     S
O202   Zn236   1.928   .     S
O203   Zn233   1.928   .     S
O204   Zn234   1.928   .     S
O205   Zn492   1.928   .     S
O206   Zn223   1.928   .     S
O207   Zn762   1.928   .     S
O208   Zn225   1.928   .     S
O209   Zn228   1.928   .     S
O210   Zn495   1.928   .     S
O211   Zn222   1.928   .     S
O212   Zn757   1.928   .     S
O213   Zn491   1.928   .     S
O214   Zn224   1.928   .     S
O215   Zn221   1.928   .     S
O216   Zn758   1.928   .     S
O217   Zn227   1.928   .     S
O218   Zn496   1.928   .     S
O219   Zn761   1.928   .     S
O220   Zn226   1.928   .     S
Zn221  O748    1.928   1_545 S
Zn222  O752    1.928   1_545 S
Zn223  O481    1.928   1_455 S
Zn224  O473    1.928   1_455 S
Zn225  O755    1.928   1_545 S
Zn226  O743    1.928   1_545 S
Zn227  O478    1.928   1_455 S
Zn228  O486    1.928   1_455 S
Zn229  O440    1.943   .     S
Zn231  O706    1.943   .     S
Zn234  O439    1.943   .     S
Zn236  O705    1.943   .     S
C269   H421    1.084   .     S
C269   C369    1.395   .     A
C269   C17     1.404   1_655 S
C270   C370    1.395   .     A
C270   H422    1.084   .     S
C270   C286    1.404   .     S
C271   H423    1.084   .     S
C271   C371    1.395   .     A
C271   C823    1.404   .     S
C272   H424    1.084   .     S
C272   C372    1.395   .     A
C272   C288    1.404   .     S
C273   C365    1.395   .     A
C273   H425    1.084   .     S
C273   C285    1.404   .     A
C274   C366    1.395   .     A
C274   C18     1.404   1_655 A
C274   H426    1.084   .     S
C275   C367    1.395   .     A
C275   C287    1.404   .     A
C275   H427    1.084   .     S
C276   C824    1.404   .     A
C276   H428    1.084   .     S
C276   C368    1.395   .     A
C277   C377    1.395   .     A
C277   H429    1.084   .     S
C277   C289    1.404   .     A
C278   C826    1.404   .     A
C278   H430    1.084   .     S
C278   C378    1.395   .     A
C279   C291    1.404   .     A
C279   C379    1.395   .     A
C279   H431    1.084   .     S
C280   C380    1.395   .     A
C280   H432    1.084   .     S
C280   C24     1.404   1_655 A
C281   C373    1.395   .     A
C281   H433    1.084   .     S
C281   C825    1.404   .     S
C282   C374    1.395   .     A
C282   H434    1.084   .     S
C282   C290    1.404   .     S
C283   C375    1.395   .     A
C283   H435    1.084   .     S
C283   C23     1.404   1_655 S
C284   C376    1.395   .     A
C284   H436    1.084   .     S
C284   C292    1.404   .     S
C285   C311    1.464   .     S
C286   C312    1.464   .     S
C287   C309    1.464   .     S
C287   C807    1.404   1_545 S
C288   C310    1.464   .     S
C288   C812    1.404   1_545 A
C289   C315    1.464   .     S
C289   C817    1.404   1_545 S
C290   C316    1.464   .     S
C290   C814    1.404   1_545 A
C291   C313    1.464   .     S
C292   C314    1.464   .     S
C293   C365    1.402   .     A
C293   H405    1.084   .     S
C293   C298    1.395   .     A
C294   C366    1.402   .     A
C294   H406    1.084   .     S
C294   C297    1.395   .     A
C295   C367    1.402   .     A
C295   H407    1.084   .     S
C295   C300    1.395   .     A
C296   H408    1.084   .     S
C296   C368    1.402   .     A
C296   C299    1.395   .     A
C297   H409    1.084   .     S
C297   C369    1.402   .     A
C298   C370    1.402   .     A
C298   H410    1.084   .     S
C299   C371    1.402   .     A
C299   H411    1.084   .     S
C300   C372    1.402   .     A
C300   H412    1.084   .     S
C301   C373    1.402   .     A
C301   H413    1.084   .     S
C301   C306    1.395   1_556 S
C302   C374    1.402   .     A
C302   H414    1.084   .     S
C302   C305    1.395   1_554 S
C303   C375    1.402   .     A
C303   H415    1.084   .     S
C303   C308    1.395   1_556 S
C304   H416    1.084   .     S
C304   C376    1.402   .     A
C304   C307    1.395   1_554 S
C305   C377    1.402   .     A
C305   H417    1.084   .     S
C305   C302    1.395   1_556 S
C306   C378    1.402   .     A
C306   H418    1.084   .     S
C306   C301    1.395   1_554 S
C307   H419    1.084   .     S
C307   C379    1.402   .     A
C307   C304    1.395   1_556 S
C308   H420    1.084   .     S
C308   C380    1.402   .     A
C308   C303    1.395   1_554 S
C309   O445    1.278   .     A
C309   O977    1.278   1_545 S
C310   O982    1.278   1_545 A
C310   O442    1.278   .     S
C311   O443    1.278   .     A
C312   O448    1.278   .     S
C313   O449    1.278   .     A
C313   O453    1.278   .     A
C314   O450    1.278   .     A
C314   O454    1.278   .     A
C315   O451    1.278   .     A
C315   O455    1.278   .     A
C316   O452    1.278   .     S
C316   O456    1.278   .     S
C317   O457    1.278   .     A
C317   C383    1.448   .     S
C317   O483    1.278   .     A
C318   O484    1.278   .     A
C318   C384    1.448   .     S
C318   O458    1.278   .     A
C319   O481    1.278   .     A
C319   O459    1.278   .     A
C319   C385    1.449   .     S
C320   O460    1.278   .     A
C320   O482    1.278   .     A
C320   C386    1.449   .     S
C321   O487    1.278   .     A
C321   O461    1.278   .     A
C321   C387    1.448   .     S
C322   C388    1.448   .     S
C322   O462    1.278   .     A
C322   O488    1.278   .     A
C323   O463    1.278   .     A
C323   O485    1.278   .     A
C323   C381    1.449   .     S
C324   O486    1.278   .     A
C324   O464    1.278   .     A
C324   C382    1.449   .     S
C325   O465    1.278   .     A
C325   C391    1.449   .     S
C325   O475    1.278   .     A
C326   C392    1.449   .     S
C326   O476    1.278   .     A
C326   O466    1.278   .     A
C327   O467    1.278   .     A
C327   C393    1.448   .     S
C327   O473    1.278   .     A
C328   O468    1.278   .     A
C328   O474    1.278   .     A
C328   C394    1.448   .     S
C329   O479    1.278   .     A
C329   O469    1.278   .     A
C329   C395    1.449   .     S
C330   O470    1.278   .     A
C330   C396    1.449   .     S
C330   O480    1.278   .     A
C331   O477    1.278   .     A
C331   O471    1.278   .     A
C331   C389    1.448   .     S
C332   O472    1.278   .     A
C332   O478    1.278   .     A
C332   C390    1.448   .     S
C333   I505    2.146   .     S
C333   C348    1.401   .     A
C333   C396    1.407   .     A
C334   C395    1.407   .     A
C334   I506    2.146   .     S
C334   C347    1.401   .     A
C335   C346    1.400   .     A
C335   C394    1.408   .     A
C335   I507    2.146   .     S
C336   C345    1.400   .     A
C336   I508    2.146   .     S
C336   C393    1.408   .     A
C337   C344    1.401   .     A
C337   I509    2.146   .     S
C337   C392    1.408   .     A
C338   C391    1.407   .     A
C338   I510    2.146   .     S
C338   C343    1.401   .     A
C339   C390    1.408   .     A
C339   C342    1.400   .     A
C339   I511    2.146   .     S
C340   C389    1.408   .     A
C340   I512    2.146   .     S
C340   C341    1.400   .     A
C341   I513    2.146   .     S
C341   C388    1.408   .     A
C342   C387    1.408   .     A
C342   I514    2.146   .     S
C343   I515    2.146   .     S
C343   C386    1.407   .     A
C344   I516    2.146   .     S
C344   C385    1.407   .     A
C345   C384    1.408   .     A
C345   I517    2.146   .     S
C346   C383    1.408   .     A
C346   I518    2.146   .     S
C347   I519    2.146   .     S
C347   C382    1.407   .     A
C348   C381    1.408   .     A
C348   I520    2.146   .     S
C349   C382    1.407   .     A
C349   C364    1.401   .     A
C349   I521    2.146   .     S
C350   C363    1.401   .     A
C350   C381    1.407   .     A
C350   I522    2.146   .     S
C351   I523    2.146   .     S
C351   C362    1.400   .     A
C351   C384    1.408   .     A
C352   I524    2.146   .     S
C352   C383    1.408   .     A
C352   C361    1.400   .     A
C353   C386    1.407   .     A
C353   C360    1.401   .     A
C353   I525    2.146   .     S
C354   C359    1.401   .     A
C354   I526    2.146   .     S
C354   C385    1.407   .     A
C355   C358    1.400   .     A
C355   I527    2.146   .     S
C355   C388    1.408   .     A
C356   C357    1.400   .     A
C356   C387    1.408   .     A
C356   I528    2.146   .     S
C357   C390    1.408   .     A
C357   I529    2.146   .     S
C358   I530    2.146   .     S
C358   C389    1.408   .     A
C359   C392    1.407   .     A
C359   I531    2.146   .     S
C360   C391    1.407   .     A
C360   I532    2.146   .     S
C361   C394    1.408   .     A
C361   I533    2.146   .     S
C362   I534    2.146   .     S
C362   C393    1.408   .     A
C363   C396    1.407   .     A
C363   I535    2.146   .     S
C364   I536    2.146   .     S
C364   C395    1.408   .     A
C365   C397    1.411   .     A
C366   C130    1.411   1_655 S
C367   C399    1.411   .     S
C368   C936    1.411   .     S
C369   C129    1.411   1_655 S
C370   C398    1.411   .     A
C371   C935    1.411   .     A
C372   C400    1.411   .     A
C373   C937    1.411   .     A
C374   C402    1.411   .     S
C375   C135    1.411   1_655 S
C376   C404    1.411   .     S
C377   C401    1.411   .     S
C378   C938    1.411   .     A
C379   C403    1.411   .     A
C380   C136    1.411   1_655 A
C397   C398    1.403   .     A
C399   C907    1.411   1_545 A
C399   C400    1.403   .     S
C400   C904    1.411   1_545 S
C401   C909    1.411   1_545 A
C401   C402    1.403   1_556 S
C402   C914    1.411   1_545 A
C402   C401    1.403   1_554 S
C403   C404    1.403   1_556 S
C404   C403    1.403   1_554 S
O437   Zn489   1.943   .     S
O437   Zn493   1.943   .     S
O437   Zn500   1.943   .     S
O437   Zn1040  1.943   1_545 S
O438   Zn503   1.943   .     S
O438   Zn490   1.943   .     S
O438   Zn494   1.943   .     S
O438   Zn1035  1.943   1_545 S
O439   Zn498   1.943   .     S
O439   Zn495   1.943   .     S
O439   Zn491   1.943   .     S
O440   Zn501   1.943   .     S
O440   Zn492   1.943   .     S
O440   Zn496   1.943   .     S
O441   Zn504   1.951   .     S
O441   C845    1.278   .     S
O442   Zn503   1.951   .     S
O443   Zn498   1.951   .     S
O444   C44     1.278   1_655 A
O444   Zn497   1.951   .     S
O445   Zn500   1.951   .     S
O446   C846    1.278   .     A
O446   Zn499   1.951   .     S
O447   Zn502   1.951   .     S
O447   C43     1.278   1_655 S
O448   Zn501   1.951   .     S
O449   Zn496   1.951   .     S
O450   Zn495   1.951   .     S
O451   Zn490   1.951   .     S
O452   Zn489   1.951   .     S
O453   Zn492   1.951   .     S
O454   Zn491   1.951   .     S
O455   Zn494   1.951   .     S
O456   Zn493   1.951   .     S
O457   Zn500   1.928   .     S
O458   Zn499   1.928   .     S
O459   Zn502   1.928   .     S
O460   Zn501   1.928   .     S
O461   Zn504   1.928   .     S
O462   Zn503   1.928   .     S
O463   Zn498   1.928   .     S
O464   Zn497   1.928   .     S
O465   Zn499   1.928   .     S
O466   Zn500   1.928   .     S
O467   Zn497   1.928   .     S
O468   Zn498   1.928   .     S
O469   Zn503   1.928   .     S
O470   Zn504   1.928   .     S
O471   Zn501   1.928   .     S
O472   Zn502   1.928   .     S
O473   Zn224   1.928   1_655 S
O474   Zn491   1.928   .     S
O475   Zn1030  1.928   .     S
O476   Zn493   1.928   .     S
O477   Zn496   1.928   .     S
O478   Zn227   1.928   1_655 S
O479   Zn490   1.928   .     S
O480   Zn1025  1.928   .     S
O481   Zn223   1.928   1_655 S
O482   Zn492   1.928   .     S
O483   Zn489   1.928   .     S
O484   Zn1026  1.928   .     S
O485   Zn495   1.928   .     S
O486   Zn228   1.928   1_655 S
O487   Zn1029  1.928   .     S
O488   Zn494   1.928   .     S
Zn489  O1016   1.928   1_545 S
Zn490  O1020   1.928   1_545 S
Zn493  O1023   1.928   1_545 S
Zn494  O1011   1.928   1_545 S
Zn497  O172    1.943   1_655 S
Zn499  O974    1.943   .     S
Zn502  O171    1.943   1_655 S
Zn504  O973    1.943   .     S
C537   H689    1.084   .     S
C537   C637    1.395   .     A
C537   C821    1.404   .     S
C538   C638    1.395   .     A
C538   H690    1.084   .     S
C538   C554    1.404   .     S
C539   H691    1.084   .     S
C539   C639    1.395   .     A
C539   C19     1.404   1_565 S
C540   H692    1.084   .     S
C540   C640    1.395   .     A
C540   C556    1.404   .     S
C541   C633    1.395   .     A
C541   H693    1.084   .     S
C541   C553    1.404   .     A
C542   C634    1.395   .     A
C542   C822    1.404   .     A
C542   H694    1.084   .     S
C543   C635    1.395   .     A
C543   C555    1.404   .     A
C543   H695    1.084   .     S
C544   C20     1.404   1_565 A
C544   H696    1.084   .     S
C544   C636    1.395   .     A
C545   C645    1.395   .     A
C545   H697    1.084   .     S
C545   C557    1.404   .     A
C546   C22     1.404   1_565 A
C546   H698    1.084   .     S
C546   C646    1.395   .     A
C547   C559    1.404   .     A
C547   C647    1.395   .     A
C547   H699    1.084   .     S
C548   C648    1.395   .     A
C548   H700    1.084   .     S
C548   C828    1.404   .     A
C549   C641    1.395   .     A
C549   H701    1.084   .     S
C549   C21     1.404   1_565 S
C550   C642    1.395   .     A
C550   H702    1.084   .     S
C550   C558    1.404   .     S
C551   C643    1.395   .     A
C551   H703    1.084   .     S
C551   C827    1.404   .     S
C552   C644    1.395   .     A
C552   H704    1.084   .     S
C552   C560    1.404   .     S
C553   C579    1.464   .     S
C553   C805    1.404   1_455 S
C554   C810    1.404   1_455 A
C554   C580    1.464   .     S
C555   C577    1.464   .     S
C556   C578    1.464   .     S
C557   C583    1.464   .     S
C558   C584    1.464   .     S
C559   C581    1.464   .     S
C559   C819    1.404   1_455 S
C560   C582    1.464   .     S
C560   C816    1.404   1_455 A
C561   C633    1.402   .     A
C561   H673    1.084   .     S
C561   C566    1.395   .     A
C562   C634    1.402   .     A
C562   H674    1.084   .     S
C562   C565    1.395   .     A
C563   C635    1.402   .     A
C563   H675    1.084   .     S
C563   C568    1.395   .     A
C564   H676    1.084   .     S
C564   C636    1.402   .     A
C564   C567    1.395   .     A
C565   H677    1.084   .     S
C565   C637    1.402   .     A
C566   C638    1.402   .     A
C566   H678    1.084   .     S
C567   C639    1.402   .     A
C567   H679    1.084   .     S
C568   C640    1.402   .     A
C568   H680    1.084   .     S
C569   C641    1.402   .     A
C569   H681    1.084   .     S
C569   C574    1.395   1_556 S
C570   C642    1.402   .     A
C570   H682    1.084   .     S
C570   C573    1.395   1_554 S
C571   C643    1.402   .     A
C571   H683    1.084   .     S
C571   C576    1.395   1_556 S
C572   H684    1.084   .     S
C572   C644    1.402   .     A
C572   C575    1.395   1_554 S
C573   C645    1.402   .     A
C573   H685    1.084   .     S
C573   C570    1.395   1_556 S
C574   C646    1.402   .     A
C574   H686    1.084   .     S
C574   C569    1.395   1_554 S
C575   H687    1.084   .     S
C575   C647    1.402   .     A
C575   C572    1.395   1_556 S
C576   H688    1.084   .     S
C576   C648    1.402   .     A
C576   C571    1.395   1_554 S
C577   O713    1.278   .     A
C578   O710    1.278   .     S
C579   O711    1.278   .     A
C579   O983    1.278   1_455 S
C580   O980    1.278   1_455 A
C580   O716    1.278   .     S
C581   O717    1.278   .     A
C581   O721    1.278   .     A
C582   O718    1.278   .     A
C582   O722    1.278   .     A
C583   O719    1.278   .     A
C583   O723    1.278   .     A
C584   O720    1.278   .     S
C584   O724    1.278   .     S
C585   O725    1.278   .     A
C585   C651    1.448   .     S
C585   O751    1.278   .     A
C586   O752    1.278   .     A
C586   C652    1.448   .     S
C586   O726    1.278   .     A
C587   O749    1.278   .     A
C587   O727    1.278   .     A
C587   C653    1.449   .     S
C588   O728    1.278   .     A
C588   O750    1.278   .     A
C588   C654    1.449   .     S
C589   O755    1.278   .     A
C589   O729    1.278   .     A
C589   C655    1.448   .     S
C590   C656    1.448   .     S
C590   O730    1.278   .     A
C590   O756    1.278   .     A
C591   O731    1.278   .     A
C591   O753    1.278   .     A
C591   C649    1.449   .     S
C592   O754    1.278   .     A
C592   O732    1.278   .     A
C592   C650    1.449   .     S
C593   O733    1.278   .     A
C593   C659    1.449   .     S
C593   O743    1.278   .     A
C594   C660    1.449   .     S
C594   O744    1.278   .     A
C594   O734    1.278   .     A
C595   O735    1.278   .     A
C595   C661    1.448   .     S
C595   O741    1.278   .     A
C596   O736    1.278   .     A
C596   O742    1.278   .     A
C596   C662    1.448   .     S
C597   O747    1.278   .     A
C597   O737    1.278   .     A
C597   C663    1.449   .     S
C598   O738    1.278   .     A
C598   C664    1.449   .     S
C598   O748    1.278   .     A
C599   O745    1.278   .     A
C599   O739    1.278   .     A
C599   C657    1.448   .     S
C600   O740    1.278   .     A
C600   O746    1.278   .     A
C600   C658    1.448   .     S
C601   I773    2.146   .     S
C601   C616    1.401   .     A
C601   C664    1.407   .     A
C602   C663    1.407   .     A
C602   I774    2.146   .     S
C602   C615    1.401   .     A
C603   C614    1.400   .     A
C603   C662    1.408   .     A
C603   I775    2.146   .     S
C604   C613    1.400   .     A
C604   I776    2.146   .     S
C604   C661    1.408   .     A
C605   C612    1.401   .     A
C605   I777    2.146   .     S
C605   C660    1.408   .     A
C606   C659    1.407   .     A
C606   I778    2.146   .     S
C606   C611    1.401   .     A
C607   C658    1.408   .     A
C607   C610    1.400   .     A
C607   I779    2.146   .     S
C608   C657    1.408   .     A
C608   I780    2.146   .     S
C608   C609    1.400   .     A
C609   I781    2.146   .     S
C609   C656    1.408   .     A
C610   C655    1.408   .     A
C610   I782    2.146   .     S
C611   I783    2.146   .     S
C611   C654    1.407   .     A
C612   I784    2.146   .     S
C612   C653    1.407   .     A
C613   C652    1.408   .     A
C613   I785    2.146   .     S
C614   C651    1.408   .     A
C614   I786    2.146   .     S
C615   I787    2.146   .     S
C615   C650    1.407   .     A
C616   C649    1.408   .     A
C616   I788    2.146   .     S
C617   C650    1.407   .     A
C617   C632    1.401   .     A
C617   I789    2.146   .     S
C618   C631    1.401   .     A
C618   C649    1.407   .     A
C618   I790    2.146   .     S
C619   I791    2.146   .     S
C619   C630    1.400   .     A
C619   C652    1.408   .     A
C620   I792    2.146   .     S
C620   C651    1.408   .     A
C620   C629    1.400   .     A
C621   C654    1.407   .     A
C621   C628    1.401   .     A
C621   I793    2.146   .     S
C622   C627    1.401   .     A
C622   I794    2.146   .     S
C622   C653    1.407   .     A
C623   C626    1.400   .     A
C623   I795    2.146   .     S
C623   C656    1.408   .     A
C624   C625    1.400   .     A
C624   C655    1.408   .     A
C624   I796    2.146   .     S
C625   C658    1.408   .     A
C625   I797    2.146   .     S
C626   I798    2.146   .     S
C626   C657    1.408   .     A
C627   C660    1.407   .     A
C627   I799    2.146   .     S
C628   C659    1.407   .     A
C628   I800    2.146   .     S
C629   C662    1.408   .     A
C629   I801    2.146   .     S
C630   I802    2.146   .     S
C630   C661    1.408   .     A
C631   C664    1.407   .     A
C631   I803    2.146   .     S
C632   I804    2.146   .     S
C632   C663    1.408   .     A
C633   C665    1.411   .     A
C634   C934    1.411   .     S
C635   C667    1.411   .     S
C636   C132    1.411   1_565 S
C637   C933    1.411   .     S
C638   C666    1.411   .     A
C639   C131    1.411   1_565 A
C640   C668    1.411   .     A
C641   C133    1.411   1_565 A
C642   C670    1.411   .     S
C643   C939    1.411   .     S
C644   C672    1.411   .     S
C645   C669    1.411   .     S
C646   C134    1.411   1_565 A
C647   C671    1.411   .     A
C648   C940    1.411   .     A
C665   C666    1.403   .     A
C665   C905    1.411   1_455 S
C666   C902    1.411   1_455 S
C667   C668    1.403   .     S
C669   C670    1.403   1_556 S
C670   C669    1.403   1_554 S
C671   C911    1.411   1_455 S
C671   C672    1.403   1_556 S
C672   C916    1.411   1_455 A
C672   C671    1.403   1_554 S
O705   Zn757   1.943   .     S
O705   Zn761   1.943   .     S
O705   Zn768   1.943   .     S
O706   Zn771   1.943   .     S
O706   Zn758   1.943   .     S
O706   Zn762   1.943   .     S
O707   Zn766   1.943   .     S
O707   Zn763   1.943   .     S
O707   Zn759   1.943   .     S
O707   Zn1038  1.943   1_455 S
O708   Zn769   1.943   .     S
O708   Zn760   1.943   .     S
O708   Zn764   1.943   .     S
O708   Zn1033  1.943   1_455 S
O709   Zn772   1.951   .     S
O709   C41     1.278   1_565 S
O710   Zn771   1.951   .     S
O711   Zn766   1.951   .     S
O712   C848    1.278   .     A
O712   Zn765   1.951   .     S
O713   Zn768   1.951   .     S
O714   C42     1.278   1_565 A
O714   Zn767   1.951   .     S
O715   Zn770   1.951   .     S
O715   C847    1.278   .     S
O716   Zn769   1.951   .     S
O717   Zn764   1.951   .     S
O718   Zn763   1.951   .     S
O719   Zn758   1.951   .     S
O720   Zn757   1.951   .     S
O721   Zn760   1.951   .     S
O722   Zn759   1.951   .     S
O723   Zn762   1.951   .     S
O724   Zn761   1.951   .     S
O725   Zn768   1.928   .     S
O726   Zn767   1.928   .     S
O727   Zn770   1.928   .     S
O728   Zn769   1.928   .     S
O729   Zn772   1.928   .     S
O730   Zn771   1.928   .     S
O731   Zn766   1.928   .     S
O732   Zn765   1.928   .     S
O733   Zn767   1.928   .     S
O734   Zn768   1.928   .     S
O735   Zn765   1.928   .     S
O736   Zn766   1.928   .     S
O737   Zn771   1.928   .     S
O738   Zn772   1.928   .     S
O739   Zn769   1.928   .     S
O740   Zn770   1.928   .     S
O741   Zn1028  1.928   .     S
O742   Zn759   1.928   .     S
O743   Zn226   1.928   1_565 S
O744   Zn761   1.928   .     S
O745   Zn764   1.928   .     S
O746   Zn1031  1.928   .     S
O747   Zn758   1.928   .     S
O748   Zn221   1.928   1_565 S
O749   Zn1027  1.928   .     S
O750   Zn760   1.928   .     S
O751   Zn757   1.928   .     S
O752   Zn222   1.928   1_565 S
O753   Zn763   1.928   .     S
O754   Zn1032  1.928   .     S
O755   Zn225   1.928   1_565 S
O756   Zn762   1.928   .     S
Zn759  O1017   1.928   1_455 S
Zn760  O1009   1.928   1_455 S
Zn763  O1014   1.928   1_455 S
Zn764  O1022   1.928   1_455 S
Zn765  O976    1.943   .     S
Zn767  O170    1.943   1_565 S
Zn770  O975    1.943   .     S
Zn772  O169    1.943   1_565 S
C805   H957    1.084   .     S
C805   C905    1.395   .     A
C805   C553    1.404   1_655 S
C806   C906    1.395   .     A
C806   H958    1.084   .     S
C806   C822    1.404   .     S
C807   H959    1.084   .     S
C807   C907    1.395   .     A
C807   C287    1.404   1_565 S
C808   H960    1.084   .     S
C808   C908    1.395   .     A
C808   C824    1.404   .     S
C809   C901    1.395   .     A
C809   H961    1.084   .     S
C809   C821    1.404   .     A
C810   C902    1.395   .     A
C810   C554    1.404   1_655 A
C810   H962    1.084   .     S
C811   C903    1.395   .     A
C811   C823    1.404   .     A
C811   H963    1.084   .     S
C812   C288    1.404   1_565 A
C812   H964    1.084   .     S
C812   C904    1.395   .     A
C813   C913    1.395   .     A
C813   H965    1.084   .     S
C813   C825    1.404   .     A
C814   C290    1.404   1_565 A
C814   H966    1.084   .     S
C814   C914    1.395   .     A
C815   C827    1.404   .     A
C815   C915    1.395   .     A
C815   H967    1.084   .     S
C816   C916    1.395   .     A
C816   H968    1.084   .     S
C816   C560    1.404   1_655 A
C817   C909    1.395   .     A
C817   H969    1.084   .     S
C817   C289    1.404   1_565 S
C818   C910    1.395   .     A
C818   H970    1.084   .     S
C818   C826    1.404   .     S
C819   C911    1.395   .     A
C819   H971    1.084   .     S
C819   C559    1.404   1_655 S
C820   C912    1.395   .     A
C820   H972    1.084   .     S
C820   C828    1.404   .     S
C821   C847    1.464   .     S
C822   C848    1.464   .     S
C823   C845    1.464   .     S
C824   C846    1.464   .     S
C825   C851    1.464   .     S
C826   C852    1.464   .     S
C827   C849    1.464   .     S
C828   C850    1.464   .     S
C829   C901    1.402   .     A
C829   H941    1.084   .     S
C829   C834    1.395   .     A
C830   C902    1.402   .     A
C830   H942    1.084   .     S
C830   C833    1.395   .     A
C831   C903    1.402   .     A
C831   H943    1.084   .     S
C831   C836    1.395   .     A
C832   H944    1.084   .     S
C832   C904    1.402   .     A
C832   C835    1.395   .     A
C833   H945    1.084   .     S
C833   C905    1.402   .     A
C834   C906    1.402   .     A
C834   H946    1.084   .     S
C835   C907    1.402   .     A
C835   H947    1.084   .     S
C836   C908    1.402   .     A
C836   H948    1.084   .     S
C837   C909    1.402   .     A
C837   H949    1.084   .     S
C837   C842    1.395   1_556 S
C838   C910    1.402   .     A
C838   H950    1.084   .     S
C838   C841    1.395   1_554 S
C839   C911    1.402   .     A
C839   H951    1.084   .     S
C839   C844    1.395   1_556 S
C840   H952    1.084   .     S
C840   C912    1.402   .     A
C840   C843    1.395   1_554 S
C841   C913    1.402   .     A
C841   H953    1.084   .     S
C841   C838    1.395   1_556 S
C842   C914    1.402   .     A
C842   H954    1.084   .     S
C842   C837    1.395   1_554 S
C843   H955    1.084   .     S
C843   C915    1.402   .     A
C843   C840    1.395   1_556 S
C844   H956    1.084   .     S
C844   C916    1.402   .     A
C844   C839    1.395   1_554 S
C845   O981    1.278   .     A
C846   O978    1.278   .     S
C847   O979    1.278   .     A
C848   O984    1.278   .     S
C849   O985    1.278   .     A
C849   O989    1.278   .     A
C850   O986    1.278   .     A
C850   O990    1.278   .     A
C851   O987    1.278   .     A
C851   O991    1.278   .     A
C852   O988    1.278   .     S
C852   O992    1.278   .     S
C853   O993    1.278   .     A
C853   C919    1.448   .     S
C853   O1019   1.278   .     A
C854   O1020   1.278   .     A
C854   C920    1.448   .     S
C854   O994    1.278   .     A
C855   O1017   1.278   .     A
C855   O995    1.278   .     A
C855   C921    1.449   .     S
C856   O996    1.278   .     A
C856   O1018   1.278   .     A
C856   C922    1.449   .     S
C857   O1023   1.278   .     A
C857   O997    1.278   .     A
C857   C923    1.448   .     S
C858   C924    1.448   .     S
C858   O998    1.278   .     A
C858   O1024   1.278   .     A
C859   O999    1.278   .     A
C859   O1021   1.278   .     A
C859   C917    1.449   .     S
C860   O1022   1.278   .     A
C860   O1000   1.278   .     A
C860   C918    1.449   .     S
C861   O1001   1.278   .     A
C861   C927    1.449   .     S
C861   O1011   1.278   .     A
C862   C928    1.449   .     S
C862   O1012   1.278   .     A
C862   O1002   1.278   .     A
C863   O1003   1.278   .     A
C863   C929    1.448   .     S
C863   O1009   1.278   .     A
C864   O1004   1.278   .     A
C864   O1010   1.278   .     A
C864   C930    1.448   .     S
C865   O1015   1.278   .     A
C865   O1005   1.278   .     A
C865   C931    1.449   .     S
C866   O1006   1.278   .     A
C866   C932    1.449   .     S
C866   O1016   1.278   .     A
C867   O1013   1.278   .     A
C867   O1007   1.278   .     A
C867   C925    1.448   .     S
C868   O1008   1.278   .     A
C868   O1014   1.278   .     A
C868   C926    1.448   .     S
C869   I1041   2.146   .     S
C869   C884    1.401   .     A
C869   C932    1.407   .     A
C870   C931    1.407   .     A
C870   I1042   2.146   .     S
C870   C883    1.401   .     A
C871   C882    1.400   .     A
C871   C930    1.408   .     A
C871   I1043   2.146   .     S
C872   C881    1.400   .     A
C872   I1044   2.146   .     S
C872   C929    1.408   .     A
C873   C880    1.401   .     A
C873   I1045   2.146   .     S
C873   C928    1.408   .     A
C874   C927    1.407   .     A
C874   I1046   2.146   .     S
C874   C879    1.401   .     A
C875   C926    1.408   .     A
C875   C878    1.400   .     A
C875   I1047   2.146   .     S
C876   C925    1.408   .     A
C876   I1048   2.146   .     S
C876   C877    1.400   .     A
C877   I1049   2.146   .     S
C877   C924    1.408   .     A
C878   C923    1.408   .     A
C878   I1050   2.146   .     S
C879   I1051   2.146   .     S
C879   C922    1.407   .     A
C880   I1052   2.146   .     S
C880   C921    1.407   .     A
C881   C920    1.408   .     A
C881   I1053   2.146   .     S
C882   C919    1.408   .     A
C882   I1054   2.146   .     S
C883   I1055   2.146   .     S
C883   C918    1.407   .     A
C884   C917    1.408   .     A
C884   I1056   2.146   .     S
C885   C918    1.407   .     A
C885   C900    1.401   .     A
C885   I1057   2.146   .     S
C886   C899    1.401   .     A
C886   C917    1.407   .     A
C886   I1058   2.146   .     S
C887   I1059   2.146   .     S
C887   C898    1.400   .     A
C887   C920    1.408   .     A
C888   I1060   2.146   .     S
C888   C919    1.408   .     A
C888   C897    1.400   .     A
C889   C922    1.407   .     A
C889   C896    1.401   .     A
C889   I1061   2.146   .     S
C890   C895    1.401   .     A
C890   I1062   2.146   .     S
C890   C921    1.407   .     A
C891   C894    1.400   .     A
C891   I1063   2.146   .     S
C891   C924    1.408   .     A
C892   C893    1.400   .     A
C892   C923    1.408   .     A
C892   I1064   2.146   .     S
C893   C926    1.408   .     A
C893   I1065   2.146   .     S
C894   I1066   2.146   .     S
C894   C925    1.408   .     A
C895   C928    1.407   .     A
C895   I1067   2.146   .     S
C896   C927    1.407   .     A
C896   I1068   2.146   .     S
C897   C930    1.408   .     A
C897   I1069   2.146   .     S
C898   I1070   2.146   .     S
C898   C929    1.408   .     A
C899   C932    1.407   .     A
C899   I1071   2.146   .     S
C900   I1072   2.146   .     S
C900   C931    1.408   .     A
C901   C933    1.411   .     A
C902   C666    1.411   1_655 S
C903   C935    1.411   .     S
C904   C400    1.411   1_565 S
C905   C665    1.411   1_655 S
C906   C934    1.411   .     A
C907   C399    1.411   1_565 A
C908   C936    1.411   .     A
C909   C401    1.411   1_565 A
C910   C938    1.411   .     S
C911   C671    1.411   1_655 S
C912   C940    1.411   .     S
C913   C937    1.411   .     S
C914   C402    1.411   1_565 A
C915   C939    1.411   .     A
C916   C672    1.411   1_655 A
C933   C934    1.403   .     A
C935   C936    1.403   .     S
C937   C938    1.403   1_556 S
C938   C937    1.403   1_554 S
C939   C940    1.403   1_556 S
C940   C939    1.403   1_554 S
O973   Zn1025  1.943   .     S
O973   Zn1029  1.943   .     S
O973   Zn1036  1.943   .     S
O974   Zn1039  1.943   .     S
O974   Zn1026  1.943   .     S
O974   Zn1030  1.943   .     S
O975   Zn1034  1.943   .     S
O975   Zn1031  1.943   .     S
O975   Zn1027  1.943   .     S
O976   Zn1037  1.943   .     S
O976   Zn1028  1.943   .     S
O976   Zn1032  1.943   .     S
O977   Zn1040  1.951   .     S
O977   C309    1.278   1_565 S
O978   Zn1039  1.951   .     S
O979   Zn1034  1.951   .     S
O980   C580    1.278   1_655 A
O980   Zn1033  1.951   .     S
O981   Zn1036  1.951   .     S
O982   C310    1.278   1_565 A
O982   Zn1035  1.951   .     S
O983   Zn1038  1.951   .     S
O983   C579    1.278   1_655 S
O984   Zn1037  1.951   .     S
O985   Zn1032  1.951   .     S
O986   Zn1031  1.951   .     S
O987   Zn1026  1.951   .     S
O988   Zn1025  1.951   .     S
O989   Zn1028  1.951   .     S
O990   Zn1027  1.951   .     S
O991   Zn1030  1.951   .     S
O992   Zn1029  1.951   .     S
O993   Zn1036  1.928   .     S
O994   Zn1035  1.928   .     S
O995   Zn1038  1.928   .     S
O996   Zn1037  1.928   .     S
O997   Zn1040  1.928   .     S
O998   Zn1039  1.928   .     S
O999   Zn1034  1.928   .     S
O1000  Zn1033  1.928   .     S
O1001  Zn1035  1.928   .     S
O1002  Zn1036  1.928   .     S
O1003  Zn1033  1.928   .     S
O1004  Zn1034  1.928   .     S
O1005  Zn1039  1.928   .     S
O1006  Zn1040  1.928   .     S
O1007  Zn1037  1.928   .     S
O1008  Zn1038  1.928   .     S
O1009  Zn760   1.928   1_655 S
O1010  Zn1027  1.928   .     S
O1011  Zn494   1.928   1_565 S
O1012  Zn1029  1.928   .     S
O1013  Zn1032  1.928   .     S
O1014  Zn763   1.928   1_655 S
O1015  Zn1026  1.928   .     S
O1016  Zn489   1.928   1_565 S
O1017  Zn759   1.928   1_655 S
O1018  Zn1028  1.928   .     S
O1019  Zn1025  1.928   .     S
O1020  Zn490   1.928   1_565 S
O1021  Zn1031  1.928   .     S
O1022  Zn764   1.928   1_655 S
O1023  Zn493   1.928   1_565 S
O1024  Zn1030  1.928   .     S
Zn1033 O708    1.943   1_655 S
Zn1035 O438    1.943   1_565 S
Zn1038 O707    1.943   1_655 S
Zn1040 O437    1.943   1_565 S
