data_str_m1_o10_o18_pcu_sym.210
_audit_creation_date              2020-01-03
_audit_creation_method            'Materials Studio'
_symmetry_space_group_name_H-M    'P1'
_symmetry_Int_Tables_number       1
_symmetry_cell_setting            triclinic
loop_
_symmetry_equiv_pos_as_xyz
  x,y,z
_cell_length_a                    32.3915
_cell_length_b                    32.7538
_cell_length_c                    35.7502
_cell_angle_alpha                 98.3152
_cell_angle_beta                  72.4582
_cell_angle_gamma                 98.5721
loop_
_atom_site_label
_atom_site_type_symbol
_atom_site_fract_x
_atom_site_fract_y
_atom_site_fract_z
_atom_site_U_iso_or_equiv
_atom_site_adp_type
_atom_site_occupancy
C1     C     0.05246   0.16003   0.25883   0.00000  Uiso   1.00
C2     C     0.17279   0.12168   0.46661   0.00000  Uiso   1.00
C3     C     0.19792   0.10452   0.48444   0.00000  Uiso   1.00
C4     C     0.28112   0.17367   0.24114   0.00000  Uiso   1.00
C5     C     0.20192   0.12221   0.02157   0.00000  Uiso   1.00
C6     C     0.17245   0.15070   0.04472   0.00000  Uiso   1.00
C7     C     0.23359   0.11007   0.03619   0.00000  Uiso   1.00
C8     C     0.22690   0.11461   0.07725   0.00000  Uiso   1.00
C9     C     0.17123   0.16046   0.08517   0.00000  Uiso   1.00
C10    C     0.32732   0.17638   0.23749   0.00000  Uiso   1.00
C11    C     0.00696   0.15803   0.26233   0.00000  Uiso   1.00
C12    C     0.11523   0.23544   0.41783   0.00000  Uiso   1.00
C13    C     0.18284   0.32335   0.24331   0.00000  Uiso   1.00
C14    C     0.14902   0.01207   0.26274   0.00000  Uiso   1.00
C15    C     0.15557   0.05630   0.25900   0.00000  Uiso   1.00
C16    C     0.17721   0.27796   0.24222   0.00000  Uiso   1.00
C17    C     0.18842   0.14532   0.14396   0.00000  Uiso   1.00
C18    C     0.14698   0.18950   0.35590   0.00000  Uiso   1.00
C19    C     0.14097   0.20318   0.39837   0.00000  Uiso   1.00
C20    C     0.19521   0.13921   0.10140   0.00000  Uiso   1.00
C21    C     0.09972   0.23976   0.45914   0.00000  Uiso   1.00
C22    C     0.09983   0.28741   0.05339   0.00000  Uiso   1.00
C23    C     0.16091   0.18429   0.41998   0.00000  Uiso   1.00
C24    C     0.06971   0.31922   0.07811   0.00000  Uiso   1.00
C25    C     0.09535   0.02769   0.08597   0.00000  Uiso   1.00
C26    C     0.28903   0.06900   0.00113   0.00000  Uiso   1.00
C27    C     0.33292   0.06962   0.00917   0.00000  Uiso   1.00
C28    C     0.01480   0.02648   0.00048   0.00000  Uiso   1.00
C29    C     0.25298   0.01074   0.24394   0.00000  Uiso   1.00
C30    C     0.29487   0.03701   0.22404   0.00000  Uiso   1.00
C31    C     0.32943   0.03868   0.24548   0.00000  Uiso   1.00
C32    C     0.07533   0.01750   0.30157   0.00000  Uiso   1.00
C33    C     0.07980   0.03681   0.34212   0.00000  Uiso   1.00
C34    C     0.14381   0.18618   0.46164   0.00000  Uiso   1.00
C35    C     0.04640   0.06749   0.36144   0.00000  Uiso   1.00
C36    C     0.16987   0.22837   0.10928   0.00000  Uiso   1.00
C37    C     0.24051   0.05400   0.09422   0.00000  Uiso   1.00
C38    C     0.21869   0.04267   0.13617   0.00000  Uiso   1.00
C39    C     0.20649   0.32918   0.13592   0.00000  Uiso   1.00
C40    C     0.19152   0.03444   0.48394   0.00000  Uiso   1.00
C41    C     0.02782   0.24741   0.47817   0.00000  Uiso   1.00
C42    C     0.14003   0.28725   0.37585   0.00000  Uiso   1.00
C43    C     0.15954   0.32017   0.40241   0.00000  Uiso   1.00
C44    C     0.19515   0.01608   0.37754   0.00000  Uiso   1.00
C45    C     0.11478   0.21600   0.48150   0.00000  Uiso   1.00
C46    C     0.23559   0.19117   0.40538   0.00000  Uiso   1.00
C47    C     0.25337   0.22045   0.37294   0.00000  Uiso   1.00
C48    C     0.29622   0.24546   0.37582   0.00000  Uiso   1.00
C49    C     0.11947   0.08769   0.44008   0.00000  Uiso   1.00
C50    C     0.15598   0.15971   0.48385   0.00000  Uiso   1.00
C51    C     0.14842   0.16951   0.02511   0.00000  Uiso   1.00
C52    C     0.11754   0.19754   0.04417   0.00000  Uiso   1.00
C53    C     0.10200   0.22149   0.02314   0.00000  Uiso   1.00
H54    H     0.01747   0.19319   0.21458   0.00000  Uiso   1.00
H55    H     0.11198   0.04138   0.05786   0.00000  Uiso   1.00
H56    H     0.29392   0.06065   0.46896   0.00000  Uiso   1.00
H57    H     0.26509   0.04431   0.01606   0.00000  Uiso   1.00
H58    H     0.02430   0.09116   0.49036   0.00000  Uiso   1.00
H59    H     0.33026   0.08122   0.04047   0.00000  Uiso   1.00
H60    H     0.32414   0.00486   0.01968   0.00000  Uiso   1.00
H61    H     0.04662   0.02791   0.00661   0.00000  Uiso   1.00
H62    H     0.01873   0.01458   0.46902   0.00000  Uiso   1.00
H63    H     0.26073   0.31208   0.24401   0.00000  Uiso   1.00
H64    H     0.24033   0.02476   0.27500   0.00000  Uiso   1.00
H65    H     0.31748   0.14123   0.28558   0.00000  Uiso   1.00
H66    H     0.30782   0.02353   0.19298   0.00000  Uiso   1.00
H67    H     0.28765   0.06911   0.22384   0.00000  Uiso   1.00
H68    H     0.31785   0.05355   0.27618   0.00000  Uiso   1.00
H69    H     0.02636   0.05714   0.22978   0.00000  Uiso   1.00
H70    H     0.00379   0.00690   0.24613   0.00000  Uiso   1.00
H71    H     0.04364   0.33091   0.30653   0.00000  Uiso   1.00
H72    H     0.07282   0.04118   0.28333   0.00000  Uiso   1.00
H73    H     0.07449   0.01184   0.36158   0.00000  Uiso   1.00
H74    H     0.11294   0.05325   0.33932   0.00000  Uiso   1.00
H75    H     0.05187   0.09358   0.34317   0.00000  Uiso   1.00
H76    H     0.10359   0.20157   0.07552   0.00000  Uiso   1.00
H77    H     0.04965   0.08031   0.39104   0.00000  Uiso   1.00
H78    H     0.01282   0.05171   0.36498   0.00000  Uiso   1.00
H79    H     0.18107   0.23843   0.07905   0.00000  Uiso   1.00
H80    H     0.19836   0.22929   0.12068   0.00000  Uiso   1.00
H81    H     0.14846   0.25107   0.12866   0.00000  Uiso   1.00
H82    H     0.27045   0.03808   0.08209   0.00000  Uiso   1.00
H83    H     0.21802   0.04099   0.07600   0.00000  Uiso   1.00
H84    H     0.24088   0.05341   0.15491   0.00000  Uiso   1.00
H85    H     0.18843   0.05775   0.14885   0.00000  Uiso   1.00
H86    H     0.18752   0.31787   0.11455   0.00000  Uiso   1.00
H87    H     0.12043   0.30062   0.02586   0.00000  Uiso   1.00
H88    H     0.18578   0.32156   0.16544   0.00000  Uiso   1.00
H89    H     0.23626   0.31299   0.12773   0.00000  Uiso   1.00
H90    H     0.18943   0.03653   0.01574   0.00000  Uiso   1.00
H91    H     0.20726   0.00616   0.46945   0.00000  Uiso   1.00
H92    H     0.15814   0.03054   0.48053   0.00000  Uiso   1.00
H93    H     0.02083   0.21800   0.49232   0.00000  Uiso   1.00
H94    H     0.02373   0.24122   0.44799   0.00000  Uiso   1.00
H95    H     0.00317   0.26793   0.49604   0.00000  Uiso   1.00
H96    H     0.12931   0.30282   0.35537   0.00000  Uiso   1.00
H97    H     0.16646   0.26907   0.35701   0.00000  Uiso   1.00
H98    H     0.12127   0.28149   0.07082   0.00000  Uiso   1.00
H99    H     0.13345   0.00442   0.42264   0.00000  Uiso   1.00
H100   H     0.17408   0.30468   0.42026   0.00000  Uiso   1.00
H101   H     0.22058   0.33155   0.35631   0.00000  Uiso   1.00
H102   H     0.21099   0.03839   0.39675   0.00000  Uiso   1.00
H103   H     0.18104   0.03370   0.36096   0.00000  Uiso   1.00
H104   H     0.26079   0.17062   0.40314   0.00000  Uiso   1.00
H105   H     0.22998   0.20926   0.43509   0.00000  Uiso   1.00
H106   H     0.25884   0.20204   0.34355   0.00000  Uiso   1.00
H107   H     0.22928   0.24234   0.37563   0.00000  Uiso   1.00
H108   H     0.29140   0.26455   0.40483   0.00000  Uiso   1.00
H109   H     0.04613   0.32365   0.06242   0.00000  Uiso   1.00
H110   H     0.30807   0.26649   0.35212   0.00000  Uiso   1.00
H111   H     0.32133   0.22437   0.37224   0.00000  Uiso   1.00
H112   H     0.10051   0.11442   0.44448   0.00000  Uiso   1.00
H113   H     0.10678   0.06935   0.46582   0.00000  Uiso   1.00
H114   H     0.11396   0.06773   0.41386   0.00000  Uiso   1.00
H115   H     0.05104   0.30735   0.10673   0.00000  Uiso   1.00
H116   H     0.11999   0.02393   0.10078   0.00000  Uiso   1.00
H117   H     0.07271   0.04942   0.10541   0.00000  Uiso   1.00
O118   O     0.16667   0.16667   0.25000   0.00000  Uiso   1.00
O119   O     0.15693   0.12393   0.16625   0.00000  Uiso   1.00
O120   O     0.12687   0.20646   0.33749   0.00000  Uiso   1.00
O121   O     0.21088   0.17493   0.15877   0.00000  Uiso   1.00
O122   O     0.17198   0.16135   0.33749   0.00000  Uiso   1.00
O123   O     0.07432   0.25054   0.04417   0.00000  Uiso   1.00
O124   O     0.27570   0.10928   0.01105   0.00000  Uiso   1.00
O125   O     0.22236   0.00999   0.22279   0.00000  Uiso   1.00
O126   O     0.10841   0.32485   0.28185   0.00000  Uiso   1.00
O127   O     0.14548   0.18887   0.11024   0.00000  Uiso   1.00
O128   O     0.25293   0.09745   0.09390   0.00000  Uiso   1.00
O129   O     0.17849   0.08101   0.27821   0.00000  Uiso   1.00
O130   O     0.21697   0.06909   0.46588   0.00000  Uiso   1.00
O131   O     0.06972   0.26762   0.47735   0.00000  Uiso   1.00
O132   O     0.10303   0.26249   0.39750   0.00000  Uiso   1.00
O133   O     0.19815   0.16538   0.40002   0.00000  Uiso   1.00
O134   O     0.16460   0.10020   0.43273   0.00000  Uiso   1.00
O135   O     0.14581   0.26136   0.26767   0.00000  Uiso   1.00
O136   O     0.07452   0.13251   0.23607   0.00000  Uiso   1.00
O137   O     0.26785   0.19179   0.21806   0.00000  Uiso   1.00
O138   O     0.06990   0.18960   0.27820   0.00000  Uiso   1.00
O139   O     0.25440   0.15277   0.26768   0.00000  Uiso   1.00
O140   O     0.13800   0.06903   0.23607   0.00000  Uiso   1.00
O141   O     0.20437   0.25527   0.21805   0.00000  Uiso   1.00
Zn142  Zn    0.19244   0.14090   0.28278   0.00000  Uiso   1.00
Zn143  Zn    0.13459   0.12378   0.22258   0.00000  Uiso   1.00
Zn144  Zn    0.21166   0.19664   0.21188   0.00000  Uiso   1.00
Zn145  Zn    0.12798   0.20535   0.28277   0.00000  Uiso   1.00
C146   C     0.38579   0.16003   0.25883   0.00000  Uiso   1.00
C147   C     0.50612   0.12168   0.46661   0.00000  Uiso   1.00
C148   C     0.53126   0.10452   0.48444   0.00000  Uiso   1.00
C149   C     0.61445   0.17367   0.24114   0.00000  Uiso   1.00
C150   C     0.53525   0.12221   0.02157   0.00000  Uiso   1.00
C151   C     0.50578   0.15070   0.04472   0.00000  Uiso   1.00
C152   C     0.56693   0.11007   0.03619   0.00000  Uiso   1.00
C153   C     0.56024   0.11461   0.07725   0.00000  Uiso   1.00
C154   C     0.50456   0.16046   0.08517   0.00000  Uiso   1.00
C155   C     0.66065   0.17638   0.23749   0.00000  Uiso   1.00
C156   C     0.34029   0.15803   0.26233   0.00000  Uiso   1.00
C157   C     0.44856   0.23544   0.41783   0.00000  Uiso   1.00
C158   C     0.51618   0.32335   0.24331   0.00000  Uiso   1.00
C159   C     0.48235   0.01207   0.26274   0.00000  Uiso   1.00
C160   C     0.48891   0.05630   0.25900   0.00000  Uiso   1.00
C161   C     0.51054   0.27796   0.24222   0.00000  Uiso   1.00
C162   C     0.52176   0.14532   0.14396   0.00000  Uiso   1.00
C163   C     0.48031   0.18950   0.35590   0.00000  Uiso   1.00
C164   C     0.47430   0.20318   0.39837   0.00000  Uiso   1.00
C165   C     0.52854   0.13921   0.10140   0.00000  Uiso   1.00
C166   C     0.43305   0.23976   0.45914   0.00000  Uiso   1.00
C167   C     0.43317   0.28741   0.05339   0.00000  Uiso   1.00
C168   C     0.49424   0.18429   0.41998   0.00000  Uiso   1.00
C169   C     0.40304   0.31922   0.07811   0.00000  Uiso   1.00
C170   C     0.42869   0.02769   0.08597   0.00000  Uiso   1.00
C171   C     0.62236   0.06900   0.00113   0.00000  Uiso   1.00
C172   C     0.66625   0.06962   0.00917   0.00000  Uiso   1.00
C173   C     0.34814   0.02648   0.00048   0.00000  Uiso   1.00
C174   C     0.58631   0.01074   0.24394   0.00000  Uiso   1.00
C175   C     0.62820   0.03701   0.22404   0.00000  Uiso   1.00
C176   C     0.66276   0.03868   0.24548   0.00000  Uiso   1.00
C177   C     0.40866   0.01750   0.30157   0.00000  Uiso   1.00
C178   C     0.41313   0.03681   0.34212   0.00000  Uiso   1.00
C179   C     0.47714   0.18618   0.46164   0.00000  Uiso   1.00
C180   C     0.37973   0.06749   0.36144   0.00000  Uiso   1.00
C181   C     0.50321   0.22837   0.10928   0.00000  Uiso   1.00
C182   C     0.57384   0.05400   0.09422   0.00000  Uiso   1.00
C183   C     0.55203   0.04267   0.13617   0.00000  Uiso   1.00
C184   C     0.53982   0.32918   0.13592   0.00000  Uiso   1.00
C185   C     0.52485   0.03444   0.48394   0.00000  Uiso   1.00
C186   C     0.36115   0.24741   0.47817   0.00000  Uiso   1.00
C187   C     0.47336   0.28725   0.37585   0.00000  Uiso   1.00
C188   C     0.49287   0.32017   0.40241   0.00000  Uiso   1.00
C189   C     0.52849   0.01608   0.37754   0.00000  Uiso   1.00
C190   C     0.44811   0.21600   0.48150   0.00000  Uiso   1.00
C191   C     0.56892   0.19117   0.40538   0.00000  Uiso   1.00
C192   C     0.58671   0.22045   0.37294   0.00000  Uiso   1.00
C193   C     0.62955   0.24546   0.37582   0.00000  Uiso   1.00
C194   C     0.45280   0.08769   0.44008   0.00000  Uiso   1.00
C195   C     0.48931   0.15971   0.48385   0.00000  Uiso   1.00
C196   C     0.48176   0.16951   0.02511   0.00000  Uiso   1.00
C197   C     0.45087   0.19754   0.04417   0.00000  Uiso   1.00
C198   C     0.43533   0.22149   0.02314   0.00000  Uiso   1.00
H199   H     0.35080   0.19319   0.21458   0.00000  Uiso   1.00
H200   H     0.44531   0.04138   0.05786   0.00000  Uiso   1.00
H201   H     0.62726   0.06065   0.46896   0.00000  Uiso   1.00
H202   H     0.59842   0.04431   0.01606   0.00000  Uiso   1.00
H203   H     0.35763   0.09116   0.49036   0.00000  Uiso   1.00
H204   H     0.66360   0.08122   0.04047   0.00000  Uiso   1.00
H205   H     0.65747   0.00486   0.01968   0.00000  Uiso   1.00
H206   H     0.37995   0.02791   0.00661   0.00000  Uiso   1.00
H207   H     0.35206   0.01458   0.46902   0.00000  Uiso   1.00
H208   H     0.59406   0.31208   0.24401   0.00000  Uiso   1.00
H209   H     0.57366   0.02476   0.27500   0.00000  Uiso   1.00
H210   H     0.65081   0.14123   0.28558   0.00000  Uiso   1.00
H211   H     0.64115   0.02353   0.19298   0.00000  Uiso   1.00
H212   H     0.62098   0.06911   0.22384   0.00000  Uiso   1.00
H213   H     0.65119   0.05355   0.27618   0.00000  Uiso   1.00
H214   H     0.35969   0.05714   0.22978   0.00000  Uiso   1.00
H215   H     0.33712   0.00690   0.24613   0.00000  Uiso   1.00
H216   H     0.37697   0.33091   0.30653   0.00000  Uiso   1.00
H217   H     0.40615   0.04118   0.28333   0.00000  Uiso   1.00
H218   H     0.40782   0.01184   0.36158   0.00000  Uiso   1.00
H219   H     0.44627   0.05325   0.33932   0.00000  Uiso   1.00
H220   H     0.38520   0.09358   0.34317   0.00000  Uiso   1.00
H221   H     0.43692   0.20157   0.07552   0.00000  Uiso   1.00
H222   H     0.38298   0.08031   0.39104   0.00000  Uiso   1.00
H223   H     0.34616   0.05171   0.36498   0.00000  Uiso   1.00
H224   H     0.51440   0.23843   0.07905   0.00000  Uiso   1.00
H225   H     0.53169   0.22929   0.12068   0.00000  Uiso   1.00
H226   H     0.48180   0.25107   0.12866   0.00000  Uiso   1.00
H227   H     0.60378   0.03808   0.08209   0.00000  Uiso   1.00
H228   H     0.55135   0.04099   0.07600   0.00000  Uiso   1.00
H229   H     0.57421   0.05341   0.15491   0.00000  Uiso   1.00
H230   H     0.52176   0.05775   0.14885   0.00000  Uiso   1.00
H231   H     0.52086   0.31787   0.11455   0.00000  Uiso   1.00
H232   H     0.45377   0.30062   0.02586   0.00000  Uiso   1.00
H233   H     0.51911   0.32156   0.16544   0.00000  Uiso   1.00
H234   H     0.56959   0.31299   0.12773   0.00000  Uiso   1.00
H235   H     0.52276   0.03653   0.01574   0.00000  Uiso   1.00
H236   H     0.54060   0.00616   0.46945   0.00000  Uiso   1.00
H237   H     0.49147   0.03054   0.48053   0.00000  Uiso   1.00
H238   H     0.35416   0.21800   0.49232   0.00000  Uiso   1.00
H239   H     0.35706   0.24122   0.44799   0.00000  Uiso   1.00
H240   H     0.33650   0.26793   0.49604   0.00000  Uiso   1.00
H241   H     0.46265   0.30282   0.35537   0.00000  Uiso   1.00
H242   H     0.49980   0.26907   0.35701   0.00000  Uiso   1.00
H243   H     0.45460   0.28149   0.07082   0.00000  Uiso   1.00
H244   H     0.46678   0.00442   0.42264   0.00000  Uiso   1.00
H245   H     0.50742   0.30468   0.42026   0.00000  Uiso   1.00
H246   H     0.55391   0.33155   0.35631   0.00000  Uiso   1.00
H247   H     0.54432   0.03839   0.39675   0.00000  Uiso   1.00
H248   H     0.51437   0.03370   0.36096   0.00000  Uiso   1.00
H249   H     0.59412   0.17062   0.40314   0.00000  Uiso   1.00
H250   H     0.56332   0.20926   0.43509   0.00000  Uiso   1.00
H251   H     0.59218   0.20204   0.34355   0.00000  Uiso   1.00
H252   H     0.56261   0.24234   0.37563   0.00000  Uiso   1.00
H253   H     0.62474   0.26455   0.40483   0.00000  Uiso   1.00
H254   H     0.37946   0.32365   0.06242   0.00000  Uiso   1.00
H255   H     0.64140   0.26649   0.35212   0.00000  Uiso   1.00
H256   H     0.65466   0.22437   0.37224   0.00000  Uiso   1.00
H257   H     0.43385   0.11442   0.44448   0.00000  Uiso   1.00
H258   H     0.44011   0.06935   0.46582   0.00000  Uiso   1.00
H259   H     0.44729   0.06773   0.41386   0.00000  Uiso   1.00
H260   H     0.38437   0.30735   0.10673   0.00000  Uiso   1.00
H261   H     0.45332   0.02393   0.10078   0.00000  Uiso   1.00
H262   H     0.40604   0.04942   0.10541   0.00000  Uiso   1.00
O263   O     0.50000   0.16667   0.25000   0.00000  Uiso   1.00
O264   O     0.49027   0.12393   0.16625   0.00000  Uiso   1.00
O265   O     0.46020   0.20646   0.33749   0.00000  Uiso   1.00
O266   O     0.54421   0.17493   0.15877   0.00000  Uiso   1.00
O267   O     0.50532   0.16135   0.33749   0.00000  Uiso   1.00
O268   O     0.40766   0.25054   0.04417   0.00000  Uiso   1.00
O269   O     0.60904   0.10928   0.01105   0.00000  Uiso   1.00
O270   O     0.55570   0.00999   0.22279   0.00000  Uiso   1.00
O271   O     0.44174   0.32485   0.28185   0.00000  Uiso   1.00
O272   O     0.47882   0.18887   0.11024   0.00000  Uiso   1.00
O273   O     0.58626   0.09745   0.09390   0.00000  Uiso   1.00
O274   O     0.51182   0.08101   0.27821   0.00000  Uiso   1.00
O275   O     0.55030   0.06909   0.46588   0.00000  Uiso   1.00
O276   O     0.40305   0.26762   0.47735   0.00000  Uiso   1.00
O277   O     0.43637   0.26249   0.39750   0.00000  Uiso   1.00
O278   O     0.53149   0.16538   0.40002   0.00000  Uiso   1.00
O279   O     0.49793   0.10020   0.43273   0.00000  Uiso   1.00
O280   O     0.47914   0.26136   0.26767   0.00000  Uiso   1.00
O281   O     0.40785   0.13251   0.23607   0.00000  Uiso   1.00
O282   O     0.60119   0.19179   0.21806   0.00000  Uiso   1.00
O283   O     0.40323   0.18960   0.27820   0.00000  Uiso   1.00
O284   O     0.58773   0.15277   0.26768   0.00000  Uiso   1.00
O285   O     0.47133   0.06903   0.23607   0.00000  Uiso   1.00
O286   O     0.53771   0.25527   0.21805   0.00000  Uiso   1.00
Zn287  Zn    0.52577   0.14090   0.28278   0.00000  Uiso   1.00
Zn288  Zn    0.46792   0.12378   0.22258   0.00000  Uiso   1.00
Zn289  Zn    0.54500   0.19664   0.21188   0.00000  Uiso   1.00
Zn290  Zn    0.46131   0.20535   0.28277   0.00000  Uiso   1.00
C291   C     0.71913   0.16003   0.25883   0.00000  Uiso   1.00
C292   C     0.83946   0.12168   0.46661   0.00000  Uiso   1.00
C293   C     0.86459   0.10452   0.48444   0.00000  Uiso   1.00
C294   C     0.94779   0.17367   0.24114   0.00000  Uiso   1.00
C295   C     0.86858   0.12221   0.02157   0.00000  Uiso   1.00
C296   C     0.83911   0.15070   0.04472   0.00000  Uiso   1.00
C297   C     0.90026   0.11007   0.03619   0.00000  Uiso   1.00
C298   C     0.89357   0.11461   0.07725   0.00000  Uiso   1.00
C299   C     0.83790   0.16046   0.08517   0.00000  Uiso   1.00
C300   C     0.99398   0.17638   0.23749   0.00000  Uiso   1.00
C301   C     0.67362   0.15803   0.26233   0.00000  Uiso   1.00
C302   C     0.78189   0.23544   0.41783   0.00000  Uiso   1.00
C303   C     0.84951   0.32335   0.24331   0.00000  Uiso   1.00
C304   C     0.81569   0.01207   0.26274   0.00000  Uiso   1.00
C305   C     0.82224   0.05630   0.25900   0.00000  Uiso   1.00
C306   C     0.84388   0.27796   0.24222   0.00000  Uiso   1.00
C307   C     0.85509   0.14532   0.14396   0.00000  Uiso   1.00
C308   C     0.81364   0.18950   0.35590   0.00000  Uiso   1.00
C309   C     0.80764   0.20318   0.39837   0.00000  Uiso   1.00
C310   C     0.86187   0.13921   0.10140   0.00000  Uiso   1.00
C311   C     0.76638   0.23976   0.45914   0.00000  Uiso   1.00
C312   C     0.76650   0.28741   0.05339   0.00000  Uiso   1.00
C313   C     0.82758   0.18429   0.41998   0.00000  Uiso   1.00
C314   C     0.73637   0.31922   0.07811   0.00000  Uiso   1.00
C315   C     0.76202   0.02769   0.08597   0.00000  Uiso   1.00
C316   C     0.95569   0.06900   0.00113   0.00000  Uiso   1.00
C317   C     0.99959   0.06962   0.00917   0.00000  Uiso   1.00
C318   C     0.68147   0.02648   0.00048   0.00000  Uiso   1.00
C319   C     0.91964   0.01074   0.24394   0.00000  Uiso   1.00
C320   C     0.96154   0.03701   0.22404   0.00000  Uiso   1.00
C321   C     0.99610   0.03868   0.24548   0.00000  Uiso   1.00
C322   C     0.74199   0.01750   0.30157   0.00000  Uiso   1.00
C323   C     0.74647   0.03681   0.34212   0.00000  Uiso   1.00
C324   C     0.81047   0.18618   0.46164   0.00000  Uiso   1.00
C325   C     0.71307   0.06749   0.36144   0.00000  Uiso   1.00
C326   C     0.83654   0.22837   0.10928   0.00000  Uiso   1.00
C327   C     0.90717   0.05400   0.09422   0.00000  Uiso   1.00
C328   C     0.88536   0.04267   0.13617   0.00000  Uiso   1.00
C329   C     0.87316   0.32918   0.13592   0.00000  Uiso   1.00
C330   C     0.85819   0.03444   0.48394   0.00000  Uiso   1.00
C331   C     0.69449   0.24741   0.47817   0.00000  Uiso   1.00
C332   C     0.80669   0.28725   0.37585   0.00000  Uiso   1.00
C333   C     0.82621   0.32017   0.40241   0.00000  Uiso   1.00
C334   C     0.86182   0.01608   0.37754   0.00000  Uiso   1.00
C335   C     0.78145   0.21600   0.48150   0.00000  Uiso   1.00
C336   C     0.90226   0.19117   0.40538   0.00000  Uiso   1.00
C337   C     0.92004   0.22045   0.37294   0.00000  Uiso   1.00
C338   C     0.96288   0.24546   0.37582   0.00000  Uiso   1.00
C339   C     0.78613   0.08769   0.44008   0.00000  Uiso   1.00
C340   C     0.82264   0.15971   0.48385   0.00000  Uiso   1.00
C341   C     0.81509   0.16951   0.02511   0.00000  Uiso   1.00
C342   C     0.78421   0.19754   0.04417   0.00000  Uiso   1.00
C343   C     0.76867   0.22149   0.02314   0.00000  Uiso   1.00
H344   H     0.68414   0.19319   0.21458   0.00000  Uiso   1.00
H345   H     0.77864   0.04138   0.05786   0.00000  Uiso   1.00
H346   H     0.96059   0.06065   0.46896   0.00000  Uiso   1.00
H347   H     0.93176   0.04431   0.01606   0.00000  Uiso   1.00
H348   H     0.69096   0.09116   0.49036   0.00000  Uiso   1.00
H349   H     0.99693   0.08122   0.04047   0.00000  Uiso   1.00
H350   H     0.99080   0.00486   0.01968   0.00000  Uiso   1.00
H351   H     0.71329   0.02791   0.00661   0.00000  Uiso   1.00
H352   H     0.68540   0.01458   0.46902   0.00000  Uiso   1.00
H353   H     0.92739   0.31208   0.24401   0.00000  Uiso   1.00
H354   H     0.90700   0.02476   0.27500   0.00000  Uiso   1.00
H355   H     0.98415   0.14123   0.28558   0.00000  Uiso   1.00
H356   H     0.97449   0.02353   0.19298   0.00000  Uiso   1.00
H357   H     0.95431   0.06911   0.22384   0.00000  Uiso   1.00
H358   H     0.98452   0.05355   0.27618   0.00000  Uiso   1.00
H359   H     0.69302   0.05714   0.22978   0.00000  Uiso   1.00
H360   H     0.67045   0.00690   0.24613   0.00000  Uiso   1.00
H361   H     0.71031   0.33091   0.30653   0.00000  Uiso   1.00
H362   H     0.73948   0.04118   0.28333   0.00000  Uiso   1.00
H363   H     0.74116   0.01184   0.36158   0.00000  Uiso   1.00
H364   H     0.77961   0.05325   0.33932   0.00000  Uiso   1.00
H365   H     0.71853   0.09358   0.34317   0.00000  Uiso   1.00
H366   H     0.77025   0.20157   0.07552   0.00000  Uiso   1.00
H367   H     0.71632   0.08031   0.39104   0.00000  Uiso   1.00
H368   H     0.67949   0.05171   0.36498   0.00000  Uiso   1.00
H369   H     0.84773   0.23843   0.07905   0.00000  Uiso   1.00
H370   H     0.86502   0.22929   0.12068   0.00000  Uiso   1.00
H371   H     0.81513   0.25107   0.12866   0.00000  Uiso   1.00
H372   H     0.93711   0.03808   0.08209   0.00000  Uiso   1.00
H373   H     0.88469   0.04099   0.07600   0.00000  Uiso   1.00
H374   H     0.90754   0.05341   0.15491   0.00000  Uiso   1.00
H375   H     0.85510   0.05775   0.14885   0.00000  Uiso   1.00
H376   H     0.85419   0.31787   0.11455   0.00000  Uiso   1.00
H377   H     0.78710   0.30062   0.02586   0.00000  Uiso   1.00
H378   H     0.85244   0.32156   0.16544   0.00000  Uiso   1.00
H379   H     0.90292   0.31299   0.12773   0.00000  Uiso   1.00
H380   H     0.85609   0.03653   0.01574   0.00000  Uiso   1.00
H381   H     0.87393   0.00616   0.46945   0.00000  Uiso   1.00
H382   H     0.82481   0.03054   0.48053   0.00000  Uiso   1.00
H383   H     0.68750   0.21800   0.49232   0.00000  Uiso   1.00
H384   H     0.69040   0.24122   0.44799   0.00000  Uiso   1.00
H385   H     0.66983   0.26793   0.49604   0.00000  Uiso   1.00
H386   H     0.79598   0.30282   0.35537   0.00000  Uiso   1.00
H387   H     0.83313   0.26907   0.35701   0.00000  Uiso   1.00
H388   H     0.78793   0.28149   0.07082   0.00000  Uiso   1.00
H389   H     0.80011   0.00442   0.42264   0.00000  Uiso   1.00
H390   H     0.84075   0.30468   0.42026   0.00000  Uiso   1.00
H391   H     0.88725   0.33155   0.35631   0.00000  Uiso   1.00
H392   H     0.87765   0.03839   0.39675   0.00000  Uiso   1.00
H393   H     0.84771   0.03370   0.36096   0.00000  Uiso   1.00
H394   H     0.92745   0.17062   0.40314   0.00000  Uiso   1.00
H395   H     0.89665   0.20926   0.43509   0.00000  Uiso   1.00
H396   H     0.92551   0.20204   0.34355   0.00000  Uiso   1.00
H397   H     0.89595   0.24234   0.37563   0.00000  Uiso   1.00
H398   H     0.95807   0.26455   0.40483   0.00000  Uiso   1.00
H399   H     0.71279   0.32365   0.06242   0.00000  Uiso   1.00
H400   H     0.97473   0.26649   0.35212   0.00000  Uiso   1.00
H401   H     0.98799   0.22437   0.37224   0.00000  Uiso   1.00
H402   H     0.76718   0.11442   0.44448   0.00000  Uiso   1.00
H403   H     0.77345   0.06935   0.46582   0.00000  Uiso   1.00
H404   H     0.78062   0.06773   0.41386   0.00000  Uiso   1.00
H405   H     0.71771   0.30735   0.10673   0.00000  Uiso   1.00
H406   H     0.78665   0.02393   0.10078   0.00000  Uiso   1.00
H407   H     0.73938   0.04942   0.10541   0.00000  Uiso   1.00
O408   O     0.83333   0.16667   0.25000   0.00000  Uiso   1.00
O409   O     0.82360   0.12393   0.16625   0.00000  Uiso   1.00
O410   O     0.79354   0.20646   0.33749   0.00000  Uiso   1.00
O411   O     0.87755   0.17493   0.15877   0.00000  Uiso   1.00
O412   O     0.83865   0.16135   0.33749   0.00000  Uiso   1.00
O413   O     0.74099   0.25054   0.04417   0.00000  Uiso   1.00
O414   O     0.94237   0.10928   0.01105   0.00000  Uiso   1.00
O415   O     0.88903   0.00999   0.22279   0.00000  Uiso   1.00
O416   O     0.77507   0.32485   0.28185   0.00000  Uiso   1.00
O417   O     0.81215   0.18887   0.11024   0.00000  Uiso   1.00
O418   O     0.91959   0.09745   0.09390   0.00000  Uiso   1.00
O419   O     0.84515   0.08101   0.27821   0.00000  Uiso   1.00
O420   O     0.88363   0.06909   0.46588   0.00000  Uiso   1.00
O421   O     0.73638   0.26762   0.47735   0.00000  Uiso   1.00
O422   O     0.76970   0.26249   0.39750   0.00000  Uiso   1.00
O423   O     0.86482   0.16538   0.40002   0.00000  Uiso   1.00
O424   O     0.83127   0.10020   0.43273   0.00000  Uiso   1.00
O425   O     0.81247   0.26136   0.26767   0.00000  Uiso   1.00
O426   O     0.74119   0.13251   0.23607   0.00000  Uiso   1.00
O427   O     0.93452   0.19179   0.21806   0.00000  Uiso   1.00
O428   O     0.73656   0.18960   0.27820   0.00000  Uiso   1.00
O429   O     0.92106   0.15277   0.26768   0.00000  Uiso   1.00
O430   O     0.80467   0.06903   0.23607   0.00000  Uiso   1.00
O431   O     0.87104   0.25527   0.21805   0.00000  Uiso   1.00
Zn432  Zn    0.85910   0.14090   0.28278   0.00000  Uiso   1.00
Zn433  Zn    0.80125   0.12378   0.22258   0.00000  Uiso   1.00
Zn434  Zn    0.87833   0.19664   0.21188   0.00000  Uiso   1.00
Zn435  Zn    0.79465   0.20535   0.28277   0.00000  Uiso   1.00
C436   C     0.05246   0.49337   0.25883   0.00000  Uiso   1.00
C437   C     0.17279   0.45501   0.46661   0.00000  Uiso   1.00
C438   C     0.19792   0.43785   0.48444   0.00000  Uiso   1.00
C439   C     0.28112   0.50700   0.24114   0.00000  Uiso   1.00
C440   C     0.20192   0.45555   0.02157   0.00000  Uiso   1.00
C441   C     0.17245   0.48404   0.04472   0.00000  Uiso   1.00
C442   C     0.23359   0.44340   0.03619   0.00000  Uiso   1.00
C443   C     0.22690   0.44794   0.07725   0.00000  Uiso   1.00
C444   C     0.17123   0.49380   0.08517   0.00000  Uiso   1.00
C445   C     0.32732   0.50971   0.23749   0.00000  Uiso   1.00
C446   C     0.00696   0.49136   0.26233   0.00000  Uiso   1.00
C447   C     0.11523   0.56878   0.41783   0.00000  Uiso   1.00
C448   C     0.18284   0.65669   0.24331   0.00000  Uiso   1.00
C449   C     0.14902   0.34540   0.26274   0.00000  Uiso   1.00
C450   C     0.15557   0.38963   0.25900   0.00000  Uiso   1.00
C451   C     0.17721   0.61129   0.24222   0.00000  Uiso   1.00
C452   C     0.18842   0.47865   0.14396   0.00000  Uiso   1.00
C453   C     0.14698   0.52283   0.35590   0.00000  Uiso   1.00
C454   C     0.14097   0.53651   0.39837   0.00000  Uiso   1.00
C455   C     0.19521   0.47255   0.10140   0.00000  Uiso   1.00
C456   C     0.09972   0.57309   0.45914   0.00000  Uiso   1.00
C457   C     0.09983   0.62075   0.05339   0.00000  Uiso   1.00
C458   C     0.16091   0.51763   0.41998   0.00000  Uiso   1.00
C459   C     0.06971   0.65255   0.07811   0.00000  Uiso   1.00
C460   C     0.09535   0.36102   0.08597   0.00000  Uiso   1.00
C461   C     0.28903   0.40233   0.00113   0.00000  Uiso   1.00
C462   C     0.33292   0.40295   0.00917   0.00000  Uiso   1.00
C463   C     0.01480   0.35982   0.00048   0.00000  Uiso   1.00
C464   C     0.25298   0.34407   0.24394   0.00000  Uiso   1.00
C465   C     0.29487   0.37034   0.22404   0.00000  Uiso   1.00
C466   C     0.32943   0.37202   0.24548   0.00000  Uiso   1.00
C467   C     0.07533   0.35083   0.30157   0.00000  Uiso   1.00
C468   C     0.07980   0.37014   0.34212   0.00000  Uiso   1.00
C469   C     0.14381   0.51951   0.46164   0.00000  Uiso   1.00
C470   C     0.04640   0.40082   0.36144   0.00000  Uiso   1.00
C471   C     0.16987   0.56171   0.10928   0.00000  Uiso   1.00
C472   C     0.24051   0.38733   0.09422   0.00000  Uiso   1.00
C473   C     0.21869   0.37601   0.13617   0.00000  Uiso   1.00
C474   C     0.20649   0.66251   0.13592   0.00000  Uiso   1.00
C475   C     0.19152   0.36777   0.48394   0.00000  Uiso   1.00
C476   C     0.02782   0.58074   0.47817   0.00000  Uiso   1.00
C477   C     0.14003   0.62059   0.37585   0.00000  Uiso   1.00
C478   C     0.15954   0.65350   0.40241   0.00000  Uiso   1.00
C479   C     0.19515   0.34942   0.37754   0.00000  Uiso   1.00
C480   C     0.11478   0.54933   0.48150   0.00000  Uiso   1.00
C481   C     0.23559   0.52450   0.40538   0.00000  Uiso   1.00
C482   C     0.25337   0.55379   0.37294   0.00000  Uiso   1.00
C483   C     0.29622   0.57879   0.37582   0.00000  Uiso   1.00
C484   C     0.11947   0.42102   0.44008   0.00000  Uiso   1.00
C485   C     0.15598   0.49304   0.48385   0.00000  Uiso   1.00
C486   C     0.14842   0.50284   0.02511   0.00000  Uiso   1.00
C487   C     0.11754   0.53088   0.04417   0.00000  Uiso   1.00
C488   C     0.10200   0.55482   0.02314   0.00000  Uiso   1.00
H489   H     0.01747   0.52652   0.21458   0.00000  Uiso   1.00
H490   H     0.11198   0.37471   0.05786   0.00000  Uiso   1.00
H491   H     0.29392   0.39399   0.46896   0.00000  Uiso   1.00
H492   H     0.26509   0.37765   0.01606   0.00000  Uiso   1.00
H493   H     0.02430   0.42449   0.49036   0.00000  Uiso   1.00
H494   H     0.33026   0.41455   0.04047   0.00000  Uiso   1.00
H495   H     0.32414   0.33819   0.01968   0.00000  Uiso   1.00
H496   H     0.04662   0.36124   0.00661   0.00000  Uiso   1.00
H497   H     0.01873   0.34792   0.46902   0.00000  Uiso   1.00
H498   H     0.26073   0.64542   0.24401   0.00000  Uiso   1.00
H499   H     0.24033   0.35809   0.27500   0.00000  Uiso   1.00
H500   H     0.31748   0.47456   0.28558   0.00000  Uiso   1.00
H501   H     0.30782   0.35686   0.19298   0.00000  Uiso   1.00
H502   H     0.28765   0.40244   0.22384   0.00000  Uiso   1.00
H503   H     0.31785   0.38689   0.27618   0.00000  Uiso   1.00
H504   H     0.02636   0.39047   0.22978   0.00000  Uiso   1.00
H505   H     0.00379   0.34024   0.24613   0.00000  Uiso   1.00
H506   H     0.04364   0.66425   0.30653   0.00000  Uiso   1.00
H507   H     0.07282   0.37452   0.28333   0.00000  Uiso   1.00
H508   H     0.07449   0.34517   0.36158   0.00000  Uiso   1.00
H509   H     0.11294   0.38658   0.33932   0.00000  Uiso   1.00
H510   H     0.05187   0.42691   0.34317   0.00000  Uiso   1.00
H511   H     0.10359   0.53490   0.07552   0.00000  Uiso   1.00
H512   H     0.04965   0.41364   0.39104   0.00000  Uiso   1.00
H513   H     0.01282   0.38504   0.36498   0.00000  Uiso   1.00
H514   H     0.18107   0.57176   0.07905   0.00000  Uiso   1.00
H515   H     0.19836   0.56262   0.12068   0.00000  Uiso   1.00
H516   H     0.14846   0.58440   0.12866   0.00000  Uiso   1.00
H517   H     0.27045   0.37141   0.08209   0.00000  Uiso   1.00
H518   H     0.21802   0.37433   0.07600   0.00000  Uiso   1.00
H519   H     0.24088   0.38674   0.15491   0.00000  Uiso   1.00
H520   H     0.18843   0.39109   0.14885   0.00000  Uiso   1.00
H521   H     0.18752   0.65120   0.11455   0.00000  Uiso   1.00
H522   H     0.12043   0.63395   0.02586   0.00000  Uiso   1.00
H523   H     0.18578   0.65490   0.16544   0.00000  Uiso   1.00
H524   H     0.23626   0.64633   0.12773   0.00000  Uiso   1.00
H525   H     0.18943   0.36987   0.01574   0.00000  Uiso   1.00
H526   H     0.20726   0.33950   0.46945   0.00000  Uiso   1.00
H527   H     0.15814   0.36387   0.48053   0.00000  Uiso   1.00
H528   H     0.02083   0.55133   0.49232   0.00000  Uiso   1.00
H529   H     0.02373   0.57455   0.44799   0.00000  Uiso   1.00
H530   H     0.00317   0.60126   0.49604   0.00000  Uiso   1.00
H531   H     0.12931   0.63616   0.35537   0.00000  Uiso   1.00
H532   H     0.16646   0.60240   0.35701   0.00000  Uiso   1.00
H533   H     0.12127   0.61483   0.07082   0.00000  Uiso   1.00
H534   H     0.13345   0.33775   0.42264   0.00000  Uiso   1.00
H535   H     0.17408   0.63802   0.42026   0.00000  Uiso   1.00
H536   H     0.22058   0.66489   0.35631   0.00000  Uiso   1.00
H537   H     0.21099   0.37172   0.39675   0.00000  Uiso   1.00
H538   H     0.18104   0.36704   0.36096   0.00000  Uiso   1.00
H539   H     0.26079   0.50395   0.40314   0.00000  Uiso   1.00
H540   H     0.22998   0.54259   0.43509   0.00000  Uiso   1.00
H541   H     0.25884   0.53537   0.34355   0.00000  Uiso   1.00
H542   H     0.22928   0.57568   0.37563   0.00000  Uiso   1.00
H543   H     0.29140   0.59788   0.40483   0.00000  Uiso   1.00
H544   H     0.04613   0.65699   0.06242   0.00000  Uiso   1.00
H545   H     0.30807   0.59982   0.35212   0.00000  Uiso   1.00
H546   H     0.32133   0.55770   0.37224   0.00000  Uiso   1.00
H547   H     0.10051   0.44775   0.44448   0.00000  Uiso   1.00
H548   H     0.10678   0.40268   0.46582   0.00000  Uiso   1.00
H549   H     0.11396   0.40106   0.41386   0.00000  Uiso   1.00
H550   H     0.05104   0.64069   0.10673   0.00000  Uiso   1.00
H551   H     0.11999   0.35727   0.10078   0.00000  Uiso   1.00
H552   H     0.07271   0.38275   0.10541   0.00000  Uiso   1.00
O553   O     0.16667   0.50000   0.25000   0.00000  Uiso   1.00
O554   O     0.15693   0.45726   0.16625   0.00000  Uiso   1.00
O555   O     0.12687   0.53979   0.33749   0.00000  Uiso   1.00
O556   O     0.21088   0.50826   0.15877   0.00000  Uiso   1.00
O557   O     0.17198   0.49468   0.33749   0.00000  Uiso   1.00
O558   O     0.07432   0.58387   0.04417   0.00000  Uiso   1.00
O559   O     0.27570   0.44261   0.01105   0.00000  Uiso   1.00
O560   O     0.22236   0.34332   0.22279   0.00000  Uiso   1.00
O561   O     0.10841   0.65818   0.28185   0.00000  Uiso   1.00
O562   O     0.14548   0.52221   0.11024   0.00000  Uiso   1.00
O563   O     0.25293   0.43078   0.09390   0.00000  Uiso   1.00
O564   O     0.17849   0.41434   0.27821   0.00000  Uiso   1.00
O565   O     0.21697   0.40243   0.46588   0.00000  Uiso   1.00
O566   O     0.06972   0.60096   0.47735   0.00000  Uiso   1.00
O567   O     0.10303   0.59582   0.39750   0.00000  Uiso   1.00
O568   O     0.19815   0.49871   0.40002   0.00000  Uiso   1.00
O569   O     0.16460   0.43353   0.43273   0.00000  Uiso   1.00
O570   O     0.14581   0.59469   0.26767   0.00000  Uiso   1.00
O571   O     0.07452   0.46584   0.23607   0.00000  Uiso   1.00
O572   O     0.26785   0.52512   0.21806   0.00000  Uiso   1.00
O573   O     0.06990   0.52293   0.27820   0.00000  Uiso   1.00
O574   O     0.25440   0.48610   0.26768   0.00000  Uiso   1.00
O575   O     0.13800   0.40236   0.23607   0.00000  Uiso   1.00
O576   O     0.20437   0.58860   0.21805   0.00000  Uiso   1.00
Zn577  Zn    0.19244   0.47423   0.28278   0.00000  Uiso   1.00
Zn578  Zn    0.13459   0.45711   0.22258   0.00000  Uiso   1.00
Zn579  Zn    0.21166   0.52997   0.21188   0.00000  Uiso   1.00
Zn580  Zn    0.12798   0.53868   0.28277   0.00000  Uiso   1.00
C581   C     0.38579   0.49337   0.25883   0.00000  Uiso   1.00
C582   C     0.50612   0.45501   0.46661   0.00000  Uiso   1.00
C583   C     0.53126   0.43785   0.48444   0.00000  Uiso   1.00
C584   C     0.61445   0.50700   0.24114   0.00000  Uiso   1.00
C585   C     0.53525   0.45555   0.02157   0.00000  Uiso   1.00
C586   C     0.50578   0.48404   0.04472   0.00000  Uiso   1.00
C587   C     0.56693   0.44340   0.03619   0.00000  Uiso   1.00
C588   C     0.56024   0.44794   0.07725   0.00000  Uiso   1.00
C589   C     0.50456   0.49380   0.08517   0.00000  Uiso   1.00
C590   C     0.66065   0.50971   0.23749   0.00000  Uiso   1.00
C591   C     0.34029   0.49136   0.26233   0.00000  Uiso   1.00
C592   C     0.44856   0.56878   0.41783   0.00000  Uiso   1.00
C593   C     0.51618   0.65669   0.24331   0.00000  Uiso   1.00
C594   C     0.48235   0.34540   0.26274   0.00000  Uiso   1.00
C595   C     0.48891   0.38963   0.25900   0.00000  Uiso   1.00
C596   C     0.51054   0.61129   0.24222   0.00000  Uiso   1.00
C597   C     0.52176   0.47865   0.14396   0.00000  Uiso   1.00
C598   C     0.48031   0.52283   0.35590   0.00000  Uiso   1.00
C599   C     0.47430   0.53651   0.39837   0.00000  Uiso   1.00
C600   C     0.52854   0.47255   0.10140   0.00000  Uiso   1.00
C601   C     0.43305   0.57309   0.45914   0.00000  Uiso   1.00
C602   C     0.43317   0.62075   0.05339   0.00000  Uiso   1.00
C603   C     0.49424   0.51763   0.41998   0.00000  Uiso   1.00
C604   C     0.40304   0.65255   0.07811   0.00000  Uiso   1.00
C605   C     0.42869   0.36102   0.08597   0.00000  Uiso   1.00
C606   C     0.62236   0.40233   0.00113   0.00000  Uiso   1.00
C607   C     0.66625   0.40295   0.00917   0.00000  Uiso   1.00
C608   C     0.34814   0.35982   0.00048   0.00000  Uiso   1.00
C609   C     0.58631   0.34407   0.24394   0.00000  Uiso   1.00
C610   C     0.62820   0.37034   0.22404   0.00000  Uiso   1.00
C611   C     0.66276   0.37202   0.24548   0.00000  Uiso   1.00
C612   C     0.40866   0.35083   0.30157   0.00000  Uiso   1.00
C613   C     0.41313   0.37014   0.34212   0.00000  Uiso   1.00
C614   C     0.47714   0.51951   0.46164   0.00000  Uiso   1.00
C615   C     0.37973   0.40082   0.36144   0.00000  Uiso   1.00
C616   C     0.50321   0.56171   0.10928   0.00000  Uiso   1.00
C617   C     0.57384   0.38733   0.09422   0.00000  Uiso   1.00
C618   C     0.55203   0.37601   0.13617   0.00000  Uiso   1.00
C619   C     0.53982   0.66251   0.13592   0.00000  Uiso   1.00
C620   C     0.52485   0.36777   0.48394   0.00000  Uiso   1.00
C621   C     0.36115   0.58074   0.47817   0.00000  Uiso   1.00
C622   C     0.47336   0.62059   0.37585   0.00000  Uiso   1.00
C623   C     0.49287   0.65350   0.40241   0.00000  Uiso   1.00
C624   C     0.52849   0.34942   0.37754   0.00000  Uiso   1.00
C625   C     0.44811   0.54933   0.48150   0.00000  Uiso   1.00
C626   C     0.56892   0.52450   0.40538   0.00000  Uiso   1.00
C627   C     0.58671   0.55379   0.37294   0.00000  Uiso   1.00
C628   C     0.62955   0.57879   0.37582   0.00000  Uiso   1.00
C629   C     0.45280   0.42102   0.44008   0.00000  Uiso   1.00
C630   C     0.48931   0.49304   0.48385   0.00000  Uiso   1.00
C631   C     0.48176   0.50284   0.02511   0.00000  Uiso   1.00
C632   C     0.45087   0.53088   0.04417   0.00000  Uiso   1.00
C633   C     0.43533   0.55482   0.02314   0.00000  Uiso   1.00
H634   H     0.35080   0.52652   0.21458   0.00000  Uiso   1.00
H635   H     0.44531   0.37471   0.05786   0.00000  Uiso   1.00
H636   H     0.62726   0.39399   0.46896   0.00000  Uiso   1.00
H637   H     0.59842   0.37765   0.01606   0.00000  Uiso   1.00
H638   H     0.35763   0.42449   0.49036   0.00000  Uiso   1.00
H639   H     0.66360   0.41455   0.04047   0.00000  Uiso   1.00
H640   H     0.65747   0.33819   0.01968   0.00000  Uiso   1.00
H641   H     0.37995   0.36124   0.00661   0.00000  Uiso   1.00
H642   H     0.35206   0.34792   0.46902   0.00000  Uiso   1.00
H643   H     0.59406   0.64542   0.24401   0.00000  Uiso   1.00
H644   H     0.57366   0.35809   0.27500   0.00000  Uiso   1.00
H645   H     0.65081   0.47456   0.28558   0.00000  Uiso   1.00
H646   H     0.64115   0.35686   0.19298   0.00000  Uiso   1.00
H647   H     0.62098   0.40244   0.22384   0.00000  Uiso   1.00
H648   H     0.65119   0.38689   0.27618   0.00000  Uiso   1.00
H649   H     0.35969   0.39047   0.22978   0.00000  Uiso   1.00
H650   H     0.33712   0.34024   0.24613   0.00000  Uiso   1.00
H651   H     0.37697   0.66425   0.30653   0.00000  Uiso   1.00
H652   H     0.40615   0.37452   0.28333   0.00000  Uiso   1.00
H653   H     0.40782   0.34517   0.36158   0.00000  Uiso   1.00
H654   H     0.44627   0.38658   0.33932   0.00000  Uiso   1.00
H655   H     0.38520   0.42691   0.34317   0.00000  Uiso   1.00
H656   H     0.43692   0.53490   0.07552   0.00000  Uiso   1.00
H657   H     0.38298   0.41364   0.39104   0.00000  Uiso   1.00
H658   H     0.34616   0.38504   0.36498   0.00000  Uiso   1.00
H659   H     0.51440   0.57176   0.07905   0.00000  Uiso   1.00
H660   H     0.53169   0.56262   0.12068   0.00000  Uiso   1.00
H661   H     0.48180   0.58440   0.12866   0.00000  Uiso   1.00
H662   H     0.60378   0.37141   0.08209   0.00000  Uiso   1.00
H663   H     0.55135   0.37433   0.07600   0.00000  Uiso   1.00
H664   H     0.57421   0.38674   0.15491   0.00000  Uiso   1.00
H665   H     0.52176   0.39109   0.14885   0.00000  Uiso   1.00
H666   H     0.52086   0.65120   0.11455   0.00000  Uiso   1.00
H667   H     0.45377   0.63395   0.02586   0.00000  Uiso   1.00
H668   H     0.51911   0.65490   0.16544   0.00000  Uiso   1.00
H669   H     0.56959   0.64633   0.12773   0.00000  Uiso   1.00
H670   H     0.52276   0.36987   0.01574   0.00000  Uiso   1.00
H671   H     0.54060   0.33950   0.46945   0.00000  Uiso   1.00
H672   H     0.49147   0.36387   0.48053   0.00000  Uiso   1.00
H673   H     0.35416   0.55133   0.49232   0.00000  Uiso   1.00
H674   H     0.35706   0.57455   0.44799   0.00000  Uiso   1.00
H675   H     0.33650   0.60126   0.49604   0.00000  Uiso   1.00
H676   H     0.46265   0.63616   0.35537   0.00000  Uiso   1.00
H677   H     0.49980   0.60240   0.35701   0.00000  Uiso   1.00
H678   H     0.45460   0.61483   0.07082   0.00000  Uiso   1.00
H679   H     0.46678   0.33775   0.42264   0.00000  Uiso   1.00
H680   H     0.50742   0.63802   0.42026   0.00000  Uiso   1.00
H681   H     0.55391   0.66489   0.35631   0.00000  Uiso   1.00
H682   H     0.54432   0.37172   0.39675   0.00000  Uiso   1.00
H683   H     0.51437   0.36704   0.36096   0.00000  Uiso   1.00
H684   H     0.59412   0.50395   0.40314   0.00000  Uiso   1.00
H685   H     0.56332   0.54259   0.43509   0.00000  Uiso   1.00
H686   H     0.59218   0.53537   0.34355   0.00000  Uiso   1.00
H687   H     0.56261   0.57568   0.37563   0.00000  Uiso   1.00
H688   H     0.62474   0.59788   0.40483   0.00000  Uiso   1.00
H689   H     0.37946   0.65699   0.06242   0.00000  Uiso   1.00
H690   H     0.64140   0.59982   0.35212   0.00000  Uiso   1.00
H691   H     0.65466   0.55770   0.37224   0.00000  Uiso   1.00
H692   H     0.43385   0.44775   0.44448   0.00000  Uiso   1.00
H693   H     0.44011   0.40268   0.46582   0.00000  Uiso   1.00
H694   H     0.44729   0.40106   0.41386   0.00000  Uiso   1.00
H695   H     0.38437   0.64069   0.10673   0.00000  Uiso   1.00
H696   H     0.45332   0.35727   0.10078   0.00000  Uiso   1.00
H697   H     0.40604   0.38275   0.10541   0.00000  Uiso   1.00
O698   O     0.50000   0.50000   0.25000   0.00000  Uiso   1.00
O699   O     0.49027   0.45726   0.16625   0.00000  Uiso   1.00
O700   O     0.46020   0.53979   0.33749   0.00000  Uiso   1.00
O701   O     0.54421   0.50826   0.15877   0.00000  Uiso   1.00
O702   O     0.50532   0.49468   0.33749   0.00000  Uiso   1.00
O703   O     0.40766   0.58387   0.04417   0.00000  Uiso   1.00
O704   O     0.60904   0.44261   0.01105   0.00000  Uiso   1.00
O705   O     0.55570   0.34332   0.22279   0.00000  Uiso   1.00
O706   O     0.44174   0.65818   0.28185   0.00000  Uiso   1.00
O707   O     0.47882   0.52221   0.11024   0.00000  Uiso   1.00
O708   O     0.58626   0.43078   0.09390   0.00000  Uiso   1.00
O709   O     0.51182   0.41434   0.27821   0.00000  Uiso   1.00
O710   O     0.55030   0.40243   0.46588   0.00000  Uiso   1.00
O711   O     0.40305   0.60096   0.47735   0.00000  Uiso   1.00
O712   O     0.43637   0.59582   0.39750   0.00000  Uiso   1.00
O713   O     0.53149   0.49871   0.40002   0.00000  Uiso   1.00
O714   O     0.49793   0.43353   0.43273   0.00000  Uiso   1.00
O715   O     0.47914   0.59469   0.26767   0.00000  Uiso   1.00
O716   O     0.40785   0.46584   0.23607   0.00000  Uiso   1.00
O717   O     0.60119   0.52512   0.21806   0.00000  Uiso   1.00
O718   O     0.40323   0.52293   0.27820   0.00000  Uiso   1.00
O719   O     0.58773   0.48610   0.26768   0.00000  Uiso   1.00
O720   O     0.47133   0.40236   0.23607   0.00000  Uiso   1.00
O721   O     0.53771   0.58860   0.21805   0.00000  Uiso   1.00
Zn722  Zn    0.52577   0.47423   0.28278   0.00000  Uiso   1.00
Zn723  Zn    0.46792   0.45711   0.22258   0.00000  Uiso   1.00
Zn724  Zn    0.54500   0.52997   0.21188   0.00000  Uiso   1.00
Zn725  Zn    0.46131   0.53868   0.28277   0.00000  Uiso   1.00
C726   C     0.71913   0.49337   0.25883   0.00000  Uiso   1.00
C727   C     0.83946   0.45501   0.46661   0.00000  Uiso   1.00
C728   C     0.86459   0.43785   0.48444   0.00000  Uiso   1.00
C729   C     0.94779   0.50700   0.24114   0.00000  Uiso   1.00
C730   C     0.86858   0.45555   0.02157   0.00000  Uiso   1.00
C731   C     0.83911   0.48404   0.04472   0.00000  Uiso   1.00
C732   C     0.90026   0.44340   0.03619   0.00000  Uiso   1.00
C733   C     0.89357   0.44794   0.07725   0.00000  Uiso   1.00
C734   C     0.83790   0.49380   0.08517   0.00000  Uiso   1.00
C735   C     0.99398   0.50971   0.23749   0.00000  Uiso   1.00
C736   C     0.67362   0.49136   0.26233   0.00000  Uiso   1.00
C737   C     0.78189   0.56878   0.41783   0.00000  Uiso   1.00
C738   C     0.84951   0.65669   0.24331   0.00000  Uiso   1.00
C739   C     0.81569   0.34540   0.26274   0.00000  Uiso   1.00
C740   C     0.82224   0.38963   0.25900   0.00000  Uiso   1.00
C741   C     0.84388   0.61129   0.24222   0.00000  Uiso   1.00
C742   C     0.85509   0.47865   0.14396   0.00000  Uiso   1.00
C743   C     0.81364   0.52283   0.35590   0.00000  Uiso   1.00
C744   C     0.80764   0.53651   0.39837   0.00000  Uiso   1.00
C745   C     0.86187   0.47255   0.10140   0.00000  Uiso   1.00
C746   C     0.76638   0.57309   0.45914   0.00000  Uiso   1.00
C747   C     0.76650   0.62075   0.05339   0.00000  Uiso   1.00
C748   C     0.82758   0.51763   0.41998   0.00000  Uiso   1.00
C749   C     0.73637   0.65255   0.07811   0.00000  Uiso   1.00
C750   C     0.76202   0.36102   0.08597   0.00000  Uiso   1.00
C751   C     0.95569   0.40233   0.00113   0.00000  Uiso   1.00
C752   C     0.99959   0.40295   0.00917   0.00000  Uiso   1.00
C753   C     0.68147   0.35982   0.00048   0.00000  Uiso   1.00
C754   C     0.91964   0.34407   0.24394   0.00000  Uiso   1.00
C755   C     0.96154   0.37034   0.22404   0.00000  Uiso   1.00
C756   C     0.99610   0.37202   0.24548   0.00000  Uiso   1.00
C757   C     0.74199   0.35083   0.30157   0.00000  Uiso   1.00
C758   C     0.74647   0.37014   0.34212   0.00000  Uiso   1.00
C759   C     0.81047   0.51951   0.46164   0.00000  Uiso   1.00
C760   C     0.71307   0.40082   0.36144   0.00000  Uiso   1.00
C761   C     0.83654   0.56171   0.10928   0.00000  Uiso   1.00
C762   C     0.90717   0.38733   0.09422   0.00000  Uiso   1.00
C763   C     0.88536   0.37601   0.13617   0.00000  Uiso   1.00
C764   C     0.87316   0.66251   0.13592   0.00000  Uiso   1.00
C765   C     0.85819   0.36777   0.48394   0.00000  Uiso   1.00
C766   C     0.69449   0.58074   0.47817   0.00000  Uiso   1.00
C767   C     0.80669   0.62059   0.37585   0.00000  Uiso   1.00
C768   C     0.82621   0.65350   0.40241   0.00000  Uiso   1.00
C769   C     0.86182   0.34942   0.37754   0.00000  Uiso   1.00
C770   C     0.78145   0.54933   0.48150   0.00000  Uiso   1.00
C771   C     0.90226   0.52450   0.40538   0.00000  Uiso   1.00
C772   C     0.92004   0.55379   0.37294   0.00000  Uiso   1.00
C773   C     0.96288   0.57879   0.37582   0.00000  Uiso   1.00
C774   C     0.78613   0.42102   0.44008   0.00000  Uiso   1.00
C775   C     0.82264   0.49304   0.48385   0.00000  Uiso   1.00
C776   C     0.81509   0.50284   0.02511   0.00000  Uiso   1.00
C777   C     0.78421   0.53088   0.04417   0.00000  Uiso   1.00
C778   C     0.76867   0.55482   0.02314   0.00000  Uiso   1.00
H779   H     0.68414   0.52652   0.21458   0.00000  Uiso   1.00
H780   H     0.77864   0.37471   0.05786   0.00000  Uiso   1.00
H781   H     0.96059   0.39399   0.46896   0.00000  Uiso   1.00
H782   H     0.93176   0.37765   0.01606   0.00000  Uiso   1.00
H783   H     0.69096   0.42449   0.49036   0.00000  Uiso   1.00
H784   H     0.99693   0.41455   0.04047   0.00000  Uiso   1.00
H785   H     0.99080   0.33819   0.01968   0.00000  Uiso   1.00
H786   H     0.71329   0.36124   0.00661   0.00000  Uiso   1.00
H787   H     0.68540   0.34792   0.46902   0.00000  Uiso   1.00
H788   H     0.92739   0.64542   0.24401   0.00000  Uiso   1.00
H789   H     0.90700   0.35809   0.27500   0.00000  Uiso   1.00
H790   H     0.98415   0.47456   0.28558   0.00000  Uiso   1.00
H791   H     0.97449   0.35686   0.19298   0.00000  Uiso   1.00
H792   H     0.95431   0.40244   0.22384   0.00000  Uiso   1.00
H793   H     0.98452   0.38689   0.27618   0.00000  Uiso   1.00
H794   H     0.69302   0.39047   0.22978   0.00000  Uiso   1.00
H795   H     0.67045   0.34024   0.24613   0.00000  Uiso   1.00
H796   H     0.71031   0.66425   0.30653   0.00000  Uiso   1.00
H797   H     0.73948   0.37452   0.28333   0.00000  Uiso   1.00
H798   H     0.74116   0.34517   0.36158   0.00000  Uiso   1.00
H799   H     0.77961   0.38658   0.33932   0.00000  Uiso   1.00
H800   H     0.71853   0.42691   0.34317   0.00000  Uiso   1.00
H801   H     0.77025   0.53490   0.07552   0.00000  Uiso   1.00
H802   H     0.71632   0.41364   0.39104   0.00000  Uiso   1.00
H803   H     0.67949   0.38504   0.36498   0.00000  Uiso   1.00
H804   H     0.84773   0.57176   0.07905   0.00000  Uiso   1.00
H805   H     0.86502   0.56262   0.12068   0.00000  Uiso   1.00
H806   H     0.81513   0.58440   0.12866   0.00000  Uiso   1.00
H807   H     0.93711   0.37141   0.08209   0.00000  Uiso   1.00
H808   H     0.88469   0.37433   0.07600   0.00000  Uiso   1.00
H809   H     0.90754   0.38674   0.15491   0.00000  Uiso   1.00
H810   H     0.85510   0.39109   0.14885   0.00000  Uiso   1.00
H811   H     0.85419   0.65120   0.11455   0.00000  Uiso   1.00
H812   H     0.78710   0.63395   0.02586   0.00000  Uiso   1.00
H813   H     0.85244   0.65490   0.16544   0.00000  Uiso   1.00
H814   H     0.90292   0.64633   0.12773   0.00000  Uiso   1.00
H815   H     0.85609   0.36987   0.01574   0.00000  Uiso   1.00
H816   H     0.87393   0.33950   0.46945   0.00000  Uiso   1.00
H817   H     0.82481   0.36387   0.48053   0.00000  Uiso   1.00
H818   H     0.68750   0.55133   0.49232   0.00000  Uiso   1.00
H819   H     0.69040   0.57455   0.44799   0.00000  Uiso   1.00
H820   H     0.66983   0.60126   0.49604   0.00000  Uiso   1.00
H821   H     0.79598   0.63616   0.35537   0.00000  Uiso   1.00
H822   H     0.83313   0.60240   0.35701   0.00000  Uiso   1.00
H823   H     0.78793   0.61483   0.07082   0.00000  Uiso   1.00
H824   H     0.80011   0.33775   0.42264   0.00000  Uiso   1.00
H825   H     0.84075   0.63802   0.42026   0.00000  Uiso   1.00
H826   H     0.88725   0.66489   0.35631   0.00000  Uiso   1.00
H827   H     0.87765   0.37172   0.39675   0.00000  Uiso   1.00
H828   H     0.84771   0.36704   0.36096   0.00000  Uiso   1.00
H829   H     0.92745   0.50395   0.40314   0.00000  Uiso   1.00
H830   H     0.89665   0.54259   0.43509   0.00000  Uiso   1.00
H831   H     0.92551   0.53537   0.34355   0.00000  Uiso   1.00
H832   H     0.89595   0.57568   0.37563   0.00000  Uiso   1.00
H833   H     0.95807   0.59788   0.40483   0.00000  Uiso   1.00
H834   H     0.71279   0.65699   0.06242   0.00000  Uiso   1.00
H835   H     0.97473   0.59982   0.35212   0.00000  Uiso   1.00
H836   H     0.98799   0.55770   0.37224   0.00000  Uiso   1.00
H837   H     0.76718   0.44775   0.44448   0.00000  Uiso   1.00
H838   H     0.77345   0.40268   0.46582   0.00000  Uiso   1.00
H839   H     0.78062   0.40106   0.41386   0.00000  Uiso   1.00
H840   H     0.71771   0.64069   0.10673   0.00000  Uiso   1.00
H841   H     0.78665   0.35727   0.10078   0.00000  Uiso   1.00
H842   H     0.73938   0.38275   0.10541   0.00000  Uiso   1.00
O843   O     0.83333   0.50000   0.25000   0.00000  Uiso   1.00
O844   O     0.82360   0.45726   0.16625   0.00000  Uiso   1.00
O845   O     0.79354   0.53979   0.33749   0.00000  Uiso   1.00
O846   O     0.87755   0.50826   0.15877   0.00000  Uiso   1.00
O847   O     0.83865   0.49468   0.33749   0.00000  Uiso   1.00
O848   O     0.74099   0.58387   0.04417   0.00000  Uiso   1.00
O849   O     0.94237   0.44261   0.01105   0.00000  Uiso   1.00
O850   O     0.88903   0.34332   0.22279   0.00000  Uiso   1.00
O851   O     0.77507   0.65818   0.28185   0.00000  Uiso   1.00
O852   O     0.81215   0.52221   0.11024   0.00000  Uiso   1.00
O853   O     0.91959   0.43078   0.09390   0.00000  Uiso   1.00
O854   O     0.84515   0.41434   0.27821   0.00000  Uiso   1.00
O855   O     0.88363   0.40243   0.46588   0.00000  Uiso   1.00
O856   O     0.73638   0.60096   0.47735   0.00000  Uiso   1.00
O857   O     0.76970   0.59582   0.39750   0.00000  Uiso   1.00
O858   O     0.86482   0.49871   0.40002   0.00000  Uiso   1.00
O859   O     0.83127   0.43353   0.43273   0.00000  Uiso   1.00
O860   O     0.81247   0.59469   0.26767   0.00000  Uiso   1.00
O861   O     0.74119   0.46584   0.23607   0.00000  Uiso   1.00
O862   O     0.93452   0.52512   0.21806   0.00000  Uiso   1.00
O863   O     0.73656   0.52293   0.27820   0.00000  Uiso   1.00
O864   O     0.92106   0.48610   0.26768   0.00000  Uiso   1.00
O865   O     0.80467   0.40236   0.23607   0.00000  Uiso   1.00
O866   O     0.87104   0.58860   0.21805   0.00000  Uiso   1.00
Zn867  Zn    0.85910   0.47423   0.28278   0.00000  Uiso   1.00
Zn868  Zn    0.80125   0.45711   0.22258   0.00000  Uiso   1.00
Zn869  Zn    0.87833   0.52997   0.21188   0.00000  Uiso   1.00
Zn870  Zn    0.79465   0.53868   0.28277   0.00000  Uiso   1.00
C871   C     0.05246   0.82670   0.25883   0.00000  Uiso   1.00
C872   C     0.17279   0.78835   0.46661   0.00000  Uiso   1.00
C873   C     0.19792   0.77118   0.48444   0.00000  Uiso   1.00
C874   C     0.28112   0.84034   0.24114   0.00000  Uiso   1.00
C875   C     0.20192   0.78888   0.02157   0.00000  Uiso   1.00
C876   C     0.17245   0.81737   0.04472   0.00000  Uiso   1.00
C877   C     0.23359   0.77673   0.03619   0.00000  Uiso   1.00
C878   C     0.22690   0.78128   0.07725   0.00000  Uiso   1.00
C879   C     0.17123   0.82713   0.08517   0.00000  Uiso   1.00
C880   C     0.32732   0.84304   0.23749   0.00000  Uiso   1.00
C881   C     0.00696   0.82469   0.26233   0.00000  Uiso   1.00
C882   C     0.11523   0.90211   0.41783   0.00000  Uiso   1.00
C883   C     0.18284   0.99002   0.24331   0.00000  Uiso   1.00
C884   C     0.14902   0.67874   0.26274   0.00000  Uiso   1.00
C885   C     0.15557   0.72297   0.25900   0.00000  Uiso   1.00
C886   C     0.17721   0.94462   0.24222   0.00000  Uiso   1.00
C887   C     0.18842   0.81198   0.14396   0.00000  Uiso   1.00
C888   C     0.14698   0.85617   0.35590   0.00000  Uiso   1.00
C889   C     0.14097   0.86985   0.39837   0.00000  Uiso   1.00
C890   C     0.19521   0.80588   0.10140   0.00000  Uiso   1.00
C891   C     0.09972   0.90643   0.45914   0.00000  Uiso   1.00
C892   C     0.09983   0.95408   0.05339   0.00000  Uiso   1.00
C893   C     0.16091   0.85096   0.41998   0.00000  Uiso   1.00
C894   C     0.06971   0.98589   0.07811   0.00000  Uiso   1.00
C895   C     0.09535   0.69435   0.08597   0.00000  Uiso   1.00
C896   C     0.28903   0.73566   0.00113   0.00000  Uiso   1.00
C897   C     0.33292   0.73628   0.00917   0.00000  Uiso   1.00
C898   C     0.01480   0.69315   0.00048   0.00000  Uiso   1.00
C899   C     0.25298   0.67741   0.24394   0.00000  Uiso   1.00
C900   C     0.29487   0.70368   0.22404   0.00000  Uiso   1.00
C901   C     0.32943   0.70535   0.24548   0.00000  Uiso   1.00
C902   C     0.07533   0.68417   0.30157   0.00000  Uiso   1.00
C903   C     0.07980   0.70347   0.34212   0.00000  Uiso   1.00
C904   C     0.14381   0.85285   0.46164   0.00000  Uiso   1.00
C905   C     0.04640   0.73416   0.36144   0.00000  Uiso   1.00
C906   C     0.16987   0.89504   0.10928   0.00000  Uiso   1.00
C907   C     0.24051   0.72067   0.09422   0.00000  Uiso   1.00
C908   C     0.21869   0.70934   0.13617   0.00000  Uiso   1.00
C909   C     0.20649   0.99585   0.13592   0.00000  Uiso   1.00
C910   C     0.19152   0.70110   0.48394   0.00000  Uiso   1.00
C911   C     0.02782   0.91408   0.47817   0.00000  Uiso   1.00
C912   C     0.14003   0.95392   0.37585   0.00000  Uiso   1.00
C913   C     0.15954   0.98683   0.40241   0.00000  Uiso   1.00
C914   C     0.19515   0.68275   0.37754   0.00000  Uiso   1.00
C915   C     0.11478   0.88267   0.48150   0.00000  Uiso   1.00
C916   C     0.23559   0.85783   0.40538   0.00000  Uiso   1.00
C917   C     0.25337   0.88712   0.37294   0.00000  Uiso   1.00
C918   C     0.29622   0.91213   0.37582   0.00000  Uiso   1.00
C919   C     0.11947   0.75435   0.44008   0.00000  Uiso   1.00
C920   C     0.15598   0.82637   0.48385   0.00000  Uiso   1.00
C921   C     0.14842   0.83617   0.02511   0.00000  Uiso   1.00
C922   C     0.11754   0.86421   0.04417   0.00000  Uiso   1.00
C923   C     0.10200   0.88816   0.02314   0.00000  Uiso   1.00
H924   H     0.01747   0.85986   0.21458   0.00000  Uiso   1.00
H925   H     0.11198   0.70805   0.05786   0.00000  Uiso   1.00
H926   H     0.29392   0.72732   0.46896   0.00000  Uiso   1.00
H927   H     0.26509   0.71098   0.01606   0.00000  Uiso   1.00
H928   H     0.02430   0.75782   0.49036   0.00000  Uiso   1.00
H929   H     0.33026   0.74789   0.04047   0.00000  Uiso   1.00
H930   H     0.32414   0.67152   0.01968   0.00000  Uiso   1.00
H931   H     0.04662   0.69457   0.00661   0.00000  Uiso   1.00
H932   H     0.01873   0.68125   0.46902   0.00000  Uiso   1.00
H933   H     0.26073   0.97875   0.24401   0.00000  Uiso   1.00
H934   H     0.24033   0.69142   0.27500   0.00000  Uiso   1.00
H935   H     0.31748   0.80789   0.28558   0.00000  Uiso   1.00
H936   H     0.30782   0.69020   0.19298   0.00000  Uiso   1.00
H937   H     0.28765   0.73578   0.22384   0.00000  Uiso   1.00
H938   H     0.31785   0.72022   0.27618   0.00000  Uiso   1.00
H939   H     0.02636   0.72381   0.22978   0.00000  Uiso   1.00
H940   H     0.00379   0.67357   0.24613   0.00000  Uiso   1.00
H941   H     0.04364   0.99758   0.30653   0.00000  Uiso   1.00
H942   H     0.07282   0.70785   0.28333   0.00000  Uiso   1.00
H943   H     0.07449   0.67851   0.36158   0.00000  Uiso   1.00
H944   H     0.11294   0.71992   0.33932   0.00000  Uiso   1.00
H945   H     0.05187   0.76025   0.34317   0.00000  Uiso   1.00
H946   H     0.10359   0.86823   0.07552   0.00000  Uiso   1.00
H947   H     0.04965   0.74698   0.39104   0.00000  Uiso   1.00
H948   H     0.01282   0.71837   0.36498   0.00000  Uiso   1.00
H949   H     0.18107   0.90509   0.07905   0.00000  Uiso   1.00
H950   H     0.19836   0.89596   0.12068   0.00000  Uiso   1.00
H951   H     0.14846   0.91774   0.12866   0.00000  Uiso   1.00
H952   H     0.27045   0.70474   0.08209   0.00000  Uiso   1.00
H953   H     0.21802   0.70766   0.07600   0.00000  Uiso   1.00
H954   H     0.24088   0.72007   0.15491   0.00000  Uiso   1.00
H955   H     0.18843   0.72442   0.14885   0.00000  Uiso   1.00
H956   H     0.18752   0.98453   0.11455   0.00000  Uiso   1.00
H957   H     0.12043   0.96729   0.02586   0.00000  Uiso   1.00
H958   H     0.18578   0.98823   0.16544   0.00000  Uiso   1.00
H959   H     0.23626   0.97966   0.12773   0.00000  Uiso   1.00
H960   H     0.18943   0.70320   0.01574   0.00000  Uiso   1.00
H961   H     0.20726   0.67283   0.46945   0.00000  Uiso   1.00
H962   H     0.15814   0.69720   0.48053   0.00000  Uiso   1.00
H963   H     0.02083   0.88467   0.49232   0.00000  Uiso   1.00
H964   H     0.02373   0.90789   0.44799   0.00000  Uiso   1.00
H965   H     0.00317   0.93459   0.49604   0.00000  Uiso   1.00
H966   H     0.12931   0.96949   0.35537   0.00000  Uiso   1.00
H967   H     0.16646   0.93574   0.35701   0.00000  Uiso   1.00
H968   H     0.12127   0.94816   0.07082   0.00000  Uiso   1.00
H969   H     0.13345   0.67108   0.42264   0.00000  Uiso   1.00
H970   H     0.17408   0.97135   0.42026   0.00000  Uiso   1.00
H971   H     0.22058   0.99822   0.35631   0.00000  Uiso   1.00
H972   H     0.21099   0.70506   0.39675   0.00000  Uiso   1.00
H973   H     0.18104   0.70037   0.36096   0.00000  Uiso   1.00
H974   H     0.26079   0.83729   0.40314   0.00000  Uiso   1.00
H975   H     0.22998   0.87593   0.43509   0.00000  Uiso   1.00
H976   H     0.25884   0.86870   0.34355   0.00000  Uiso   1.00
H977   H     0.22928   0.90901   0.37563   0.00000  Uiso   1.00
H978   H     0.29140   0.93122   0.40483   0.00000  Uiso   1.00
H979   H     0.04613   0.99032   0.06242   0.00000  Uiso   1.00
H980   H     0.30807   0.93315   0.35212   0.00000  Uiso   1.00
H981   H     0.32133   0.89103   0.37224   0.00000  Uiso   1.00
H982   H     0.10051   0.78109   0.44448   0.00000  Uiso   1.00
H983   H     0.10678   0.73602   0.46582   0.00000  Uiso   1.00
H984   H     0.11396   0.73440   0.41386   0.00000  Uiso   1.00
H985   H     0.05104   0.97402   0.10673   0.00000  Uiso   1.00
H986   H     0.11999   0.69060   0.10078   0.00000  Uiso   1.00
H987   H     0.07271   0.71608   0.10541   0.00000  Uiso   1.00
O988   O     0.16667   0.83333   0.25000   0.00000  Uiso   1.00
O989   O     0.15693   0.79060   0.16625   0.00000  Uiso   1.00
O990   O     0.12687   0.87313   0.33749   0.00000  Uiso   1.00
O991   O     0.21088   0.84159   0.15877   0.00000  Uiso   1.00
O992   O     0.17198   0.82802   0.33749   0.00000  Uiso   1.00
O993   O     0.07432   0.91720   0.04417   0.00000  Uiso   1.00
O994   O     0.27570   0.77594   0.01105   0.00000  Uiso   1.00
O995   O     0.22236   0.67665   0.22279   0.00000  Uiso   1.00
O996   O     0.10841   0.99151   0.28185   0.00000  Uiso   1.00
O997   O     0.14548   0.85554   0.11024   0.00000  Uiso   1.00
O998   O     0.25293   0.76411   0.09390   0.00000  Uiso   1.00
O999   O     0.17849   0.74768   0.27821   0.00000  Uiso   1.00
O1000  O     0.21697   0.73576   0.46588   0.00000  Uiso   1.00
O1001  O     0.06972   0.93429   0.47735   0.00000  Uiso   1.00
O1002  O     0.10303   0.92915   0.39750   0.00000  Uiso   1.00
O1003  O     0.19815   0.83204   0.40002   0.00000  Uiso   1.00
O1004  O     0.16460   0.76686   0.43273   0.00000  Uiso   1.00
O1005  O     0.14581   0.92803   0.26767   0.00000  Uiso   1.00
O1006  O     0.07452   0.79917   0.23607   0.00000  Uiso   1.00
O1007  O     0.26785   0.85845   0.21806   0.00000  Uiso   1.00
O1008  O     0.06990   0.85627   0.27820   0.00000  Uiso   1.00
O1009  O     0.25440   0.81944   0.26768   0.00000  Uiso   1.00
O1010  O     0.13800   0.73570   0.23607   0.00000  Uiso   1.00
O1011  O     0.20437   0.92193   0.21805   0.00000  Uiso   1.00
Zn1012 Zn    0.19244   0.80756   0.28278   0.00000  Uiso   1.00
Zn1013 Zn    0.13459   0.79044   0.22258   0.00000  Uiso   1.00
Zn1014 Zn    0.21166   0.86331   0.21188   0.00000  Uiso   1.00
Zn1015 Zn    0.12798   0.87202   0.28277   0.00000  Uiso   1.00
C1016  C     0.38579   0.82670   0.25883   0.00000  Uiso   1.00
C1017  C     0.50612   0.78835   0.46661   0.00000  Uiso   1.00
C1018  C     0.53126   0.77118   0.48444   0.00000  Uiso   1.00
C1019  C     0.61445   0.84034   0.24114   0.00000  Uiso   1.00
C1020  C     0.53525   0.78888   0.02157   0.00000  Uiso   1.00
C1021  C     0.50578   0.81737   0.04472   0.00000  Uiso   1.00
C1022  C     0.56693   0.77673   0.03619   0.00000  Uiso   1.00
C1023  C     0.56024   0.78128   0.07725   0.00000  Uiso   1.00
C1024  C     0.50456   0.82713   0.08517   0.00000  Uiso   1.00
C1025  C     0.66065   0.84304   0.23749   0.00000  Uiso   1.00
C1026  C     0.34029   0.82469   0.26233   0.00000  Uiso   1.00
C1027  C     0.44856   0.90211   0.41783   0.00000  Uiso   1.00
C1028  C     0.51618   0.99002   0.24331   0.00000  Uiso   1.00
C1029  C     0.48235   0.67874   0.26274   0.00000  Uiso   1.00
C1030  C     0.48891   0.72297   0.25900   0.00000  Uiso   1.00
C1031  C     0.51054   0.94462   0.24222   0.00000  Uiso   1.00
C1032  C     0.52176   0.81198   0.14396   0.00000  Uiso   1.00
C1033  C     0.48031   0.85617   0.35590   0.00000  Uiso   1.00
C1034  C     0.47430   0.86985   0.39837   0.00000  Uiso   1.00
C1035  C     0.52854   0.80588   0.10140   0.00000  Uiso   1.00
C1036  C     0.43305   0.90643   0.45914   0.00000  Uiso   1.00
C1037  C     0.43317   0.95408   0.05339   0.00000  Uiso   1.00
C1038  C     0.49424   0.85096   0.41998   0.00000  Uiso   1.00
C1039  C     0.40304   0.98589   0.07811   0.00000  Uiso   1.00
C1040  C     0.42869   0.69435   0.08597   0.00000  Uiso   1.00
C1041  C     0.62236   0.73566   0.00113   0.00000  Uiso   1.00
C1042  C     0.66625   0.73628   0.00917   0.00000  Uiso   1.00
C1043  C     0.34814   0.69315   0.00048   0.00000  Uiso   1.00
C1044  C     0.58631   0.67741   0.24394   0.00000  Uiso   1.00
C1045  C     0.62820   0.70368   0.22404   0.00000  Uiso   1.00
C1046  C     0.66276   0.70535   0.24548   0.00000  Uiso   1.00
C1047  C     0.40866   0.68417   0.30157   0.00000  Uiso   1.00
C1048  C     0.41313   0.70347   0.34212   0.00000  Uiso   1.00
C1049  C     0.47714   0.85285   0.46164   0.00000  Uiso   1.00
C1050  C     0.37973   0.73416   0.36144   0.00000  Uiso   1.00
C1051  C     0.50321   0.89504   0.10928   0.00000  Uiso   1.00
C1052  C     0.57384   0.72067   0.09422   0.00000  Uiso   1.00
C1053  C     0.55203   0.70934   0.13617   0.00000  Uiso   1.00
C1054  C     0.53982   0.99585   0.13592   0.00000  Uiso   1.00
C1055  C     0.52485   0.70110   0.48394   0.00000  Uiso   1.00
C1056  C     0.36115   0.91408   0.47817   0.00000  Uiso   1.00
C1057  C     0.47336   0.95392   0.37585   0.00000  Uiso   1.00
C1058  C     0.49287   0.98683   0.40241   0.00000  Uiso   1.00
C1059  C     0.52849   0.68275   0.37754   0.00000  Uiso   1.00
C1060  C     0.44811   0.88267   0.48150   0.00000  Uiso   1.00
C1061  C     0.56892   0.85783   0.40538   0.00000  Uiso   1.00
C1062  C     0.58671   0.88712   0.37294   0.00000  Uiso   1.00
C1063  C     0.62955   0.91213   0.37582   0.00000  Uiso   1.00
C1064  C     0.45280   0.75435   0.44008   0.00000  Uiso   1.00
C1065  C     0.48931   0.82637   0.48385   0.00000  Uiso   1.00
C1066  C     0.48176   0.83617   0.02511   0.00000  Uiso   1.00
C1067  C     0.45087   0.86421   0.04417   0.00000  Uiso   1.00
C1068  C     0.43533   0.88816   0.02314   0.00000  Uiso   1.00
H1069  H     0.35080   0.85986   0.21458   0.00000  Uiso   1.00
H1070  H     0.44531   0.70805   0.05786   0.00000  Uiso   1.00
H1071  H     0.62726   0.72732   0.46896   0.00000  Uiso   1.00
H1072  H     0.59842   0.71098   0.01606   0.00000  Uiso   1.00
H1073  H     0.35763   0.75782   0.49036   0.00000  Uiso   1.00
H1074  H     0.66360   0.74789   0.04047   0.00000  Uiso   1.00
H1075  H     0.65747   0.67152   0.01968   0.00000  Uiso   1.00
H1076  H     0.37995   0.69457   0.00661   0.00000  Uiso   1.00
H1077  H     0.35206   0.68125   0.46902   0.00000  Uiso   1.00
H1078  H     0.59406   0.97875   0.24401   0.00000  Uiso   1.00
H1079  H     0.57366   0.69142   0.27500   0.00000  Uiso   1.00
H1080  H     0.65081   0.80789   0.28558   0.00000  Uiso   1.00
H1081  H     0.64115   0.69020   0.19298   0.00000  Uiso   1.00
H1082  H     0.62098   0.73578   0.22384   0.00000  Uiso   1.00
H1083  H     0.65119   0.72022   0.27618   0.00000  Uiso   1.00
H1084  H     0.35969   0.72381   0.22978   0.00000  Uiso   1.00
H1085  H     0.33712   0.67357   0.24613   0.00000  Uiso   1.00
H1086  H     0.37697   0.99758   0.30653   0.00000  Uiso   1.00
H1087  H     0.40615   0.70785   0.28333   0.00000  Uiso   1.00
H1088  H     0.40782   0.67851   0.36158   0.00000  Uiso   1.00
H1089  H     0.44627   0.71992   0.33932   0.00000  Uiso   1.00
H1090  H     0.38520   0.76025   0.34317   0.00000  Uiso   1.00
H1091  H     0.43692   0.86823   0.07552   0.00000  Uiso   1.00
H1092  H     0.38298   0.74698   0.39104   0.00000  Uiso   1.00
H1093  H     0.34616   0.71837   0.36498   0.00000  Uiso   1.00
H1094  H     0.51440   0.90509   0.07905   0.00000  Uiso   1.00
H1095  H     0.53169   0.89596   0.12068   0.00000  Uiso   1.00
H1096  H     0.48180   0.91774   0.12866   0.00000  Uiso   1.00
H1097  H     0.60378   0.70474   0.08209   0.00000  Uiso   1.00
H1098  H     0.55135   0.70766   0.07600   0.00000  Uiso   1.00
H1099  H     0.57421   0.72007   0.15491   0.00000  Uiso   1.00
H1100  H     0.52176   0.72442   0.14885   0.00000  Uiso   1.00
H1101  H     0.52086   0.98453   0.11455   0.00000  Uiso   1.00
H1102  H     0.45377   0.96729   0.02586   0.00000  Uiso   1.00
H1103  H     0.51911   0.98823   0.16544   0.00000  Uiso   1.00
H1104  H     0.56959   0.97966   0.12773   0.00000  Uiso   1.00
H1105  H     0.52276   0.70320   0.01574   0.00000  Uiso   1.00
H1106  H     0.54060   0.67283   0.46945   0.00000  Uiso   1.00
H1107  H     0.49147   0.69720   0.48053   0.00000  Uiso   1.00
H1108  H     0.35416   0.88467   0.49232   0.00000  Uiso   1.00
H1109  H     0.35706   0.90789   0.44799   0.00000  Uiso   1.00
H1110  H     0.33650   0.93459   0.49604   0.00000  Uiso   1.00
H1111  H     0.46265   0.96949   0.35537   0.00000  Uiso   1.00
H1112  H     0.49980   0.93574   0.35701   0.00000  Uiso   1.00
H1113  H     0.45460   0.94816   0.07082   0.00000  Uiso   1.00
H1114  H     0.46678   0.67108   0.42264   0.00000  Uiso   1.00
H1115  H     0.50742   0.97135   0.42026   0.00000  Uiso   1.00
H1116  H     0.55391   0.99822   0.35631   0.00000  Uiso   1.00
H1117  H     0.54432   0.70506   0.39675   0.00000  Uiso   1.00
H1118  H     0.51437   0.70037   0.36096   0.00000  Uiso   1.00
H1119  H     0.59412   0.83729   0.40314   0.00000  Uiso   1.00
H1120  H     0.56332   0.87593   0.43509   0.00000  Uiso   1.00
H1121  H     0.59218   0.86870   0.34355   0.00000  Uiso   1.00
H1122  H     0.56261   0.90901   0.37563   0.00000  Uiso   1.00
H1123  H     0.62474   0.93122   0.40483   0.00000  Uiso   1.00
H1124  H     0.37946   0.99032   0.06242   0.00000  Uiso   1.00
H1125  H     0.64140   0.93315   0.35212   0.00000  Uiso   1.00
H1126  H     0.65466   0.89103   0.37224   0.00000  Uiso   1.00
H1127  H     0.43385   0.78109   0.44448   0.00000  Uiso   1.00
H1128  H     0.44011   0.73602   0.46582   0.00000  Uiso   1.00
H1129  H     0.44729   0.73440   0.41386   0.00000  Uiso   1.00
H1130  H     0.38437   0.97402   0.10673   0.00000  Uiso   1.00
H1131  H     0.45332   0.69060   0.10078   0.00000  Uiso   1.00
H1132  H     0.40604   0.71608   0.10541   0.00000  Uiso   1.00
O1133  O     0.50000   0.83333   0.25000   0.00000  Uiso   1.00
O1134  O     0.49027   0.79060   0.16625   0.00000  Uiso   1.00
O1135  O     0.46020   0.87313   0.33749   0.00000  Uiso   1.00
O1136  O     0.54421   0.84159   0.15877   0.00000  Uiso   1.00
O1137  O     0.50532   0.82802   0.33749   0.00000  Uiso   1.00
O1138  O     0.40766   0.91720   0.04417   0.00000  Uiso   1.00
O1139  O     0.60904   0.77594   0.01105   0.00000  Uiso   1.00
O1140  O     0.55570   0.67665   0.22279   0.00000  Uiso   1.00
O1141  O     0.44174   0.99151   0.28185   0.00000  Uiso   1.00
O1142  O     0.47882   0.85554   0.11024   0.00000  Uiso   1.00
O1143  O     0.58626   0.76411   0.09390   0.00000  Uiso   1.00
O1144  O     0.51182   0.74768   0.27821   0.00000  Uiso   1.00
O1145  O     0.55030   0.73576   0.46588   0.00000  Uiso   1.00
O1146  O     0.40305   0.93429   0.47735   0.00000  Uiso   1.00
O1147  O     0.43637   0.92915   0.39750   0.00000  Uiso   1.00
O1148  O     0.53149   0.83204   0.40002   0.00000  Uiso   1.00
O1149  O     0.49793   0.76686   0.43273   0.00000  Uiso   1.00
O1150  O     0.47914   0.92803   0.26767   0.00000  Uiso   1.00
O1151  O     0.40785   0.79917   0.23607   0.00000  Uiso   1.00
O1152  O     0.60119   0.85845   0.21806   0.00000  Uiso   1.00
O1153  O     0.40323   0.85627   0.27820   0.00000  Uiso   1.00
O1154  O     0.58773   0.81944   0.26768   0.00000  Uiso   1.00
O1155  O     0.47133   0.73570   0.23607   0.00000  Uiso   1.00
O1156  O     0.53771   0.92193   0.21805   0.00000  Uiso   1.00
Zn1157 Zn    0.52577   0.80756   0.28278   0.00000  Uiso   1.00
Zn1158 Zn    0.46792   0.79044   0.22258   0.00000  Uiso   1.00
Zn1159 Zn    0.54500   0.86331   0.21188   0.00000  Uiso   1.00
Zn1160 Zn    0.46131   0.87202   0.28277   0.00000  Uiso   1.00
C1161  C     0.71913   0.82670   0.25883   0.00000  Uiso   1.00
C1162  C     0.83946   0.78835   0.46661   0.00000  Uiso   1.00
C1163  C     0.86459   0.77118   0.48444   0.00000  Uiso   1.00
C1164  C     0.94779   0.84034   0.24114   0.00000  Uiso   1.00
C1165  C     0.86858   0.78888   0.02157   0.00000  Uiso   1.00
C1166  C     0.83911   0.81737   0.04472   0.00000  Uiso   1.00
C1167  C     0.90026   0.77673   0.03619   0.00000  Uiso   1.00
C1168  C     0.89357   0.78128   0.07725   0.00000  Uiso   1.00
C1169  C     0.83790   0.82713   0.08517   0.00000  Uiso   1.00
C1170  C     0.99398   0.84304   0.23749   0.00000  Uiso   1.00
C1171  C     0.67362   0.82469   0.26233   0.00000  Uiso   1.00
C1172  C     0.78189   0.90211   0.41783   0.00000  Uiso   1.00
C1173  C     0.84951   0.99002   0.24331   0.00000  Uiso   1.00
C1174  C     0.81569   0.67874   0.26274   0.00000  Uiso   1.00
C1175  C     0.82224   0.72297   0.25900   0.00000  Uiso   1.00
C1176  C     0.84388   0.94462   0.24222   0.00000  Uiso   1.00
C1177  C     0.85509   0.81198   0.14396   0.00000  Uiso   1.00
C1178  C     0.81364   0.85617   0.35590   0.00000  Uiso   1.00
C1179  C     0.80764   0.86985   0.39837   0.00000  Uiso   1.00
C1180  C     0.86187   0.80588   0.10140   0.00000  Uiso   1.00
C1181  C     0.76638   0.90643   0.45914   0.00000  Uiso   1.00
C1182  C     0.76650   0.95408   0.05339   0.00000  Uiso   1.00
C1183  C     0.82758   0.85096   0.41998   0.00000  Uiso   1.00
C1184  C     0.73637   0.98589   0.07811   0.00000  Uiso   1.00
C1185  C     0.76202   0.69435   0.08597   0.00000  Uiso   1.00
C1186  C     0.95569   0.73566   0.00113   0.00000  Uiso   1.00
C1187  C     0.99959   0.73628   0.00917   0.00000  Uiso   1.00
C1188  C     0.68147   0.69315   0.00048   0.00000  Uiso   1.00
C1189  C     0.91964   0.67741   0.24394   0.00000  Uiso   1.00
C1190  C     0.96154   0.70368   0.22404   0.00000  Uiso   1.00
C1191  C     0.99610   0.70535   0.24548   0.00000  Uiso   1.00
C1192  C     0.74199   0.68417   0.30157   0.00000  Uiso   1.00
C1193  C     0.74647   0.70347   0.34212   0.00000  Uiso   1.00
C1194  C     0.81047   0.85285   0.46164   0.00000  Uiso   1.00
C1195  C     0.71307   0.73416   0.36144   0.00000  Uiso   1.00
C1196  C     0.83654   0.89504   0.10928   0.00000  Uiso   1.00
C1197  C     0.90717   0.72067   0.09422   0.00000  Uiso   1.00
C1198  C     0.88536   0.70934   0.13617   0.00000  Uiso   1.00
C1199  C     0.87316   0.99585   0.13592   0.00000  Uiso   1.00
C1200  C     0.85819   0.70110   0.48394   0.00000  Uiso   1.00
C1201  C     0.69449   0.91408   0.47817   0.00000  Uiso   1.00
C1202  C     0.80669   0.95392   0.37585   0.00000  Uiso   1.00
C1203  C     0.82621   0.98683   0.40241   0.00000  Uiso   1.00
C1204  C     0.86182   0.68275   0.37754   0.00000  Uiso   1.00
C1205  C     0.78145   0.88267   0.48150   0.00000  Uiso   1.00
C1206  C     0.90226   0.85783   0.40538   0.00000  Uiso   1.00
C1207  C     0.92004   0.88712   0.37294   0.00000  Uiso   1.00
C1208  C     0.96288   0.91213   0.37582   0.00000  Uiso   1.00
C1209  C     0.78613   0.75435   0.44008   0.00000  Uiso   1.00
C1210  C     0.82264   0.82637   0.48385   0.00000  Uiso   1.00
C1211  C     0.81509   0.83617   0.02511   0.00000  Uiso   1.00
C1212  C     0.78421   0.86421   0.04417   0.00000  Uiso   1.00
C1213  C     0.76867   0.88816   0.02314   0.00000  Uiso   1.00
H1214  H     0.68414   0.85986   0.21458   0.00000  Uiso   1.00
H1215  H     0.77864   0.70805   0.05786   0.00000  Uiso   1.00
H1216  H     0.96059   0.72732   0.46896   0.00000  Uiso   1.00
H1217  H     0.93176   0.71098   0.01606   0.00000  Uiso   1.00
H1218  H     0.69096   0.75782   0.49036   0.00000  Uiso   1.00
H1219  H     0.99693   0.74789   0.04047   0.00000  Uiso   1.00
H1220  H     0.99080   0.67152   0.01968   0.00000  Uiso   1.00
H1221  H     0.71329   0.69457   0.00661   0.00000  Uiso   1.00
H1222  H     0.68540   0.68125   0.46902   0.00000  Uiso   1.00
H1223  H     0.92739   0.97875   0.24401   0.00000  Uiso   1.00
H1224  H     0.90700   0.69142   0.27500   0.00000  Uiso   1.00
H1225  H     0.98415   0.80789   0.28558   0.00000  Uiso   1.00
H1226  H     0.97449   0.69020   0.19298   0.00000  Uiso   1.00
H1227  H     0.95431   0.73578   0.22384   0.00000  Uiso   1.00
H1228  H     0.98452   0.72022   0.27618   0.00000  Uiso   1.00
H1229  H     0.69302   0.72381   0.22978   0.00000  Uiso   1.00
H1230  H     0.67045   0.67357   0.24613   0.00000  Uiso   1.00
H1231  H     0.71031   0.99758   0.30653   0.00000  Uiso   1.00
H1232  H     0.73948   0.70785   0.28333   0.00000  Uiso   1.00
H1233  H     0.74116   0.67851   0.36158   0.00000  Uiso   1.00
H1234  H     0.77961   0.71992   0.33932   0.00000  Uiso   1.00
H1235  H     0.71853   0.76025   0.34317   0.00000  Uiso   1.00
H1236  H     0.77025   0.86823   0.07552   0.00000  Uiso   1.00
H1237  H     0.71632   0.74698   0.39104   0.00000  Uiso   1.00
H1238  H     0.67949   0.71837   0.36498   0.00000  Uiso   1.00
H1239  H     0.84773   0.90509   0.07905   0.00000  Uiso   1.00
H1240  H     0.86502   0.89596   0.12068   0.00000  Uiso   1.00
H1241  H     0.81513   0.91774   0.12866   0.00000  Uiso   1.00
H1242  H     0.93711   0.70474   0.08209   0.00000  Uiso   1.00
H1243  H     0.88469   0.70766   0.07600   0.00000  Uiso   1.00
H1244  H     0.90754   0.72007   0.15491   0.00000  Uiso   1.00
H1245  H     0.85510   0.72442   0.14885   0.00000  Uiso   1.00
H1246  H     0.85419   0.98453   0.11455   0.00000  Uiso   1.00
H1247  H     0.78710   0.96729   0.02586   0.00000  Uiso   1.00
H1248  H     0.85244   0.98823   0.16544   0.00000  Uiso   1.00
H1249  H     0.90292   0.97966   0.12773   0.00000  Uiso   1.00
H1250  H     0.85609   0.70320   0.01574   0.00000  Uiso   1.00
H1251  H     0.87393   0.67283   0.46945   0.00000  Uiso   1.00
H1252  H     0.82481   0.69720   0.48053   0.00000  Uiso   1.00
H1253  H     0.68750   0.88467   0.49232   0.00000  Uiso   1.00
H1254  H     0.69040   0.90789   0.44799   0.00000  Uiso   1.00
H1255  H     0.66983   0.93459   0.49604   0.00000  Uiso   1.00
H1256  H     0.79598   0.96949   0.35537   0.00000  Uiso   1.00
H1257  H     0.83313   0.93574   0.35701   0.00000  Uiso   1.00
H1258  H     0.78793   0.94816   0.07082   0.00000  Uiso   1.00
H1259  H     0.80011   0.67108   0.42264   0.00000  Uiso   1.00
H1260  H     0.84075   0.97135   0.42026   0.00000  Uiso   1.00
H1261  H     0.88725   0.99822   0.35631   0.00000  Uiso   1.00
H1262  H     0.87765   0.70506   0.39675   0.00000  Uiso   1.00
H1263  H     0.84771   0.70037   0.36096   0.00000  Uiso   1.00
H1264  H     0.92745   0.83729   0.40314   0.00000  Uiso   1.00
H1265  H     0.89665   0.87593   0.43509   0.00000  Uiso   1.00
H1266  H     0.92551   0.86870   0.34355   0.00000  Uiso   1.00
H1267  H     0.89595   0.90901   0.37563   0.00000  Uiso   1.00
H1268  H     0.95807   0.93122   0.40483   0.00000  Uiso   1.00
H1269  H     0.71279   0.99032   0.06242   0.00000  Uiso   1.00
H1270  H     0.97473   0.93315   0.35212   0.00000  Uiso   1.00
H1271  H     0.98799   0.89103   0.37224   0.00000  Uiso   1.00
H1272  H     0.76718   0.78109   0.44448   0.00000  Uiso   1.00
H1273  H     0.77345   0.73602   0.46582   0.00000  Uiso   1.00
H1274  H     0.78062   0.73440   0.41386   0.00000  Uiso   1.00
H1275  H     0.71771   0.97402   0.10673   0.00000  Uiso   1.00
H1276  H     0.78665   0.69060   0.10078   0.00000  Uiso   1.00
H1277  H     0.73938   0.71608   0.10541   0.00000  Uiso   1.00
O1278  O     0.83333   0.83333   0.25000   0.00000  Uiso   1.00
O1279  O     0.82360   0.79060   0.16625   0.00000  Uiso   1.00
O1280  O     0.79354   0.87313   0.33749   0.00000  Uiso   1.00
O1281  O     0.87755   0.84159   0.15877   0.00000  Uiso   1.00
O1282  O     0.83865   0.82802   0.33749   0.00000  Uiso   1.00
O1283  O     0.74099   0.91720   0.04417   0.00000  Uiso   1.00
O1284  O     0.94237   0.77594   0.01105   0.00000  Uiso   1.00
O1285  O     0.88903   0.67665   0.22279   0.00000  Uiso   1.00
O1286  O     0.77507   0.99151   0.28185   0.00000  Uiso   1.00
O1287  O     0.81215   0.85554   0.11024   0.00000  Uiso   1.00
O1288  O     0.91959   0.76411   0.09390   0.00000  Uiso   1.00
O1289  O     0.84515   0.74768   0.27821   0.00000  Uiso   1.00
O1290  O     0.88363   0.73576   0.46588   0.00000  Uiso   1.00
O1291  O     0.73638   0.93429   0.47735   0.00000  Uiso   1.00
O1292  O     0.76970   0.92915   0.39750   0.00000  Uiso   1.00
O1293  O     0.86482   0.83204   0.40002   0.00000  Uiso   1.00
O1294  O     0.83127   0.76686   0.43273   0.00000  Uiso   1.00
O1295  O     0.81247   0.92803   0.26767   0.00000  Uiso   1.00
O1296  O     0.74119   0.79917   0.23607   0.00000  Uiso   1.00
O1297  O     0.93452   0.85845   0.21806   0.00000  Uiso   1.00
O1298  O     0.73656   0.85627   0.27820   0.00000  Uiso   1.00
O1299  O     0.92106   0.81944   0.26768   0.00000  Uiso   1.00
O1300  O     0.80467   0.73570   0.23607   0.00000  Uiso   1.00
O1301  O     0.87104   0.92193   0.21805   0.00000  Uiso   1.00
Zn1302 Zn    0.85910   0.80756   0.28278   0.00000  Uiso   1.00
Zn1303 Zn    0.80125   0.79044   0.22258   0.00000  Uiso   1.00
Zn1304 Zn    0.87833   0.86331   0.21188   0.00000  Uiso   1.00
Zn1305 Zn    0.79465   0.87202   0.28277   0.00000  Uiso   1.00
C1306  C     0.05246   0.16003   0.75883   0.00000  Uiso   1.00
C1307  C     0.17279   0.12168   0.96661   0.00000  Uiso   1.00
C1308  C     0.19792   0.10452   0.98444   0.00000  Uiso   1.00
C1309  C     0.28112   0.17367   0.74114   0.00000  Uiso   1.00
C1310  C     0.20192   0.12221   0.52157   0.00000  Uiso   1.00
C1311  C     0.17245   0.15070   0.54472   0.00000  Uiso   1.00
C1312  C     0.23359   0.11007   0.53619   0.00000  Uiso   1.00
C1313  C     0.22690   0.11461   0.57725   0.00000  Uiso   1.00
C1314  C     0.17123   0.16046   0.58517   0.00000  Uiso   1.00
C1315  C     0.32732   0.17638   0.73749   0.00000  Uiso   1.00
C1316  C     0.00696   0.15803   0.76233   0.00000  Uiso   1.00
C1317  C     0.11523   0.23544   0.91783   0.00000  Uiso   1.00
C1318  C     0.18284   0.32335   0.74331   0.00000  Uiso   1.00
C1319  C     0.14902   0.01207   0.76274   0.00000  Uiso   1.00
C1320  C     0.15557   0.05630   0.75900   0.00000  Uiso   1.00
C1321  C     0.17721   0.27796   0.74222   0.00000  Uiso   1.00
C1322  C     0.18842   0.14532   0.64396   0.00000  Uiso   1.00
C1323  C     0.14698   0.18950   0.85590   0.00000  Uiso   1.00
C1324  C     0.14097   0.20318   0.89837   0.00000  Uiso   1.00
C1325  C     0.19521   0.13921   0.60140   0.00000  Uiso   1.00
C1326  C     0.09972   0.23976   0.95914   0.00000  Uiso   1.00
C1327  C     0.09983   0.28741   0.55339   0.00000  Uiso   1.00
C1328  C     0.16091   0.18429   0.91998   0.00000  Uiso   1.00
C1329  C     0.06971   0.31922   0.57811   0.00000  Uiso   1.00
C1330  C     0.09535   0.02769   0.58597   0.00000  Uiso   1.00
C1331  C     0.28903   0.06900   0.50113   0.00000  Uiso   1.00
C1332  C     0.33292   0.06962   0.50917   0.00000  Uiso   1.00
C1333  C     0.01480   0.02648   0.50048   0.00000  Uiso   1.00
C1334  C     0.25298   0.01074   0.74394   0.00000  Uiso   1.00
C1335  C     0.29487   0.03701   0.72404   0.00000  Uiso   1.00
C1336  C     0.32943   0.03868   0.74548   0.00000  Uiso   1.00
C1337  C     0.07533   0.01750   0.80157   0.00000  Uiso   1.00
C1338  C     0.07980   0.03681   0.84212   0.00000  Uiso   1.00
C1339  C     0.14381   0.18618   0.96164   0.00000  Uiso   1.00
C1340  C     0.04640   0.06749   0.86144   0.00000  Uiso   1.00
C1341  C     0.16987   0.22837   0.60928   0.00000  Uiso   1.00
C1342  C     0.24051   0.05400   0.59422   0.00000  Uiso   1.00
C1343  C     0.21869   0.04267   0.63617   0.00000  Uiso   1.00
C1344  C     0.20649   0.32918   0.63592   0.00000  Uiso   1.00
C1345  C     0.19152   0.03444   0.98394   0.00000  Uiso   1.00
C1346  C     0.02782   0.24741   0.97817   0.00000  Uiso   1.00
C1347  C     0.14003   0.28725   0.87585   0.00000  Uiso   1.00
C1348  C     0.15954   0.32017   0.90241   0.00000  Uiso   1.00
C1349  C     0.19515   0.01608   0.87754   0.00000  Uiso   1.00
C1350  C     0.11478   0.21600   0.98150   0.00000  Uiso   1.00
C1351  C     0.23559   0.19117   0.90538   0.00000  Uiso   1.00
C1352  C     0.25337   0.22045   0.87294   0.00000  Uiso   1.00
C1353  C     0.29622   0.24546   0.87582   0.00000  Uiso   1.00
C1354  C     0.11947   0.08769   0.94008   0.00000  Uiso   1.00
C1355  C     0.15598   0.15971   0.98385   0.00000  Uiso   1.00
C1356  C     0.14842   0.16951   0.52511   0.00000  Uiso   1.00
C1357  C     0.11754   0.19754   0.54417   0.00000  Uiso   1.00
C1358  C     0.10200   0.22149   0.52314   0.00000  Uiso   1.00
H1359  H     0.01747   0.19319   0.71458   0.00000  Uiso   1.00
H1360  H     0.11198   0.04138   0.55786   0.00000  Uiso   1.00
H1361  H     0.29392   0.06065   0.96896   0.00000  Uiso   1.00
H1362  H     0.26509   0.04431   0.51606   0.00000  Uiso   1.00
H1363  H     0.02430   0.09116   0.99036   0.00000  Uiso   1.00
H1364  H     0.33026   0.08122   0.54047   0.00000  Uiso   1.00
H1365  H     0.32414   0.00486   0.51968   0.00000  Uiso   1.00
H1366  H     0.04662   0.02791   0.50661   0.00000  Uiso   1.00
H1367  H     0.01873   0.01458   0.96902   0.00000  Uiso   1.00
H1368  H     0.26073   0.31208   0.74401   0.00000  Uiso   1.00
H1369  H     0.24033   0.02476   0.77500   0.00000  Uiso   1.00
H1370  H     0.31748   0.14123   0.78558   0.00000  Uiso   1.00
H1371  H     0.30782   0.02353   0.69298   0.00000  Uiso   1.00
H1372  H     0.28765   0.06911   0.72384   0.00000  Uiso   1.00
H1373  H     0.31785   0.05355   0.77618   0.00000  Uiso   1.00
H1374  H     0.02636   0.05714   0.72978   0.00000  Uiso   1.00
H1375  H     0.00379   0.00690   0.74613   0.00000  Uiso   1.00
H1376  H     0.04364   0.33091   0.80653   0.00000  Uiso   1.00
H1377  H     0.07282   0.04118   0.78333   0.00000  Uiso   1.00
H1378  H     0.07449   0.01184   0.86158   0.00000  Uiso   1.00
H1379  H     0.11294   0.05325   0.83932   0.00000  Uiso   1.00
H1380  H     0.05187   0.09358   0.84317   0.00000  Uiso   1.00
H1381  H     0.10359   0.20157   0.57552   0.00000  Uiso   1.00
H1382  H     0.04965   0.08031   0.89104   0.00000  Uiso   1.00
H1383  H     0.01282   0.05171   0.86498   0.00000  Uiso   1.00
H1384  H     0.18107   0.23843   0.57905   0.00000  Uiso   1.00
H1385  H     0.19836   0.22929   0.62068   0.00000  Uiso   1.00
H1386  H     0.14846   0.25107   0.62866   0.00000  Uiso   1.00
H1387  H     0.27045   0.03808   0.58209   0.00000  Uiso   1.00
H1388  H     0.21802   0.04099   0.57600   0.00000  Uiso   1.00
H1389  H     0.24088   0.05341   0.65491   0.00000  Uiso   1.00
H1390  H     0.18843   0.05775   0.64885   0.00000  Uiso   1.00
H1391  H     0.18752   0.31787   0.61455   0.00000  Uiso   1.00
H1392  H     0.12043   0.30062   0.52586   0.00000  Uiso   1.00
H1393  H     0.18578   0.32156   0.66544   0.00000  Uiso   1.00
H1394  H     0.23626   0.31299   0.62773   0.00000  Uiso   1.00
H1395  H     0.18943   0.03653   0.51574   0.00000  Uiso   1.00
H1396  H     0.20726   0.00616   0.96945   0.00000  Uiso   1.00
H1397  H     0.15814   0.03054   0.98053   0.00000  Uiso   1.00
H1398  H     0.02083   0.21800   0.99232   0.00000  Uiso   1.00
H1399  H     0.02373   0.24122   0.94799   0.00000  Uiso   1.00
H1400  H     0.00317   0.26793   0.99604   0.00000  Uiso   1.00
H1401  H     0.12931   0.30282   0.85537   0.00000  Uiso   1.00
H1402  H     0.16646   0.26907   0.85701   0.00000  Uiso   1.00
H1403  H     0.12127   0.28149   0.57082   0.00000  Uiso   1.00
H1404  H     0.13345   0.00442   0.92264   0.00000  Uiso   1.00
H1405  H     0.17408   0.30468   0.92026   0.00000  Uiso   1.00
H1406  H     0.22058   0.33155   0.85631   0.00000  Uiso   1.00
H1407  H     0.21099   0.03839   0.89675   0.00000  Uiso   1.00
H1408  H     0.18104   0.03370   0.86096   0.00000  Uiso   1.00
H1409  H     0.26079   0.17062   0.90314   0.00000  Uiso   1.00
H1410  H     0.22998   0.20926   0.93509   0.00000  Uiso   1.00
H1411  H     0.25884   0.20204   0.84355   0.00000  Uiso   1.00
H1412  H     0.22928   0.24234   0.87563   0.00000  Uiso   1.00
H1413  H     0.29140   0.26455   0.90483   0.00000  Uiso   1.00
H1414  H     0.04613   0.32365   0.56242   0.00000  Uiso   1.00
H1415  H     0.30807   0.26649   0.85212   0.00000  Uiso   1.00
H1416  H     0.32133   0.22437   0.87224   0.00000  Uiso   1.00
H1417  H     0.10051   0.11442   0.94448   0.00000  Uiso   1.00
H1418  H     0.10678   0.06935   0.96582   0.00000  Uiso   1.00
H1419  H     0.11396   0.06773   0.91386   0.00000  Uiso   1.00
H1420  H     0.05104   0.30735   0.60673   0.00000  Uiso   1.00
H1421  H     0.11999   0.02393   0.60078   0.00000  Uiso   1.00
H1422  H     0.07271   0.04942   0.60541   0.00000  Uiso   1.00
O1423  O     0.16667   0.16667   0.75000   0.00000  Uiso   1.00
O1424  O     0.15693   0.12393   0.66625   0.00000  Uiso   1.00
O1425  O     0.12687   0.20646   0.83749   0.00000  Uiso   1.00
O1426  O     0.21088   0.17493   0.65877   0.00000  Uiso   1.00
O1427  O     0.17198   0.16135   0.83749   0.00000  Uiso   1.00
O1428  O     0.07432   0.25054   0.54417   0.00000  Uiso   1.00
O1429  O     0.27570   0.10928   0.51105   0.00000  Uiso   1.00
O1430  O     0.22236   0.00999   0.72279   0.00000  Uiso   1.00
O1431  O     0.10841   0.32485   0.78185   0.00000  Uiso   1.00
O1432  O     0.14548   0.18887   0.61024   0.00000  Uiso   1.00
O1433  O     0.25293   0.09745   0.59390   0.00000  Uiso   1.00
O1434  O     0.17849   0.08101   0.77821   0.00000  Uiso   1.00
O1435  O     0.21697   0.06909   0.96588   0.00000  Uiso   1.00
O1436  O     0.06972   0.26762   0.97735   0.00000  Uiso   1.00
O1437  O     0.10303   0.26249   0.89750   0.00000  Uiso   1.00
O1438  O     0.19815   0.16538   0.90002   0.00000  Uiso   1.00
O1439  O     0.16460   0.10020   0.93273   0.00000  Uiso   1.00
O1440  O     0.14581   0.26136   0.76767   0.00000  Uiso   1.00
O1441  O     0.07452   0.13251   0.73607   0.00000  Uiso   1.00
O1442  O     0.26785   0.19179   0.71806   0.00000  Uiso   1.00
O1443  O     0.06990   0.18960   0.77820   0.00000  Uiso   1.00
O1444  O     0.25440   0.15277   0.76768   0.00000  Uiso   1.00
O1445  O     0.13800   0.06903   0.73607   0.00000  Uiso   1.00
O1446  O     0.20437   0.25527   0.71805   0.00000  Uiso   1.00
Zn1447 Zn    0.19244   0.14090   0.78278   0.00000  Uiso   1.00
Zn1448 Zn    0.13459   0.12378   0.72258   0.00000  Uiso   1.00
Zn1449 Zn    0.21166   0.19664   0.71188   0.00000  Uiso   1.00
Zn1450 Zn    0.12798   0.20535   0.78277   0.00000  Uiso   1.00
C1451  C     0.38579   0.16003   0.75883   0.00000  Uiso   1.00
C1452  C     0.50612   0.12168   0.96661   0.00000  Uiso   1.00
C1453  C     0.53126   0.10452   0.98444   0.00000  Uiso   1.00
C1454  C     0.61445   0.17367   0.74114   0.00000  Uiso   1.00
C1455  C     0.53525   0.12221   0.52157   0.00000  Uiso   1.00
C1456  C     0.50578   0.15070   0.54472   0.00000  Uiso   1.00
C1457  C     0.56693   0.11007   0.53619   0.00000  Uiso   1.00
C1458  C     0.56024   0.11461   0.57725   0.00000  Uiso   1.00
C1459  C     0.50456   0.16046   0.58517   0.00000  Uiso   1.00
C1460  C     0.66065   0.17638   0.73749   0.00000  Uiso   1.00
C1461  C     0.34029   0.15803   0.76233   0.00000  Uiso   1.00
C1462  C     0.44856   0.23544   0.91783   0.00000  Uiso   1.00
C1463  C     0.51618   0.32335   0.74331   0.00000  Uiso   1.00
C1464  C     0.48235   0.01207   0.76274   0.00000  Uiso   1.00
C1465  C     0.48891   0.05630   0.75900   0.00000  Uiso   1.00
C1466  C     0.51054   0.27796   0.74222   0.00000  Uiso   1.00
C1467  C     0.52176   0.14532   0.64396   0.00000  Uiso   1.00
C1468  C     0.48031   0.18950   0.85590   0.00000  Uiso   1.00
C1469  C     0.47430   0.20318   0.89837   0.00000  Uiso   1.00
C1470  C     0.52854   0.13921   0.60140   0.00000  Uiso   1.00
C1471  C     0.43305   0.23976   0.95914   0.00000  Uiso   1.00
C1472  C     0.43317   0.28741   0.55339   0.00000  Uiso   1.00
C1473  C     0.49424   0.18429   0.91998   0.00000  Uiso   1.00
C1474  C     0.40304   0.31922   0.57811   0.00000  Uiso   1.00
C1475  C     0.42869   0.02769   0.58597   0.00000  Uiso   1.00
C1476  C     0.62236   0.06900   0.50113   0.00000  Uiso   1.00
C1477  C     0.66625   0.06962   0.50917   0.00000  Uiso   1.00
C1478  C     0.34814   0.02648   0.50048   0.00000  Uiso   1.00
C1479  C     0.58631   0.01074   0.74394   0.00000  Uiso   1.00
C1480  C     0.62820   0.03701   0.72404   0.00000  Uiso   1.00
C1481  C     0.66276   0.03868   0.74548   0.00000  Uiso   1.00
C1482  C     0.40866   0.01750   0.80157   0.00000  Uiso   1.00
C1483  C     0.41313   0.03681   0.84212   0.00000  Uiso   1.00
C1484  C     0.47714   0.18618   0.96164   0.00000  Uiso   1.00
C1485  C     0.37973   0.06749   0.86144   0.00000  Uiso   1.00
C1486  C     0.50321   0.22837   0.60928   0.00000  Uiso   1.00
C1487  C     0.57384   0.05400   0.59422   0.00000  Uiso   1.00
C1488  C     0.55203   0.04267   0.63617   0.00000  Uiso   1.00
C1489  C     0.53982   0.32918   0.63592   0.00000  Uiso   1.00
C1490  C     0.52485   0.03444   0.98394   0.00000  Uiso   1.00
C1491  C     0.36115   0.24741   0.97817   0.00000  Uiso   1.00
C1492  C     0.47336   0.28725   0.87585   0.00000  Uiso   1.00
C1493  C     0.49287   0.32017   0.90241   0.00000  Uiso   1.00
C1494  C     0.52849   0.01608   0.87754   0.00000  Uiso   1.00
C1495  C     0.44811   0.21600   0.98150   0.00000  Uiso   1.00
C1496  C     0.56892   0.19117   0.90538   0.00000  Uiso   1.00
C1497  C     0.58671   0.22045   0.87294   0.00000  Uiso   1.00
C1498  C     0.62955   0.24546   0.87582   0.00000  Uiso   1.00
C1499  C     0.45280   0.08769   0.94008   0.00000  Uiso   1.00
C1500  C     0.48931   0.15971   0.98385   0.00000  Uiso   1.00
C1501  C     0.48176   0.16951   0.52511   0.00000  Uiso   1.00
C1502  C     0.45087   0.19754   0.54417   0.00000  Uiso   1.00
C1503  C     0.43533   0.22149   0.52314   0.00000  Uiso   1.00
H1504  H     0.35080   0.19319   0.71458   0.00000  Uiso   1.00
H1505  H     0.44531   0.04138   0.55786   0.00000  Uiso   1.00
H1506  H     0.62726   0.06065   0.96896   0.00000  Uiso   1.00
H1507  H     0.59842   0.04431   0.51606   0.00000  Uiso   1.00
H1508  H     0.35763   0.09116   0.99036   0.00000  Uiso   1.00
H1509  H     0.66360   0.08122   0.54047   0.00000  Uiso   1.00
H1510  H     0.65747   0.00486   0.51968   0.00000  Uiso   1.00
H1511  H     0.37995   0.02791   0.50661   0.00000  Uiso   1.00
H1512  H     0.35206   0.01458   0.96902   0.00000  Uiso   1.00
H1513  H     0.59406   0.31208   0.74401   0.00000  Uiso   1.00
H1514  H     0.57366   0.02476   0.77500   0.00000  Uiso   1.00
H1515  H     0.65081   0.14123   0.78558   0.00000  Uiso   1.00
H1516  H     0.64115   0.02353   0.69298   0.00000  Uiso   1.00
H1517  H     0.62098   0.06911   0.72384   0.00000  Uiso   1.00
H1518  H     0.65119   0.05355   0.77618   0.00000  Uiso   1.00
H1519  H     0.35969   0.05714   0.72978   0.00000  Uiso   1.00
H1520  H     0.33712   0.00690   0.74613   0.00000  Uiso   1.00
H1521  H     0.37697   0.33091   0.80653   0.00000  Uiso   1.00
H1522  H     0.40615   0.04118   0.78333   0.00000  Uiso   1.00
H1523  H     0.40782   0.01184   0.86158   0.00000  Uiso   1.00
H1524  H     0.44627   0.05325   0.83932   0.00000  Uiso   1.00
H1525  H     0.38520   0.09358   0.84317   0.00000  Uiso   1.00
H1526  H     0.43692   0.20157   0.57552   0.00000  Uiso   1.00
H1527  H     0.38298   0.08031   0.89104   0.00000  Uiso   1.00
H1528  H     0.34616   0.05171   0.86498   0.00000  Uiso   1.00
H1529  H     0.51440   0.23843   0.57905   0.00000  Uiso   1.00
H1530  H     0.53169   0.22929   0.62068   0.00000  Uiso   1.00
H1531  H     0.48180   0.25107   0.62866   0.00000  Uiso   1.00
H1532  H     0.60378   0.03808   0.58209   0.00000  Uiso   1.00
H1533  H     0.55135   0.04099   0.57600   0.00000  Uiso   1.00
H1534  H     0.57421   0.05341   0.65491   0.00000  Uiso   1.00
H1535  H     0.52176   0.05775   0.64885   0.00000  Uiso   1.00
H1536  H     0.52086   0.31787   0.61455   0.00000  Uiso   1.00
H1537  H     0.45377   0.30062   0.52586   0.00000  Uiso   1.00
H1538  H     0.51911   0.32156   0.66544   0.00000  Uiso   1.00
H1539  H     0.56959   0.31299   0.62773   0.00000  Uiso   1.00
H1540  H     0.52276   0.03653   0.51574   0.00000  Uiso   1.00
H1541  H     0.54060   0.00616   0.96945   0.00000  Uiso   1.00
H1542  H     0.49147   0.03054   0.98053   0.00000  Uiso   1.00
H1543  H     0.35416   0.21800   0.99232   0.00000  Uiso   1.00
H1544  H     0.35706   0.24122   0.94799   0.00000  Uiso   1.00
H1545  H     0.33650   0.26793   0.99604   0.00000  Uiso   1.00
H1546  H     0.46265   0.30282   0.85537   0.00000  Uiso   1.00
H1547  H     0.49980   0.26907   0.85701   0.00000  Uiso   1.00
H1548  H     0.45460   0.28149   0.57082   0.00000  Uiso   1.00
H1549  H     0.46678   0.00442   0.92264   0.00000  Uiso   1.00
H1550  H     0.50742   0.30468   0.92026   0.00000  Uiso   1.00
H1551  H     0.55391   0.33155   0.85631   0.00000  Uiso   1.00
H1552  H     0.54432   0.03839   0.89675   0.00000  Uiso   1.00
H1553  H     0.51437   0.03370   0.86096   0.00000  Uiso   1.00
H1554  H     0.59412   0.17062   0.90314   0.00000  Uiso   1.00
H1555  H     0.56332   0.20926   0.93509   0.00000  Uiso   1.00
H1556  H     0.59218   0.20204   0.84355   0.00000  Uiso   1.00
H1557  H     0.56261   0.24234   0.87563   0.00000  Uiso   1.00
H1558  H     0.62474   0.26455   0.90483   0.00000  Uiso   1.00
H1559  H     0.37946   0.32365   0.56242   0.00000  Uiso   1.00
H1560  H     0.64140   0.26649   0.85212   0.00000  Uiso   1.00
H1561  H     0.65466   0.22437   0.87224   0.00000  Uiso   1.00
H1562  H     0.43385   0.11442   0.94448   0.00000  Uiso   1.00
H1563  H     0.44011   0.06935   0.96582   0.00000  Uiso   1.00
H1564  H     0.44729   0.06773   0.91386   0.00000  Uiso   1.00
H1565  H     0.38437   0.30735   0.60673   0.00000  Uiso   1.00
H1566  H     0.45332   0.02393   0.60078   0.00000  Uiso   1.00
H1567  H     0.40604   0.04942   0.60541   0.00000  Uiso   1.00
O1568  O     0.50000   0.16667   0.75000   0.00000  Uiso   1.00
O1569  O     0.49027   0.12393   0.66625   0.00000  Uiso   1.00
O1570  O     0.46020   0.20646   0.83749   0.00000  Uiso   1.00
O1571  O     0.54421   0.17493   0.65877   0.00000  Uiso   1.00
O1572  O     0.50532   0.16135   0.83749   0.00000  Uiso   1.00
O1573  O     0.40766   0.25054   0.54417   0.00000  Uiso   1.00
O1574  O     0.60904   0.10928   0.51105   0.00000  Uiso   1.00
O1575  O     0.55570   0.00999   0.72279   0.00000  Uiso   1.00
O1576  O     0.44174   0.32485   0.78185   0.00000  Uiso   1.00
O1577  O     0.47882   0.18887   0.61024   0.00000  Uiso   1.00
O1578  O     0.58626   0.09745   0.59390   0.00000  Uiso   1.00
O1579  O     0.51182   0.08101   0.77821   0.00000  Uiso   1.00
O1580  O     0.55030   0.06909   0.96588   0.00000  Uiso   1.00
O1581  O     0.40305   0.26762   0.97735   0.00000  Uiso   1.00
O1582  O     0.43637   0.26249   0.89750   0.00000  Uiso   1.00
O1583  O     0.53149   0.16538   0.90002   0.00000  Uiso   1.00
O1584  O     0.49793   0.10020   0.93273   0.00000  Uiso   1.00
O1585  O     0.47914   0.26136   0.76767   0.00000  Uiso   1.00
O1586  O     0.40785   0.13251   0.73607   0.00000  Uiso   1.00
O1587  O     0.60119   0.19179   0.71806   0.00000  Uiso   1.00
O1588  O     0.40323   0.18960   0.77820   0.00000  Uiso   1.00
O1589  O     0.58773   0.15277   0.76768   0.00000  Uiso   1.00
O1590  O     0.47133   0.06903   0.73607   0.00000  Uiso   1.00
O1591  O     0.53771   0.25527   0.71805   0.00000  Uiso   1.00
Zn1592 Zn    0.52577   0.14090   0.78278   0.00000  Uiso   1.00
Zn1593 Zn    0.46792   0.12378   0.72258   0.00000  Uiso   1.00
Zn1594 Zn    0.54500   0.19664   0.71188   0.00000  Uiso   1.00
Zn1595 Zn    0.46131   0.20535   0.78277   0.00000  Uiso   1.00
C1596  C     0.71913   0.16003   0.75883   0.00000  Uiso   1.00
C1597  C     0.83946   0.12168   0.96661   0.00000  Uiso   1.00
C1598  C     0.86459   0.10452   0.98444   0.00000  Uiso   1.00
C1599  C     0.94779   0.17367   0.74114   0.00000  Uiso   1.00
C1600  C     0.86858   0.12221   0.52157   0.00000  Uiso   1.00
C1601  C     0.83911   0.15070   0.54472   0.00000  Uiso   1.00
C1602  C     0.90026   0.11007   0.53619   0.00000  Uiso   1.00
C1603  C     0.89357   0.11461   0.57725   0.00000  Uiso   1.00
C1604  C     0.83790   0.16046   0.58517   0.00000  Uiso   1.00
C1605  C     0.99398   0.17638   0.73749   0.00000  Uiso   1.00
C1606  C     0.67362   0.15803   0.76233   0.00000  Uiso   1.00
C1607  C     0.78189   0.23544   0.91783   0.00000  Uiso   1.00
C1608  C     0.84951   0.32335   0.74331   0.00000  Uiso   1.00
C1609  C     0.81569   0.01207   0.76274   0.00000  Uiso   1.00
C1610  C     0.82224   0.05630   0.75900   0.00000  Uiso   1.00
C1611  C     0.84388   0.27796   0.74222   0.00000  Uiso   1.00
C1612  C     0.85509   0.14532   0.64396   0.00000  Uiso   1.00
C1613  C     0.81364   0.18950   0.85590   0.00000  Uiso   1.00
C1614  C     0.80764   0.20318   0.89837   0.00000  Uiso   1.00
C1615  C     0.86187   0.13921   0.60140   0.00000  Uiso   1.00
C1616  C     0.76638   0.23976   0.95914   0.00000  Uiso   1.00
C1617  C     0.76650   0.28741   0.55339   0.00000  Uiso   1.00
C1618  C     0.82758   0.18429   0.91998   0.00000  Uiso   1.00
C1619  C     0.73637   0.31922   0.57811   0.00000  Uiso   1.00
C1620  C     0.76202   0.02769   0.58597   0.00000  Uiso   1.00
C1621  C     0.95569   0.06900   0.50113   0.00000  Uiso   1.00
C1622  C     0.99959   0.06962   0.50917   0.00000  Uiso   1.00
C1623  C     0.68147   0.02648   0.50048   0.00000  Uiso   1.00
C1624  C     0.91964   0.01074   0.74394   0.00000  Uiso   1.00
C1625  C     0.96154   0.03701   0.72404   0.00000  Uiso   1.00
C1626  C     0.99610   0.03868   0.74548   0.00000  Uiso   1.00
C1627  C     0.74199   0.01750   0.80157   0.00000  Uiso   1.00
C1628  C     0.74647   0.03681   0.84212   0.00000  Uiso   1.00
C1629  C     0.81047   0.18618   0.96164   0.00000  Uiso   1.00
C1630  C     0.71307   0.06749   0.86144   0.00000  Uiso   1.00
C1631  C     0.83654   0.22837   0.60928   0.00000  Uiso   1.00
C1632  C     0.90717   0.05400   0.59422   0.00000  Uiso   1.00
C1633  C     0.88536   0.04267   0.63617   0.00000  Uiso   1.00
C1634  C     0.87316   0.32918   0.63592   0.00000  Uiso   1.00
C1635  C     0.85819   0.03444   0.98394   0.00000  Uiso   1.00
C1636  C     0.69449   0.24741   0.97817   0.00000  Uiso   1.00
C1637  C     0.80669   0.28725   0.87585   0.00000  Uiso   1.00
C1638  C     0.82621   0.32017   0.90241   0.00000  Uiso   1.00
C1639  C     0.86182   0.01608   0.87754   0.00000  Uiso   1.00
C1640  C     0.78145   0.21600   0.98150   0.00000  Uiso   1.00
C1641  C     0.90226   0.19117   0.90538   0.00000  Uiso   1.00
C1642  C     0.92004   0.22045   0.87294   0.00000  Uiso   1.00
C1643  C     0.96288   0.24546   0.87582   0.00000  Uiso   1.00
C1644  C     0.78613   0.08769   0.94008   0.00000  Uiso   1.00
C1645  C     0.82264   0.15971   0.98385   0.00000  Uiso   1.00
C1646  C     0.81509   0.16951   0.52511   0.00000  Uiso   1.00
C1647  C     0.78421   0.19754   0.54417   0.00000  Uiso   1.00
C1648  C     0.76867   0.22149   0.52314   0.00000  Uiso   1.00
H1649  H     0.68414   0.19319   0.71458   0.00000  Uiso   1.00
H1650  H     0.77864   0.04138   0.55786   0.00000  Uiso   1.00
H1651  H     0.96059   0.06065   0.96896   0.00000  Uiso   1.00
H1652  H     0.93176   0.04431   0.51606   0.00000  Uiso   1.00
H1653  H     0.69096   0.09116   0.99036   0.00000  Uiso   1.00
H1654  H     0.99693   0.08122   0.54047   0.00000  Uiso   1.00
H1655  H     0.99080   0.00486   0.51968   0.00000  Uiso   1.00
H1656  H     0.71329   0.02791   0.50661   0.00000  Uiso   1.00
H1657  H     0.68540   0.01458   0.96902   0.00000  Uiso   1.00
H1658  H     0.92739   0.31208   0.74401   0.00000  Uiso   1.00
H1659  H     0.90700   0.02476   0.77500   0.00000  Uiso   1.00
H1660  H     0.98415   0.14123   0.78558   0.00000  Uiso   1.00
H1661  H     0.97449   0.02353   0.69298   0.00000  Uiso   1.00
H1662  H     0.95431   0.06911   0.72384   0.00000  Uiso   1.00
H1663  H     0.98452   0.05355   0.77618   0.00000  Uiso   1.00
H1664  H     0.69302   0.05714   0.72978   0.00000  Uiso   1.00
H1665  H     0.67045   0.00690   0.74613   0.00000  Uiso   1.00
H1666  H     0.71031   0.33091   0.80653   0.00000  Uiso   1.00
H1667  H     0.73948   0.04118   0.78333   0.00000  Uiso   1.00
H1668  H     0.74116   0.01184   0.86158   0.00000  Uiso   1.00
H1669  H     0.77961   0.05325   0.83932   0.00000  Uiso   1.00
H1670  H     0.71853   0.09358   0.84317   0.00000  Uiso   1.00
H1671  H     0.77025   0.20157   0.57552   0.00000  Uiso   1.00
H1672  H     0.71632   0.08031   0.89104   0.00000  Uiso   1.00
H1673  H     0.67949   0.05171   0.86498   0.00000  Uiso   1.00
H1674  H     0.84773   0.23843   0.57905   0.00000  Uiso   1.00
H1675  H     0.86502   0.22929   0.62068   0.00000  Uiso   1.00
H1676  H     0.81513   0.25107   0.62866   0.00000  Uiso   1.00
H1677  H     0.93711   0.03808   0.58209   0.00000  Uiso   1.00
H1678  H     0.88469   0.04099   0.57600   0.00000  Uiso   1.00
H1679  H     0.90754   0.05341   0.65491   0.00000  Uiso   1.00
H1680  H     0.85510   0.05775   0.64885   0.00000  Uiso   1.00
H1681  H     0.85419   0.31787   0.61455   0.00000  Uiso   1.00
H1682  H     0.78710   0.30062   0.52586   0.00000  Uiso   1.00
H1683  H     0.85244   0.32156   0.66544   0.00000  Uiso   1.00
H1684  H     0.90292   0.31299   0.62773   0.00000  Uiso   1.00
H1685  H     0.85609   0.03653   0.51574   0.00000  Uiso   1.00
H1686  H     0.87393   0.00616   0.96945   0.00000  Uiso   1.00
H1687  H     0.82481   0.03054   0.98053   0.00000  Uiso   1.00
H1688  H     0.68750   0.21800   0.99232   0.00000  Uiso   1.00
H1689  H     0.69040   0.24122   0.94799   0.00000  Uiso   1.00
H1690  H     0.66983   0.26793   0.99604   0.00000  Uiso   1.00
H1691  H     0.79598   0.30282   0.85537   0.00000  Uiso   1.00
H1692  H     0.83313   0.26907   0.85701   0.00000  Uiso   1.00
H1693  H     0.78793   0.28149   0.57082   0.00000  Uiso   1.00
H1694  H     0.80011   0.00442   0.92264   0.00000  Uiso   1.00
H1695  H     0.84075   0.30468   0.92026   0.00000  Uiso   1.00
H1696  H     0.88725   0.33155   0.85631   0.00000  Uiso   1.00
H1697  H     0.87765   0.03839   0.89675   0.00000  Uiso   1.00
H1698  H     0.84771   0.03370   0.86096   0.00000  Uiso   1.00
H1699  H     0.92745   0.17062   0.90314   0.00000  Uiso   1.00
H1700  H     0.89665   0.20926   0.93509   0.00000  Uiso   1.00
H1701  H     0.92551   0.20204   0.84355   0.00000  Uiso   1.00
H1702  H     0.89595   0.24234   0.87563   0.00000  Uiso   1.00
H1703  H     0.95807   0.26455   0.90483   0.00000  Uiso   1.00
H1704  H     0.71279   0.32365   0.56242   0.00000  Uiso   1.00
H1705  H     0.97473   0.26649   0.85212   0.00000  Uiso   1.00
H1706  H     0.98799   0.22437   0.87224   0.00000  Uiso   1.00
H1707  H     0.76718   0.11442   0.94448   0.00000  Uiso   1.00
H1708  H     0.77345   0.06935   0.96582   0.00000  Uiso   1.00
H1709  H     0.78062   0.06773   0.91386   0.00000  Uiso   1.00
H1710  H     0.71771   0.30735   0.60673   0.00000  Uiso   1.00
H1711  H     0.78665   0.02393   0.60078   0.00000  Uiso   1.00
H1712  H     0.73938   0.04942   0.60541   0.00000  Uiso   1.00
O1713  O     0.83333   0.16667   0.75000   0.00000  Uiso   1.00
O1714  O     0.82360   0.12393   0.66625   0.00000  Uiso   1.00
O1715  O     0.79354   0.20646   0.83749   0.00000  Uiso   1.00
O1716  O     0.87755   0.17493   0.65877   0.00000  Uiso   1.00
O1717  O     0.83865   0.16135   0.83749   0.00000  Uiso   1.00
O1718  O     0.74099   0.25054   0.54417   0.00000  Uiso   1.00
O1719  O     0.94237   0.10928   0.51105   0.00000  Uiso   1.00
O1720  O     0.88903   0.00999   0.72279   0.00000  Uiso   1.00
O1721  O     0.77507   0.32485   0.78185   0.00000  Uiso   1.00
O1722  O     0.81215   0.18887   0.61024   0.00000  Uiso   1.00
O1723  O     0.91959   0.09745   0.59390   0.00000  Uiso   1.00
O1724  O     0.84515   0.08101   0.77821   0.00000  Uiso   1.00
O1725  O     0.88363   0.06909   0.96588   0.00000  Uiso   1.00
O1726  O     0.73638   0.26762   0.97735   0.00000  Uiso   1.00
O1727  O     0.76970   0.26249   0.89750   0.00000  Uiso   1.00
O1728  O     0.86482   0.16538   0.90002   0.00000  Uiso   1.00
O1729  O     0.83127   0.10020   0.93273   0.00000  Uiso   1.00
O1730  O     0.81247   0.26136   0.76767   0.00000  Uiso   1.00
O1731  O     0.74119   0.13251   0.73607   0.00000  Uiso   1.00
O1732  O     0.93452   0.19179   0.71806   0.00000  Uiso   1.00
O1733  O     0.73656   0.18960   0.77820   0.00000  Uiso   1.00
O1734  O     0.92106   0.15277   0.76768   0.00000  Uiso   1.00
O1735  O     0.80467   0.06903   0.73607   0.00000  Uiso   1.00
O1736  O     0.87104   0.25527   0.71805   0.00000  Uiso   1.00
Zn1737 Zn    0.85910   0.14090   0.78278   0.00000  Uiso   1.00
Zn1738 Zn    0.80125   0.12378   0.72258   0.00000  Uiso   1.00
Zn1739 Zn    0.87833   0.19664   0.71188   0.00000  Uiso   1.00
Zn1740 Zn    0.79465   0.20535   0.78277   0.00000  Uiso   1.00
C1741  C     0.05246   0.49337   0.75883   0.00000  Uiso   1.00
C1742  C     0.17279   0.45501   0.96661   0.00000  Uiso   1.00
C1743  C     0.19792   0.43785   0.98444   0.00000  Uiso   1.00
C1744  C     0.28112   0.50700   0.74114   0.00000  Uiso   1.00
C1745  C     0.20192   0.45555   0.52157   0.00000  Uiso   1.00
C1746  C     0.17245   0.48404   0.54472   0.00000  Uiso   1.00
C1747  C     0.23359   0.44340   0.53619   0.00000  Uiso   1.00
C1748  C     0.22690   0.44794   0.57725   0.00000  Uiso   1.00
C1749  C     0.17123   0.49380   0.58517   0.00000  Uiso   1.00
C1750  C     0.32732   0.50971   0.73749   0.00000  Uiso   1.00
C1751  C     0.00696   0.49136   0.76233   0.00000  Uiso   1.00
C1752  C     0.11523   0.56878   0.91783   0.00000  Uiso   1.00
C1753  C     0.18284   0.65669   0.74331   0.00000  Uiso   1.00
C1754  C     0.14902   0.34540   0.76274   0.00000  Uiso   1.00
C1755  C     0.15557   0.38963   0.75900   0.00000  Uiso   1.00
C1756  C     0.17721   0.61129   0.74222   0.00000  Uiso   1.00
C1757  C     0.18842   0.47865   0.64396   0.00000  Uiso   1.00
C1758  C     0.14698   0.52283   0.85590   0.00000  Uiso   1.00
C1759  C     0.14097   0.53651   0.89837   0.00000  Uiso   1.00
C1760  C     0.19521   0.47255   0.60140   0.00000  Uiso   1.00
C1761  C     0.09972   0.57309   0.95914   0.00000  Uiso   1.00
C1762  C     0.09983   0.62075   0.55339   0.00000  Uiso   1.00
C1763  C     0.16091   0.51763   0.91998   0.00000  Uiso   1.00
C1764  C     0.06971   0.65255   0.57811   0.00000  Uiso   1.00
C1765  C     0.09535   0.36102   0.58597   0.00000  Uiso   1.00
C1766  C     0.28903   0.40233   0.50113   0.00000  Uiso   1.00
C1767  C     0.33292   0.40295   0.50917   0.00000  Uiso   1.00
C1768  C     0.01480   0.35982   0.50048   0.00000  Uiso   1.00
C1769  C     0.25298   0.34407   0.74394   0.00000  Uiso   1.00
C1770  C     0.29487   0.37034   0.72404   0.00000  Uiso   1.00
C1771  C     0.32943   0.37202   0.74548   0.00000  Uiso   1.00
C1772  C     0.07533   0.35083   0.80157   0.00000  Uiso   1.00
C1773  C     0.07980   0.37014   0.84212   0.00000  Uiso   1.00
C1774  C     0.14381   0.51951   0.96164   0.00000  Uiso   1.00
C1775  C     0.04640   0.40082   0.86144   0.00000  Uiso   1.00
C1776  C     0.16987   0.56171   0.60928   0.00000  Uiso   1.00
C1777  C     0.24051   0.38733   0.59422   0.00000  Uiso   1.00
C1778  C     0.21869   0.37601   0.63617   0.00000  Uiso   1.00
C1779  C     0.20649   0.66251   0.63592   0.00000  Uiso   1.00
C1780  C     0.19152   0.36777   0.98394   0.00000  Uiso   1.00
C1781  C     0.02782   0.58074   0.97817   0.00000  Uiso   1.00
C1782  C     0.14003   0.62059   0.87585   0.00000  Uiso   1.00
C1783  C     0.15954   0.65350   0.90241   0.00000  Uiso   1.00
C1784  C     0.19515   0.34942   0.87754   0.00000  Uiso   1.00
C1785  C     0.11478   0.54933   0.98150   0.00000  Uiso   1.00
C1786  C     0.23559   0.52450   0.90538   0.00000  Uiso   1.00
C1787  C     0.25337   0.55379   0.87294   0.00000  Uiso   1.00
C1788  C     0.29622   0.57879   0.87582   0.00000  Uiso   1.00
C1789  C     0.11947   0.42102   0.94008   0.00000  Uiso   1.00
C1790  C     0.15598   0.49304   0.98385   0.00000  Uiso   1.00
C1791  C     0.14842   0.50284   0.52511   0.00000  Uiso   1.00
C1792  C     0.11754   0.53088   0.54417   0.00000  Uiso   1.00
C1793  C     0.10200   0.55482   0.52314   0.00000  Uiso   1.00
H1794  H     0.01747   0.52652   0.71458   0.00000  Uiso   1.00
H1795  H     0.11198   0.37471   0.55786   0.00000  Uiso   1.00
H1796  H     0.29392   0.39399   0.96896   0.00000  Uiso   1.00
H1797  H     0.26509   0.37765   0.51606   0.00000  Uiso   1.00
H1798  H     0.02430   0.42449   0.99036   0.00000  Uiso   1.00
H1799  H     0.33026   0.41455   0.54047   0.00000  Uiso   1.00
H1800  H     0.32414   0.33819   0.51968   0.00000  Uiso   1.00
H1801  H     0.04662   0.36124   0.50661   0.00000  Uiso   1.00
H1802  H     0.01873   0.34792   0.96902   0.00000  Uiso   1.00
H1803  H     0.26073   0.64542   0.74401   0.00000  Uiso   1.00
H1804  H     0.24033   0.35809   0.77500   0.00000  Uiso   1.00
H1805  H     0.31748   0.47456   0.78558   0.00000  Uiso   1.00
H1806  H     0.30782   0.35686   0.69298   0.00000  Uiso   1.00
H1807  H     0.28765   0.40244   0.72384   0.00000  Uiso   1.00
H1808  H     0.31785   0.38689   0.77618   0.00000  Uiso   1.00
H1809  H     0.02636   0.39047   0.72978   0.00000  Uiso   1.00
H1810  H     0.00379   0.34024   0.74613   0.00000  Uiso   1.00
H1811  H     0.04364   0.66425   0.80653   0.00000  Uiso   1.00
H1812  H     0.07282   0.37452   0.78333   0.00000  Uiso   1.00
H1813  H     0.07449   0.34517   0.86158   0.00000  Uiso   1.00
H1814  H     0.11294   0.38658   0.83932   0.00000  Uiso   1.00
H1815  H     0.05187   0.42691   0.84317   0.00000  Uiso   1.00
H1816  H     0.10359   0.53490   0.57552   0.00000  Uiso   1.00
H1817  H     0.04965   0.41364   0.89104   0.00000  Uiso   1.00
H1818  H     0.01282   0.38504   0.86498   0.00000  Uiso   1.00
H1819  H     0.18107   0.57176   0.57905   0.00000  Uiso   1.00
H1820  H     0.19836   0.56262   0.62068   0.00000  Uiso   1.00
H1821  H     0.14846   0.58440   0.62866   0.00000  Uiso   1.00
H1822  H     0.27045   0.37141   0.58209   0.00000  Uiso   1.00
H1823  H     0.21802   0.37433   0.57600   0.00000  Uiso   1.00
H1824  H     0.24088   0.38674   0.65491   0.00000  Uiso   1.00
H1825  H     0.18843   0.39109   0.64885   0.00000  Uiso   1.00
H1826  H     0.18752   0.65120   0.61455   0.00000  Uiso   1.00
H1827  H     0.12043   0.63395   0.52586   0.00000  Uiso   1.00
H1828  H     0.18578   0.65490   0.66544   0.00000  Uiso   1.00
H1829  H     0.23626   0.64633   0.62773   0.00000  Uiso   1.00
H1830  H     0.18943   0.36987   0.51574   0.00000  Uiso   1.00
H1831  H     0.20726   0.33950   0.96945   0.00000  Uiso   1.00
H1832  H     0.15814   0.36387   0.98053   0.00000  Uiso   1.00
H1833  H     0.02083   0.55133   0.99232   0.00000  Uiso   1.00
H1834  H     0.02373   0.57455   0.94799   0.00000  Uiso   1.00
H1835  H     0.00317   0.60126   0.99604   0.00000  Uiso   1.00
H1836  H     0.12931   0.63616   0.85537   0.00000  Uiso   1.00
H1837  H     0.16646   0.60240   0.85701   0.00000  Uiso   1.00
H1838  H     0.12127   0.61483   0.57082   0.00000  Uiso   1.00
H1839  H     0.13345   0.33775   0.92264   0.00000  Uiso   1.00
H1840  H     0.17408   0.63802   0.92026   0.00000  Uiso   1.00
H1841  H     0.22058   0.66489   0.85631   0.00000  Uiso   1.00
H1842  H     0.21099   0.37172   0.89675   0.00000  Uiso   1.00
H1843  H     0.18104   0.36704   0.86096   0.00000  Uiso   1.00
H1844  H     0.26079   0.50395   0.90314   0.00000  Uiso   1.00
H1845  H     0.22998   0.54259   0.93509   0.00000  Uiso   1.00
H1846  H     0.25884   0.53537   0.84355   0.00000  Uiso   1.00
H1847  H     0.22928   0.57568   0.87563   0.00000  Uiso   1.00
H1848  H     0.29140   0.59788   0.90483   0.00000  Uiso   1.00
H1849  H     0.04613   0.65699   0.56242   0.00000  Uiso   1.00
H1850  H     0.30807   0.59982   0.85212   0.00000  Uiso   1.00
H1851  H     0.32133   0.55770   0.87224   0.00000  Uiso   1.00
H1852  H     0.10051   0.44775   0.94448   0.00000  Uiso   1.00
H1853  H     0.10678   0.40268   0.96582   0.00000  Uiso   1.00
H1854  H     0.11396   0.40106   0.91386   0.00000  Uiso   1.00
H1855  H     0.05104   0.64069   0.60673   0.00000  Uiso   1.00
H1856  H     0.11999   0.35727   0.60078   0.00000  Uiso   1.00
H1857  H     0.07271   0.38275   0.60541   0.00000  Uiso   1.00
O1858  O     0.16667   0.50000   0.75000   0.00000  Uiso   1.00
O1859  O     0.15693   0.45726   0.66625   0.00000  Uiso   1.00
O1860  O     0.12687   0.53979   0.83749   0.00000  Uiso   1.00
O1861  O     0.21088   0.50826   0.65877   0.00000  Uiso   1.00
O1862  O     0.17198   0.49468   0.83749   0.00000  Uiso   1.00
O1863  O     0.07432   0.58387   0.54417   0.00000  Uiso   1.00
O1864  O     0.27570   0.44261   0.51105   0.00000  Uiso   1.00
O1865  O     0.22236   0.34332   0.72279   0.00000  Uiso   1.00
O1866  O     0.10841   0.65818   0.78185   0.00000  Uiso   1.00
O1867  O     0.14548   0.52221   0.61024   0.00000  Uiso   1.00
O1868  O     0.25293   0.43078   0.59390   0.00000  Uiso   1.00
O1869  O     0.17849   0.41434   0.77821   0.00000  Uiso   1.00
O1870  O     0.21697   0.40243   0.96588   0.00000  Uiso   1.00
O1871  O     0.06972   0.60096   0.97735   0.00000  Uiso   1.00
O1872  O     0.10303   0.59582   0.89750   0.00000  Uiso   1.00
O1873  O     0.19815   0.49871   0.90002   0.00000  Uiso   1.00
O1874  O     0.16460   0.43353   0.93273   0.00000  Uiso   1.00
O1875  O     0.14581   0.59469   0.76767   0.00000  Uiso   1.00
O1876  O     0.07452   0.46584   0.73607   0.00000  Uiso   1.00
O1877  O     0.26785   0.52512   0.71806   0.00000  Uiso   1.00
O1878  O     0.06990   0.52293   0.77820   0.00000  Uiso   1.00
O1879  O     0.25440   0.48610   0.76768   0.00000  Uiso   1.00
O1880  O     0.13800   0.40236   0.73607   0.00000  Uiso   1.00
O1881  O     0.20437   0.58860   0.71805   0.00000  Uiso   1.00
Zn1882 Zn    0.19244   0.47423   0.78278   0.00000  Uiso   1.00
Zn1883 Zn    0.13459   0.45711   0.72258   0.00000  Uiso   1.00
Zn1884 Zn    0.21166   0.52997   0.71188   0.00000  Uiso   1.00
Zn1885 Zn    0.12798   0.53868   0.78277   0.00000  Uiso   1.00
C1886  C     0.38579   0.49337   0.75883   0.00000  Uiso   1.00
C1887  C     0.50612   0.45501   0.96661   0.00000  Uiso   1.00
C1888  C     0.53126   0.43785   0.98444   0.00000  Uiso   1.00
C1889  C     0.61445   0.50700   0.74114   0.00000  Uiso   1.00
C1890  C     0.53525   0.45555   0.52157   0.00000  Uiso   1.00
C1891  C     0.50578   0.48404   0.54472   0.00000  Uiso   1.00
C1892  C     0.56693   0.44340   0.53619   0.00000  Uiso   1.00
C1893  C     0.56024   0.44794   0.57725   0.00000  Uiso   1.00
C1894  C     0.50456   0.49380   0.58517   0.00000  Uiso   1.00
C1895  C     0.66065   0.50971   0.73749   0.00000  Uiso   1.00
C1896  C     0.34029   0.49136   0.76233   0.00000  Uiso   1.00
C1897  C     0.44856   0.56878   0.91783   0.00000  Uiso   1.00
C1898  C     0.51618   0.65669   0.74331   0.00000  Uiso   1.00
C1899  C     0.48235   0.34540   0.76274   0.00000  Uiso   1.00
C1900  C     0.48891   0.38963   0.75900   0.00000  Uiso   1.00
C1901  C     0.51054   0.61129   0.74222   0.00000  Uiso   1.00
C1902  C     0.52176   0.47865   0.64396   0.00000  Uiso   1.00
C1903  C     0.48031   0.52283   0.85590   0.00000  Uiso   1.00
C1904  C     0.47430   0.53651   0.89837   0.00000  Uiso   1.00
C1905  C     0.52854   0.47255   0.60140   0.00000  Uiso   1.00
C1906  C     0.43305   0.57309   0.95914   0.00000  Uiso   1.00
C1907  C     0.43317   0.62075   0.55339   0.00000  Uiso   1.00
C1908  C     0.49424   0.51763   0.91998   0.00000  Uiso   1.00
C1909  C     0.40304   0.65255   0.57811   0.00000  Uiso   1.00
C1910  C     0.42869   0.36102   0.58597   0.00000  Uiso   1.00
C1911  C     0.62236   0.40233   0.50113   0.00000  Uiso   1.00
C1912  C     0.66625   0.40295   0.50917   0.00000  Uiso   1.00
C1913  C     0.34814   0.35982   0.50048   0.00000  Uiso   1.00
C1914  C     0.58631   0.34407   0.74394   0.00000  Uiso   1.00
C1915  C     0.62820   0.37034   0.72404   0.00000  Uiso   1.00
C1916  C     0.66276   0.37202   0.74548   0.00000  Uiso   1.00
C1917  C     0.40866   0.35083   0.80157   0.00000  Uiso   1.00
C1918  C     0.41313   0.37014   0.84212   0.00000  Uiso   1.00
C1919  C     0.47714   0.51951   0.96164   0.00000  Uiso   1.00
C1920  C     0.37973   0.40082   0.86144   0.00000  Uiso   1.00
C1921  C     0.50321   0.56171   0.60928   0.00000  Uiso   1.00
C1922  C     0.57384   0.38733   0.59422   0.00000  Uiso   1.00
C1923  C     0.55203   0.37601   0.63617   0.00000  Uiso   1.00
C1924  C     0.53982   0.66251   0.63592   0.00000  Uiso   1.00
C1925  C     0.52485   0.36777   0.98394   0.00000  Uiso   1.00
C1926  C     0.36115   0.58074   0.97817   0.00000  Uiso   1.00
C1927  C     0.47336   0.62059   0.87585   0.00000  Uiso   1.00
C1928  C     0.49287   0.65350   0.90241   0.00000  Uiso   1.00
C1929  C     0.52849   0.34942   0.87754   0.00000  Uiso   1.00
C1930  C     0.44811   0.54933   0.98150   0.00000  Uiso   1.00
C1931  C     0.56892   0.52450   0.90538   0.00000  Uiso   1.00
C1932  C     0.58671   0.55379   0.87294   0.00000  Uiso   1.00
C1933  C     0.62955   0.57879   0.87582   0.00000  Uiso   1.00
C1934  C     0.45280   0.42102   0.94008   0.00000  Uiso   1.00
C1935  C     0.48931   0.49304   0.98385   0.00000  Uiso   1.00
C1936  C     0.48176   0.50284   0.52511   0.00000  Uiso   1.00
C1937  C     0.45087   0.53088   0.54417   0.00000  Uiso   1.00
C1938  C     0.43533   0.55482   0.52314   0.00000  Uiso   1.00
H1939  H     0.35080   0.52652   0.71458   0.00000  Uiso   1.00
H1940  H     0.44531   0.37471   0.55786   0.00000  Uiso   1.00
H1941  H     0.62726   0.39399   0.96896   0.00000  Uiso   1.00
H1942  H     0.59842   0.37765   0.51606   0.00000  Uiso   1.00
H1943  H     0.35763   0.42449   0.99036   0.00000  Uiso   1.00
H1944  H     0.66360   0.41455   0.54047   0.00000  Uiso   1.00
H1945  H     0.65747   0.33819   0.51968   0.00000  Uiso   1.00
H1946  H     0.37995   0.36124   0.50661   0.00000  Uiso   1.00
H1947  H     0.35206   0.34792   0.96902   0.00000  Uiso   1.00
H1948  H     0.59406   0.64542   0.74401   0.00000  Uiso   1.00
H1949  H     0.57366   0.35809   0.77500   0.00000  Uiso   1.00
H1950  H     0.65081   0.47456   0.78558   0.00000  Uiso   1.00
H1951  H     0.64115   0.35686   0.69298   0.00000  Uiso   1.00
H1952  H     0.62098   0.40244   0.72384   0.00000  Uiso   1.00
H1953  H     0.65119   0.38689   0.77618   0.00000  Uiso   1.00
H1954  H     0.35969   0.39047   0.72978   0.00000  Uiso   1.00
H1955  H     0.33712   0.34024   0.74613   0.00000  Uiso   1.00
H1956  H     0.37697   0.66425   0.80653   0.00000  Uiso   1.00
H1957  H     0.40615   0.37452   0.78333   0.00000  Uiso   1.00
H1958  H     0.40782   0.34517   0.86158   0.00000  Uiso   1.00
H1959  H     0.44627   0.38658   0.83932   0.00000  Uiso   1.00
H1960  H     0.38520   0.42691   0.84317   0.00000  Uiso   1.00
H1961  H     0.43692   0.53490   0.57552   0.00000  Uiso   1.00
H1962  H     0.38298   0.41364   0.89104   0.00000  Uiso   1.00
H1963  H     0.34616   0.38504   0.86498   0.00000  Uiso   1.00
H1964  H     0.51440   0.57176   0.57905   0.00000  Uiso   1.00
H1965  H     0.53169   0.56262   0.62068   0.00000  Uiso   1.00
H1966  H     0.48180   0.58440   0.62866   0.00000  Uiso   1.00
H1967  H     0.60378   0.37141   0.58209   0.00000  Uiso   1.00
H1968  H     0.55135   0.37433   0.57600   0.00000  Uiso   1.00
H1969  H     0.57421   0.38674   0.65491   0.00000  Uiso   1.00
H1970  H     0.52176   0.39109   0.64885   0.00000  Uiso   1.00
H1971  H     0.52086   0.65120   0.61455   0.00000  Uiso   1.00
H1972  H     0.45377   0.63395   0.52586   0.00000  Uiso   1.00
H1973  H     0.51911   0.65490   0.66544   0.00000  Uiso   1.00
H1974  H     0.56959   0.64633   0.62773   0.00000  Uiso   1.00
H1975  H     0.52276   0.36987   0.51574   0.00000  Uiso   1.00
H1976  H     0.54060   0.33950   0.96945   0.00000  Uiso   1.00
H1977  H     0.49147   0.36387   0.98053   0.00000  Uiso   1.00
H1978  H     0.35416   0.55133   0.99232   0.00000  Uiso   1.00
H1979  H     0.35706   0.57455   0.94799   0.00000  Uiso   1.00
H1980  H     0.33650   0.60126   0.99604   0.00000  Uiso   1.00
H1981  H     0.46265   0.63616   0.85537   0.00000  Uiso   1.00
H1982  H     0.49980   0.60240   0.85701   0.00000  Uiso   1.00
H1983  H     0.45460   0.61483   0.57082   0.00000  Uiso   1.00
H1984  H     0.46678   0.33775   0.92264   0.00000  Uiso   1.00
H1985  H     0.50742   0.63802   0.92026   0.00000  Uiso   1.00
H1986  H     0.55391   0.66489   0.85631   0.00000  Uiso   1.00
H1987  H     0.54432   0.37172   0.89675   0.00000  Uiso   1.00
H1988  H     0.51437   0.36704   0.86096   0.00000  Uiso   1.00
H1989  H     0.59412   0.50395   0.90314   0.00000  Uiso   1.00
H1990  H     0.56332   0.54259   0.93509   0.00000  Uiso   1.00
H1991  H     0.59218   0.53537   0.84355   0.00000  Uiso   1.00
H1992  H     0.56261   0.57568   0.87563   0.00000  Uiso   1.00
H1993  H     0.62474   0.59788   0.90483   0.00000  Uiso   1.00
H1994  H     0.37946   0.65699   0.56242   0.00000  Uiso   1.00
H1995  H     0.64140   0.59982   0.85212   0.00000  Uiso   1.00
H1996  H     0.65466   0.55770   0.87224   0.00000  Uiso   1.00
H1997  H     0.43385   0.44775   0.94448   0.00000  Uiso   1.00
H1998  H     0.44011   0.40268   0.96582   0.00000  Uiso   1.00
H1999  H     0.44729   0.40106   0.91386   0.00000  Uiso   1.00
H2000  H     0.38437   0.64069   0.60673   0.00000  Uiso   1.00
H2001  H     0.45332   0.35727   0.60078   0.00000  Uiso   1.00
H2002  H     0.40604   0.38275   0.60541   0.00000  Uiso   1.00
O2003  O     0.50000   0.50000   0.75000   0.00000  Uiso   1.00
O2004  O     0.49027   0.45726   0.66625   0.00000  Uiso   1.00
O2005  O     0.46020   0.53979   0.83749   0.00000  Uiso   1.00
O2006  O     0.54421   0.50826   0.65877   0.00000  Uiso   1.00
O2007  O     0.50532   0.49468   0.83749   0.00000  Uiso   1.00
O2008  O     0.40766   0.58387   0.54417   0.00000  Uiso   1.00
O2009  O     0.60904   0.44261   0.51105   0.00000  Uiso   1.00
O2010  O     0.55570   0.34332   0.72279   0.00000  Uiso   1.00
O2011  O     0.44174   0.65818   0.78185   0.00000  Uiso   1.00
O2012  O     0.47882   0.52221   0.61024   0.00000  Uiso   1.00
O2013  O     0.58626   0.43078   0.59390   0.00000  Uiso   1.00
O2014  O     0.51182   0.41434   0.77821   0.00000  Uiso   1.00
O2015  O     0.55030   0.40243   0.96588   0.00000  Uiso   1.00
O2016  O     0.40305   0.60096   0.97735   0.00000  Uiso   1.00
O2017  O     0.43637   0.59582   0.89750   0.00000  Uiso   1.00
O2018  O     0.53149   0.49871   0.90002   0.00000  Uiso   1.00
O2019  O     0.49793   0.43353   0.93273   0.00000  Uiso   1.00
O2020  O     0.47914   0.59469   0.76767   0.00000  Uiso   1.00
O2021  O     0.40785   0.46584   0.73607   0.00000  Uiso   1.00
O2022  O     0.60119   0.52512   0.71806   0.00000  Uiso   1.00
O2023  O     0.40323   0.52293   0.77820   0.00000  Uiso   1.00
O2024  O     0.58773   0.48610   0.76768   0.00000  Uiso   1.00
O2025  O     0.47133   0.40236   0.73607   0.00000  Uiso   1.00
O2026  O     0.53771   0.58860   0.71805   0.00000  Uiso   1.00
Zn2027 Zn    0.52577   0.47423   0.78278   0.00000  Uiso   1.00
Zn2028 Zn    0.46792   0.45711   0.72258   0.00000  Uiso   1.00
Zn2029 Zn    0.54500   0.52997   0.71188   0.00000  Uiso   1.00
Zn2030 Zn    0.46131   0.53868   0.78277   0.00000  Uiso   1.00
C2031  C     0.71913   0.49337   0.75883   0.00000  Uiso   1.00
C2032  C     0.83946   0.45501   0.96661   0.00000  Uiso   1.00
C2033  C     0.86459   0.43785   0.98444   0.00000  Uiso   1.00
C2034  C     0.94779   0.50700   0.74114   0.00000  Uiso   1.00
C2035  C     0.86858   0.45555   0.52157   0.00000  Uiso   1.00
C2036  C     0.83911   0.48404   0.54472   0.00000  Uiso   1.00
C2037  C     0.90026   0.44340   0.53619   0.00000  Uiso   1.00
C2038  C     0.89357   0.44794   0.57725   0.00000  Uiso   1.00
C2039  C     0.83790   0.49380   0.58517   0.00000  Uiso   1.00
C2040  C     0.99398   0.50971   0.73749   0.00000  Uiso   1.00
C2041  C     0.67362   0.49136   0.76233   0.00000  Uiso   1.00
C2042  C     0.78189   0.56878   0.91783   0.00000  Uiso   1.00
C2043  C     0.84951   0.65669   0.74331   0.00000  Uiso   1.00
C2044  C     0.81569   0.34540   0.76274   0.00000  Uiso   1.00
C2045  C     0.82224   0.38963   0.75900   0.00000  Uiso   1.00
C2046  C     0.84388   0.61129   0.74222   0.00000  Uiso   1.00
C2047  C     0.85509   0.47865   0.64396   0.00000  Uiso   1.00
C2048  C     0.81364   0.52283   0.85590   0.00000  Uiso   1.00
C2049  C     0.80764   0.53651   0.89837   0.00000  Uiso   1.00
C2050  C     0.86187   0.47255   0.60140   0.00000  Uiso   1.00
C2051  C     0.76638   0.57309   0.95914   0.00000  Uiso   1.00
C2052  C     0.76650   0.62075   0.55339   0.00000  Uiso   1.00
C2053  C     0.82758   0.51763   0.91998   0.00000  Uiso   1.00
C2054  C     0.73637   0.65255   0.57811   0.00000  Uiso   1.00
C2055  C     0.76202   0.36102   0.58597   0.00000  Uiso   1.00
C2056  C     0.95569   0.40233   0.50113   0.00000  Uiso   1.00
C2057  C     0.99959   0.40295   0.50917   0.00000  Uiso   1.00
C2058  C     0.68147   0.35982   0.50048   0.00000  Uiso   1.00
C2059  C     0.91964   0.34407   0.74394   0.00000  Uiso   1.00
C2060  C     0.96154   0.37034   0.72404   0.00000  Uiso   1.00
C2061  C     0.99610   0.37202   0.74548   0.00000  Uiso   1.00
C2062  C     0.74199   0.35083   0.80157   0.00000  Uiso   1.00
C2063  C     0.74647   0.37014   0.84212   0.00000  Uiso   1.00
C2064  C     0.81047   0.51951   0.96164   0.00000  Uiso   1.00
C2065  C     0.71307   0.40082   0.86144   0.00000  Uiso   1.00
C2066  C     0.83654   0.56171   0.60928   0.00000  Uiso   1.00
C2067  C     0.90717   0.38733   0.59422   0.00000  Uiso   1.00
C2068  C     0.88536   0.37601   0.63617   0.00000  Uiso   1.00
C2069  C     0.87316   0.66251   0.63592   0.00000  Uiso   1.00
C2070  C     0.85819   0.36777   0.98394   0.00000  Uiso   1.00
C2071  C     0.69449   0.58074   0.97817   0.00000  Uiso   1.00
C2072  C     0.80669   0.62059   0.87585   0.00000  Uiso   1.00
C2073  C     0.82621   0.65350   0.90241   0.00000  Uiso   1.00
C2074  C     0.86182   0.34942   0.87754   0.00000  Uiso   1.00
C2075  C     0.78145   0.54933   0.98150   0.00000  Uiso   1.00
C2076  C     0.90226   0.52450   0.90538   0.00000  Uiso   1.00
C2077  C     0.92004   0.55379   0.87294   0.00000  Uiso   1.00
C2078  C     0.96288   0.57879   0.87582   0.00000  Uiso   1.00
C2079  C     0.78613   0.42102   0.94008   0.00000  Uiso   1.00
C2080  C     0.82264   0.49304   0.98385   0.00000  Uiso   1.00
C2081  C     0.81509   0.50284   0.52511   0.00000  Uiso   1.00
C2082  C     0.78421   0.53088   0.54417   0.00000  Uiso   1.00
C2083  C     0.76867   0.55482   0.52314   0.00000  Uiso   1.00
H2084  H     0.68414   0.52652   0.71458   0.00000  Uiso   1.00
H2085  H     0.77864   0.37471   0.55786   0.00000  Uiso   1.00
H2086  H     0.96059   0.39399   0.96896   0.00000  Uiso   1.00
H2087  H     0.93176   0.37765   0.51606   0.00000  Uiso   1.00
H2088  H     0.69096   0.42449   0.99036   0.00000  Uiso   1.00
H2089  H     0.99693   0.41455   0.54047   0.00000  Uiso   1.00
H2090  H     0.99080   0.33819   0.51968   0.00000  Uiso   1.00
H2091  H     0.71329   0.36124   0.50661   0.00000  Uiso   1.00
H2092  H     0.68540   0.34792   0.96902   0.00000  Uiso   1.00
H2093  H     0.92739   0.64542   0.74401   0.00000  Uiso   1.00
H2094  H     0.90700   0.35809   0.77500   0.00000  Uiso   1.00
H2095  H     0.98415   0.47456   0.78558   0.00000  Uiso   1.00
H2096  H     0.97449   0.35686   0.69298   0.00000  Uiso   1.00
H2097  H     0.95431   0.40244   0.72384   0.00000  Uiso   1.00
H2098  H     0.98452   0.38689   0.77618   0.00000  Uiso   1.00
H2099  H     0.69302   0.39047   0.72978   0.00000  Uiso   1.00
H2100  H     0.67045   0.34024   0.74613   0.00000  Uiso   1.00
H2101  H     0.71031   0.66425   0.80653   0.00000  Uiso   1.00
H2102  H     0.73948   0.37452   0.78333   0.00000  Uiso   1.00
H2103  H     0.74116   0.34517   0.86158   0.00000  Uiso   1.00
H2104  H     0.77961   0.38658   0.83932   0.00000  Uiso   1.00
H2105  H     0.71853   0.42691   0.84317   0.00000  Uiso   1.00
H2106  H     0.77025   0.53490   0.57552   0.00000  Uiso   1.00
H2107  H     0.71632   0.41364   0.89104   0.00000  Uiso   1.00
H2108  H     0.67949   0.38504   0.86498   0.00000  Uiso   1.00
H2109  H     0.84773   0.57176   0.57905   0.00000  Uiso   1.00
H2110  H     0.86502   0.56262   0.62068   0.00000  Uiso   1.00
H2111  H     0.81513   0.58440   0.62866   0.00000  Uiso   1.00
H2112  H     0.93711   0.37141   0.58209   0.00000  Uiso   1.00
H2113  H     0.88469   0.37433   0.57600   0.00000  Uiso   1.00
H2114  H     0.90754   0.38674   0.65491   0.00000  Uiso   1.00
H2115  H     0.85510   0.39109   0.64885   0.00000  Uiso   1.00
H2116  H     0.85419   0.65120   0.61455   0.00000  Uiso   1.00
H2117  H     0.78710   0.63395   0.52586   0.00000  Uiso   1.00
H2118  H     0.85244   0.65490   0.66544   0.00000  Uiso   1.00
H2119  H     0.90292   0.64633   0.62773   0.00000  Uiso   1.00
H2120  H     0.85609   0.36987   0.51574   0.00000  Uiso   1.00
H2121  H     0.87393   0.33950   0.96945   0.00000  Uiso   1.00
H2122  H     0.82481   0.36387   0.98053   0.00000  Uiso   1.00
H2123  H     0.68750   0.55133   0.99232   0.00000  Uiso   1.00
H2124  H     0.69040   0.57455   0.94799   0.00000  Uiso   1.00
H2125  H     0.66983   0.60126   0.99604   0.00000  Uiso   1.00
H2126  H     0.79598   0.63616   0.85537   0.00000  Uiso   1.00
H2127  H     0.83313   0.60240   0.85701   0.00000  Uiso   1.00
H2128  H     0.78793   0.61483   0.57082   0.00000  Uiso   1.00
H2129  H     0.80011   0.33775   0.92264   0.00000  Uiso   1.00
H2130  H     0.84075   0.63802   0.92026   0.00000  Uiso   1.00
H2131  H     0.88725   0.66489   0.85631   0.00000  Uiso   1.00
H2132  H     0.87765   0.37172   0.89675   0.00000  Uiso   1.00
H2133  H     0.84771   0.36704   0.86096   0.00000  Uiso   1.00
H2134  H     0.92745   0.50395   0.90314   0.00000  Uiso   1.00
H2135  H     0.89665   0.54259   0.93509   0.00000  Uiso   1.00
H2136  H     0.92551   0.53537   0.84355   0.00000  Uiso   1.00
H2137  H     0.89595   0.57568   0.87563   0.00000  Uiso   1.00
H2138  H     0.95807   0.59788   0.90483   0.00000  Uiso   1.00
H2139  H     0.71279   0.65699   0.56242   0.00000  Uiso   1.00
H2140  H     0.97473   0.59982   0.85212   0.00000  Uiso   1.00
H2141  H     0.98799   0.55770   0.87224   0.00000  Uiso   1.00
H2142  H     0.76718   0.44775   0.94448   0.00000  Uiso   1.00
H2143  H     0.77345   0.40268   0.96582   0.00000  Uiso   1.00
H2144  H     0.78062   0.40106   0.91386   0.00000  Uiso   1.00
H2145  H     0.71771   0.64069   0.60673   0.00000  Uiso   1.00
H2146  H     0.78665   0.35727   0.60078   0.00000  Uiso   1.00
H2147  H     0.73938   0.38275   0.60541   0.00000  Uiso   1.00
O2148  O     0.83333   0.50000   0.75000   0.00000  Uiso   1.00
O2149  O     0.82360   0.45726   0.66625   0.00000  Uiso   1.00
O2150  O     0.79354   0.53979   0.83749   0.00000  Uiso   1.00
O2151  O     0.87755   0.50826   0.65877   0.00000  Uiso   1.00
O2152  O     0.83865   0.49468   0.83749   0.00000  Uiso   1.00
O2153  O     0.74099   0.58387   0.54417   0.00000  Uiso   1.00
O2154  O     0.94237   0.44261   0.51105   0.00000  Uiso   1.00
O2155  O     0.88903   0.34332   0.72279   0.00000  Uiso   1.00
O2156  O     0.77507   0.65818   0.78185   0.00000  Uiso   1.00
O2157  O     0.81215   0.52221   0.61024   0.00000  Uiso   1.00
O2158  O     0.91959   0.43078   0.59390   0.00000  Uiso   1.00
O2159  O     0.84515   0.41434   0.77821   0.00000  Uiso   1.00
O2160  O     0.88363   0.40243   0.96588   0.00000  Uiso   1.00
O2161  O     0.73638   0.60096   0.97735   0.00000  Uiso   1.00
O2162  O     0.76970   0.59582   0.89750   0.00000  Uiso   1.00
O2163  O     0.86482   0.49871   0.90002   0.00000  Uiso   1.00
O2164  O     0.83127   0.43353   0.93273   0.00000  Uiso   1.00
O2165  O     0.81247   0.59469   0.76767   0.00000  Uiso   1.00
O2166  O     0.74119   0.46584   0.73607   0.00000  Uiso   1.00
O2167  O     0.93452   0.52512   0.71806   0.00000  Uiso   1.00
O2168  O     0.73656   0.52293   0.77820   0.00000  Uiso   1.00
O2169  O     0.92106   0.48610   0.76768   0.00000  Uiso   1.00
O2170  O     0.80467   0.40236   0.73607   0.00000  Uiso   1.00
O2171  O     0.87104   0.58860   0.71805   0.00000  Uiso   1.00
Zn2172 Zn    0.85910   0.47423   0.78278   0.00000  Uiso   1.00
Zn2173 Zn    0.80125   0.45711   0.72258   0.00000  Uiso   1.00
Zn2174 Zn    0.87833   0.52997   0.71188   0.00000  Uiso   1.00
Zn2175 Zn    0.79465   0.53868   0.78277   0.00000  Uiso   1.00
C2176  C     0.05246   0.82670   0.75883   0.00000  Uiso   1.00
C2177  C     0.17279   0.78835   0.96661   0.00000  Uiso   1.00
C2178  C     0.19792   0.77118   0.98444   0.00000  Uiso   1.00
C2179  C     0.28112   0.84034   0.74114   0.00000  Uiso   1.00
C2180  C     0.20192   0.78888   0.52157   0.00000  Uiso   1.00
C2181  C     0.17245   0.81737   0.54472   0.00000  Uiso   1.00
C2182  C     0.23359   0.77673   0.53619   0.00000  Uiso   1.00
C2183  C     0.22690   0.78128   0.57725   0.00000  Uiso   1.00
C2184  C     0.17123   0.82713   0.58517   0.00000  Uiso   1.00
C2185  C     0.32732   0.84304   0.73749   0.00000  Uiso   1.00
C2186  C     0.00696   0.82469   0.76233   0.00000  Uiso   1.00
C2187  C     0.11523   0.90211   0.91783   0.00000  Uiso   1.00
C2188  C     0.18284   0.99002   0.74331   0.00000  Uiso   1.00
C2189  C     0.14902   0.67874   0.76274   0.00000  Uiso   1.00
C2190  C     0.15557   0.72297   0.75900   0.00000  Uiso   1.00
C2191  C     0.17721   0.94462   0.74222   0.00000  Uiso   1.00
C2192  C     0.18842   0.81198   0.64396   0.00000  Uiso   1.00
C2193  C     0.14698   0.85617   0.85590   0.00000  Uiso   1.00
C2194  C     0.14097   0.86985   0.89837   0.00000  Uiso   1.00
C2195  C     0.19521   0.80588   0.60140   0.00000  Uiso   1.00
C2196  C     0.09972   0.90643   0.95914   0.00000  Uiso   1.00
C2197  C     0.09983   0.95408   0.55339   0.00000  Uiso   1.00
C2198  C     0.16091   0.85096   0.91998   0.00000  Uiso   1.00
C2199  C     0.06971   0.98589   0.57811   0.00000  Uiso   1.00
C2200  C     0.09535   0.69435   0.58597   0.00000  Uiso   1.00
C2201  C     0.28903   0.73566   0.50113   0.00000  Uiso   1.00
C2202  C     0.33292   0.73628   0.50917   0.00000  Uiso   1.00
C2203  C     0.01480   0.69315   0.50048   0.00000  Uiso   1.00
C2204  C     0.25298   0.67741   0.74394   0.00000  Uiso   1.00
C2205  C     0.29487   0.70368   0.72404   0.00000  Uiso   1.00
C2206  C     0.32943   0.70535   0.74548   0.00000  Uiso   1.00
C2207  C     0.07533   0.68417   0.80157   0.00000  Uiso   1.00
C2208  C     0.07980   0.70347   0.84212   0.00000  Uiso   1.00
C2209  C     0.14381   0.85285   0.96164   0.00000  Uiso   1.00
C2210  C     0.04640   0.73416   0.86144   0.00000  Uiso   1.00
C2211  C     0.16987   0.89504   0.60928   0.00000  Uiso   1.00
C2212  C     0.24051   0.72067   0.59422   0.00000  Uiso   1.00
C2213  C     0.21869   0.70934   0.63617   0.00000  Uiso   1.00
C2214  C     0.20649   0.99585   0.63592   0.00000  Uiso   1.00
C2215  C     0.19152   0.70110   0.98394   0.00000  Uiso   1.00
C2216  C     0.02782   0.91408   0.97817   0.00000  Uiso   1.00
C2217  C     0.14003   0.95392   0.87585   0.00000  Uiso   1.00
C2218  C     0.15954   0.98683   0.90241   0.00000  Uiso   1.00
C2219  C     0.19515   0.68275   0.87754   0.00000  Uiso   1.00
C2220  C     0.11478   0.88267   0.98150   0.00000  Uiso   1.00
C2221  C     0.23559   0.85783   0.90538   0.00000  Uiso   1.00
C2222  C     0.25337   0.88712   0.87294   0.00000  Uiso   1.00
C2223  C     0.29622   0.91213   0.87582   0.00000  Uiso   1.00
C2224  C     0.11947   0.75435   0.94008   0.00000  Uiso   1.00
C2225  C     0.15598   0.82637   0.98385   0.00000  Uiso   1.00
C2226  C     0.14842   0.83617   0.52511   0.00000  Uiso   1.00
C2227  C     0.11754   0.86421   0.54417   0.00000  Uiso   1.00
C2228  C     0.10200   0.88816   0.52314   0.00000  Uiso   1.00
H2229  H     0.01747   0.85986   0.71458   0.00000  Uiso   1.00
H2230  H     0.11198   0.70805   0.55786   0.00000  Uiso   1.00
H2231  H     0.29392   0.72732   0.96896   0.00000  Uiso   1.00
H2232  H     0.26509   0.71098   0.51606   0.00000  Uiso   1.00
H2233  H     0.02430   0.75782   0.99036   0.00000  Uiso   1.00
H2234  H     0.33026   0.74789   0.54047   0.00000  Uiso   1.00
H2235  H     0.32414   0.67152   0.51968   0.00000  Uiso   1.00
H2236  H     0.04662   0.69457   0.50661   0.00000  Uiso   1.00
H2237  H     0.01873   0.68125   0.96902   0.00000  Uiso   1.00
H2238  H     0.26073   0.97875   0.74401   0.00000  Uiso   1.00
H2239  H     0.24033   0.69142   0.77500   0.00000  Uiso   1.00
H2240  H     0.31748   0.80789   0.78558   0.00000  Uiso   1.00
H2241  H     0.30782   0.69020   0.69298   0.00000  Uiso   1.00
H2242  H     0.28765   0.73578   0.72384   0.00000  Uiso   1.00
H2243  H     0.31785   0.72022   0.77618   0.00000  Uiso   1.00
H2244  H     0.02636   0.72381   0.72978   0.00000  Uiso   1.00
H2245  H     0.00379   0.67357   0.74613   0.00000  Uiso   1.00
H2246  H     0.04364   0.99758   0.80653   0.00000  Uiso   1.00
H2247  H     0.07282   0.70785   0.78333   0.00000  Uiso   1.00
H2248  H     0.07449   0.67851   0.86158   0.00000  Uiso   1.00
H2249  H     0.11294   0.71992   0.83932   0.00000  Uiso   1.00
H2250  H     0.05187   0.76025   0.84317   0.00000  Uiso   1.00
H2251  H     0.10359   0.86823   0.57552   0.00000  Uiso   1.00
H2252  H     0.04965   0.74698   0.89104   0.00000  Uiso   1.00
H2253  H     0.01282   0.71837   0.86498   0.00000  Uiso   1.00
H2254  H     0.18107   0.90509   0.57905   0.00000  Uiso   1.00
H2255  H     0.19836   0.89596   0.62068   0.00000  Uiso   1.00
H2256  H     0.14846   0.91774   0.62866   0.00000  Uiso   1.00
H2257  H     0.27045   0.70474   0.58209   0.00000  Uiso   1.00
H2258  H     0.21802   0.70766   0.57600   0.00000  Uiso   1.00
H2259  H     0.24088   0.72007   0.65491   0.00000  Uiso   1.00
H2260  H     0.18843   0.72442   0.64885   0.00000  Uiso   1.00
H2261  H     0.18752   0.98453   0.61455   0.00000  Uiso   1.00
H2262  H     0.12043   0.96729   0.52586   0.00000  Uiso   1.00
H2263  H     0.18578   0.98823   0.66544   0.00000  Uiso   1.00
H2264  H     0.23626   0.97966   0.62773   0.00000  Uiso   1.00
H2265  H     0.18943   0.70320   0.51574   0.00000  Uiso   1.00
H2266  H     0.20726   0.67283   0.96945   0.00000  Uiso   1.00
H2267  H     0.15814   0.69720   0.98053   0.00000  Uiso   1.00
H2268  H     0.02083   0.88467   0.99232   0.00000  Uiso   1.00
H2269  H     0.02373   0.90789   0.94799   0.00000  Uiso   1.00
H2270  H     0.00317   0.93459   0.99604   0.00000  Uiso   1.00
H2271  H     0.12931   0.96949   0.85537   0.00000  Uiso   1.00
H2272  H     0.16646   0.93574   0.85701   0.00000  Uiso   1.00
H2273  H     0.12127   0.94816   0.57082   0.00000  Uiso   1.00
H2274  H     0.13345   0.67108   0.92264   0.00000  Uiso   1.00
H2275  H     0.17408   0.97135   0.92026   0.00000  Uiso   1.00
H2276  H     0.22058   0.99822   0.85631   0.00000  Uiso   1.00
H2277  H     0.21099   0.70506   0.89675   0.00000  Uiso   1.00
H2278  H     0.18104   0.70037   0.86096   0.00000  Uiso   1.00
H2279  H     0.26079   0.83729   0.90314   0.00000  Uiso   1.00
H2280  H     0.22998   0.87593   0.93509   0.00000  Uiso   1.00
H2281  H     0.25884   0.86870   0.84355   0.00000  Uiso   1.00
H2282  H     0.22928   0.90901   0.87563   0.00000  Uiso   1.00
H2283  H     0.29140   0.93122   0.90483   0.00000  Uiso   1.00
H2284  H     0.04613   0.99032   0.56242   0.00000  Uiso   1.00
H2285  H     0.30807   0.93315   0.85212   0.00000  Uiso   1.00
H2286  H     0.32133   0.89103   0.87224   0.00000  Uiso   1.00
H2287  H     0.10051   0.78109   0.94448   0.00000  Uiso   1.00
H2288  H     0.10678   0.73602   0.96582   0.00000  Uiso   1.00
H2289  H     0.11396   0.73440   0.91386   0.00000  Uiso   1.00
H2290  H     0.05104   0.97402   0.60673   0.00000  Uiso   1.00
H2291  H     0.11999   0.69060   0.60078   0.00000  Uiso   1.00
H2292  H     0.07271   0.71608   0.60541   0.00000  Uiso   1.00
O2293  O     0.16667   0.83333   0.75000   0.00000  Uiso   1.00
O2294  O     0.15693   0.79060   0.66625   0.00000  Uiso   1.00
O2295  O     0.12687   0.87313   0.83749   0.00000  Uiso   1.00
O2296  O     0.21088   0.84159   0.65877   0.00000  Uiso   1.00
O2297  O     0.17198   0.82802   0.83749   0.00000  Uiso   1.00
O2298  O     0.07432   0.91720   0.54417   0.00000  Uiso   1.00
O2299  O     0.27570   0.77594   0.51105   0.00000  Uiso   1.00
O2300  O     0.22236   0.67665   0.72279   0.00000  Uiso   1.00
O2301  O     0.10841   0.99151   0.78185   0.00000  Uiso   1.00
O2302  O     0.14548   0.85554   0.61024   0.00000  Uiso   1.00
O2303  O     0.25293   0.76411   0.59390   0.00000  Uiso   1.00
O2304  O     0.17849   0.74768   0.77821   0.00000  Uiso   1.00
O2305  O     0.21697   0.73576   0.96588   0.00000  Uiso   1.00
O2306  O     0.06972   0.93429   0.97735   0.00000  Uiso   1.00
O2307  O     0.10303   0.92915   0.89750   0.00000  Uiso   1.00
O2308  O     0.19815   0.83204   0.90002   0.00000  Uiso   1.00
O2309  O     0.16460   0.76686   0.93273   0.00000  Uiso   1.00
O2310  O     0.14581   0.92803   0.76767   0.00000  Uiso   1.00
O2311  O     0.07452   0.79917   0.73607   0.00000  Uiso   1.00
O2312  O     0.26785   0.85845   0.71806   0.00000  Uiso   1.00
O2313  O     0.06990   0.85627   0.77820   0.00000  Uiso   1.00
O2314  O     0.25440   0.81944   0.76768   0.00000  Uiso   1.00
O2315  O     0.13800   0.73570   0.73607   0.00000  Uiso   1.00
O2316  O     0.20437   0.92193   0.71805   0.00000  Uiso   1.00
Zn2317 Zn    0.19244   0.80756   0.78278   0.00000  Uiso   1.00
Zn2318 Zn    0.13459   0.79044   0.72258   0.00000  Uiso   1.00
Zn2319 Zn    0.21166   0.86331   0.71188   0.00000  Uiso   1.00
Zn2320 Zn    0.12798   0.87202   0.78277   0.00000  Uiso   1.00
C2321  C     0.38579   0.82670   0.75883   0.00000  Uiso   1.00
C2322  C     0.50612   0.78835   0.96661   0.00000  Uiso   1.00
C2323  C     0.53126   0.77118   0.98444   0.00000  Uiso   1.00
C2324  C     0.61445   0.84034   0.74114   0.00000  Uiso   1.00
C2325  C     0.53525   0.78888   0.52157   0.00000  Uiso   1.00
C2326  C     0.50578   0.81737   0.54472   0.00000  Uiso   1.00
C2327  C     0.56693   0.77673   0.53619   0.00000  Uiso   1.00
C2328  C     0.56024   0.78128   0.57725   0.00000  Uiso   1.00
C2329  C     0.50456   0.82713   0.58517   0.00000  Uiso   1.00
C2330  C     0.66065   0.84304   0.73749   0.00000  Uiso   1.00
C2331  C     0.34029   0.82469   0.76233   0.00000  Uiso   1.00
C2332  C     0.44856   0.90211   0.91783   0.00000  Uiso   1.00
C2333  C     0.51618   0.99002   0.74331   0.00000  Uiso   1.00
C2334  C     0.48235   0.67874   0.76274   0.00000  Uiso   1.00
C2335  C     0.48891   0.72297   0.75900   0.00000  Uiso   1.00
C2336  C     0.51054   0.94462   0.74222   0.00000  Uiso   1.00
C2337  C     0.52176   0.81198   0.64396   0.00000  Uiso   1.00
C2338  C     0.48031   0.85617   0.85590   0.00000  Uiso   1.00
C2339  C     0.47430   0.86985   0.89837   0.00000  Uiso   1.00
C2340  C     0.52854   0.80588   0.60140   0.00000  Uiso   1.00
C2341  C     0.43305   0.90643   0.95914   0.00000  Uiso   1.00
C2342  C     0.43317   0.95408   0.55339   0.00000  Uiso   1.00
C2343  C     0.49424   0.85096   0.91998   0.00000  Uiso   1.00
C2344  C     0.40304   0.98589   0.57811   0.00000  Uiso   1.00
C2345  C     0.42869   0.69435   0.58597   0.00000  Uiso   1.00
C2346  C     0.62236   0.73566   0.50113   0.00000  Uiso   1.00
C2347  C     0.66625   0.73628   0.50917   0.00000  Uiso   1.00
C2348  C     0.34814   0.69315   0.50048   0.00000  Uiso   1.00
C2349  C     0.58631   0.67741   0.74394   0.00000  Uiso   1.00
C2350  C     0.62820   0.70368   0.72404   0.00000  Uiso   1.00
C2351  C     0.66276   0.70535   0.74548   0.00000  Uiso   1.00
C2352  C     0.40866   0.68417   0.80157   0.00000  Uiso   1.00
C2353  C     0.41313   0.70347   0.84212   0.00000  Uiso   1.00
C2354  C     0.47714   0.85285   0.96164   0.00000  Uiso   1.00
C2355  C     0.37973   0.73416   0.86144   0.00000  Uiso   1.00
C2356  C     0.50321   0.89504   0.60928   0.00000  Uiso   1.00
C2357  C     0.57384   0.72067   0.59422   0.00000  Uiso   1.00
C2358  C     0.55203   0.70934   0.63617   0.00000  Uiso   1.00
C2359  C     0.53982   0.99585   0.63592   0.00000  Uiso   1.00
C2360  C     0.52485   0.70110   0.98394   0.00000  Uiso   1.00
C2361  C     0.36115   0.91408   0.97817   0.00000  Uiso   1.00
C2362  C     0.47336   0.95392   0.87585   0.00000  Uiso   1.00
C2363  C     0.49287   0.98683   0.90241   0.00000  Uiso   1.00
C2364  C     0.52849   0.68275   0.87754   0.00000  Uiso   1.00
C2365  C     0.44811   0.88267   0.98150   0.00000  Uiso   1.00
C2366  C     0.56892   0.85783   0.90538   0.00000  Uiso   1.00
C2367  C     0.58671   0.88712   0.87294   0.00000  Uiso   1.00
C2368  C     0.62955   0.91213   0.87582   0.00000  Uiso   1.00
C2369  C     0.45280   0.75435   0.94008   0.00000  Uiso   1.00
C2370  C     0.48931   0.82637   0.98385   0.00000  Uiso   1.00
C2371  C     0.48176   0.83617   0.52511   0.00000  Uiso   1.00
C2372  C     0.45087   0.86421   0.54417   0.00000  Uiso   1.00
C2373  C     0.43533   0.88816   0.52314   0.00000  Uiso   1.00
H2374  H     0.35080   0.85986   0.71458   0.00000  Uiso   1.00
H2375  H     0.44531   0.70805   0.55786   0.00000  Uiso   1.00
H2376  H     0.62726   0.72732   0.96896   0.00000  Uiso   1.00
H2377  H     0.59842   0.71098   0.51606   0.00000  Uiso   1.00
H2378  H     0.35763   0.75782   0.99036   0.00000  Uiso   1.00
H2379  H     0.66360   0.74789   0.54047   0.00000  Uiso   1.00
H2380  H     0.65747   0.67152   0.51968   0.00000  Uiso   1.00
H2381  H     0.37995   0.69457   0.50661   0.00000  Uiso   1.00
H2382  H     0.35206   0.68125   0.96902   0.00000  Uiso   1.00
H2383  H     0.59406   0.97875   0.74401   0.00000  Uiso   1.00
H2384  H     0.57366   0.69142   0.77500   0.00000  Uiso   1.00
H2385  H     0.65081   0.80789   0.78558   0.00000  Uiso   1.00
H2386  H     0.64115   0.69020   0.69298   0.00000  Uiso   1.00
H2387  H     0.62098   0.73578   0.72384   0.00000  Uiso   1.00
H2388  H     0.65119   0.72022   0.77618   0.00000  Uiso   1.00
H2389  H     0.35969   0.72381   0.72978   0.00000  Uiso   1.00
H2390  H     0.33712   0.67357   0.74613   0.00000  Uiso   1.00
H2391  H     0.37697   0.99758   0.80653   0.00000  Uiso   1.00
H2392  H     0.40615   0.70785   0.78333   0.00000  Uiso   1.00
H2393  H     0.40782   0.67851   0.86158   0.00000  Uiso   1.00
H2394  H     0.44627   0.71992   0.83932   0.00000  Uiso   1.00
H2395  H     0.38520   0.76025   0.84317   0.00000  Uiso   1.00
H2396  H     0.43692   0.86823   0.57552   0.00000  Uiso   1.00
H2397  H     0.38298   0.74698   0.89104   0.00000  Uiso   1.00
H2398  H     0.34616   0.71837   0.86498   0.00000  Uiso   1.00
H2399  H     0.51440   0.90509   0.57905   0.00000  Uiso   1.00
H2400  H     0.53169   0.89596   0.62068   0.00000  Uiso   1.00
H2401  H     0.48180   0.91774   0.62866   0.00000  Uiso   1.00
H2402  H     0.60378   0.70474   0.58209   0.00000  Uiso   1.00
H2403  H     0.55135   0.70766   0.57600   0.00000  Uiso   1.00
H2404  H     0.57421   0.72007   0.65491   0.00000  Uiso   1.00
H2405  H     0.52176   0.72442   0.64885   0.00000  Uiso   1.00
H2406  H     0.52086   0.98453   0.61455   0.00000  Uiso   1.00
H2407  H     0.45377   0.96729   0.52586   0.00000  Uiso   1.00
H2408  H     0.51911   0.98823   0.66544   0.00000  Uiso   1.00
H2409  H     0.56959   0.97966   0.62773   0.00000  Uiso   1.00
H2410  H     0.52276   0.70320   0.51574   0.00000  Uiso   1.00
H2411  H     0.54060   0.67283   0.96945   0.00000  Uiso   1.00
H2412  H     0.49147   0.69720   0.98053   0.00000  Uiso   1.00
H2413  H     0.35416   0.88467   0.99232   0.00000  Uiso   1.00
H2414  H     0.35706   0.90789   0.94799   0.00000  Uiso   1.00
H2415  H     0.33650   0.93459   0.99604   0.00000  Uiso   1.00
H2416  H     0.46265   0.96949   0.85537   0.00000  Uiso   1.00
H2417  H     0.49980   0.93574   0.85701   0.00000  Uiso   1.00
H2418  H     0.45460   0.94816   0.57082   0.00000  Uiso   1.00
H2419  H     0.46678   0.67108   0.92264   0.00000  Uiso   1.00
H2420  H     0.50742   0.97135   0.92026   0.00000  Uiso   1.00
H2421  H     0.55391   0.99822   0.85631   0.00000  Uiso   1.00
H2422  H     0.54432   0.70506   0.89675   0.00000  Uiso   1.00
H2423  H     0.51437   0.70037   0.86096   0.00000  Uiso   1.00
H2424  H     0.59412   0.83729   0.90314   0.00000  Uiso   1.00
H2425  H     0.56332   0.87593   0.93509   0.00000  Uiso   1.00
H2426  H     0.59218   0.86870   0.84355   0.00000  Uiso   1.00
H2427  H     0.56261   0.90901   0.87563   0.00000  Uiso   1.00
H2428  H     0.62474   0.93122   0.90483   0.00000  Uiso   1.00
H2429  H     0.37946   0.99032   0.56242   0.00000  Uiso   1.00
H2430  H     0.64140   0.93315   0.85212   0.00000  Uiso   1.00
H2431  H     0.65466   0.89103   0.87224   0.00000  Uiso   1.00
H2432  H     0.43385   0.78109   0.94448   0.00000  Uiso   1.00
H2433  H     0.44011   0.73602   0.96582   0.00000  Uiso   1.00
H2434  H     0.44729   0.73440   0.91386   0.00000  Uiso   1.00
H2435  H     0.38437   0.97402   0.60673   0.00000  Uiso   1.00
H2436  H     0.45332   0.69060   0.60078   0.00000  Uiso   1.00
H2437  H     0.40604   0.71608   0.60541   0.00000  Uiso   1.00
O2438  O     0.50000   0.83333   0.75000   0.00000  Uiso   1.00
O2439  O     0.49027   0.79060   0.66625   0.00000  Uiso   1.00
O2440  O     0.46020   0.87313   0.83749   0.00000  Uiso   1.00
O2441  O     0.54421   0.84159   0.65877   0.00000  Uiso   1.00
O2442  O     0.50532   0.82802   0.83749   0.00000  Uiso   1.00
O2443  O     0.40766   0.91720   0.54417   0.00000  Uiso   1.00
O2444  O     0.60904   0.77594   0.51105   0.00000  Uiso   1.00
O2445  O     0.55570   0.67665   0.72279   0.00000  Uiso   1.00
O2446  O     0.44174   0.99151   0.78185   0.00000  Uiso   1.00
O2447  O     0.47882   0.85554   0.61024   0.00000  Uiso   1.00
O2448  O     0.58626   0.76411   0.59390   0.00000  Uiso   1.00
O2449  O     0.51182   0.74768   0.77821   0.00000  Uiso   1.00
O2450  O     0.55030   0.73576   0.96588   0.00000  Uiso   1.00
O2451  O     0.40305   0.93429   0.97735   0.00000  Uiso   1.00
O2452  O     0.43637   0.92915   0.89750   0.00000  Uiso   1.00
O2453  O     0.53149   0.83204   0.90002   0.00000  Uiso   1.00
O2454  O     0.49793   0.76686   0.93273   0.00000  Uiso   1.00
O2455  O     0.47914   0.92803   0.76767   0.00000  Uiso   1.00
O2456  O     0.40785   0.79917   0.73607   0.00000  Uiso   1.00
O2457  O     0.60119   0.85845   0.71806   0.00000  Uiso   1.00
O2458  O     0.40323   0.85627   0.77820   0.00000  Uiso   1.00
O2459  O     0.58773   0.81944   0.76768   0.00000  Uiso   1.00
O2460  O     0.47133   0.73570   0.73607   0.00000  Uiso   1.00
O2461  O     0.53771   0.92193   0.71805   0.00000  Uiso   1.00
Zn2462 Zn    0.52577   0.80756   0.78278   0.00000  Uiso   1.00
Zn2463 Zn    0.46792   0.79044   0.72258   0.00000  Uiso   1.00
Zn2464 Zn    0.54500   0.86331   0.71188   0.00000  Uiso   1.00
Zn2465 Zn    0.46131   0.87202   0.78277   0.00000  Uiso   1.00
C2466  C     0.71913   0.82670   0.75883   0.00000  Uiso   1.00
C2467  C     0.83946   0.78835   0.96661   0.00000  Uiso   1.00
C2468  C     0.86459   0.77118   0.98444   0.00000  Uiso   1.00
C2469  C     0.94779   0.84034   0.74114   0.00000  Uiso   1.00
C2470  C     0.86858   0.78888   0.52157   0.00000  Uiso   1.00
C2471  C     0.83911   0.81737   0.54472   0.00000  Uiso   1.00
C2472  C     0.90026   0.77673   0.53619   0.00000  Uiso   1.00
C2473  C     0.89357   0.78128   0.57725   0.00000  Uiso   1.00
C2474  C     0.83790   0.82713   0.58517   0.00000  Uiso   1.00
C2475  C     0.99398   0.84304   0.73749   0.00000  Uiso   1.00
C2476  C     0.67362   0.82469   0.76233   0.00000  Uiso   1.00
C2477  C     0.78189   0.90211   0.91783   0.00000  Uiso   1.00
C2478  C     0.84951   0.99002   0.74331   0.00000  Uiso   1.00
C2479  C     0.81569   0.67874   0.76274   0.00000  Uiso   1.00
C2480  C     0.82224   0.72297   0.75900   0.00000  Uiso   1.00
C2481  C     0.84388   0.94462   0.74222   0.00000  Uiso   1.00
C2482  C     0.85509   0.81198   0.64396   0.00000  Uiso   1.00
C2483  C     0.81364   0.85617   0.85590   0.00000  Uiso   1.00
C2484  C     0.80764   0.86985   0.89837   0.00000  Uiso   1.00
C2485  C     0.86187   0.80588   0.60140   0.00000  Uiso   1.00
C2486  C     0.76638   0.90643   0.95914   0.00000  Uiso   1.00
C2487  C     0.76650   0.95408   0.55339   0.00000  Uiso   1.00
C2488  C     0.82758   0.85096   0.91998   0.00000  Uiso   1.00
C2489  C     0.73637   0.98589   0.57811   0.00000  Uiso   1.00
C2490  C     0.76202   0.69435   0.58597   0.00000  Uiso   1.00
C2491  C     0.95569   0.73566   0.50113   0.00000  Uiso   1.00
C2492  C     0.99959   0.73628   0.50917   0.00000  Uiso   1.00
C2493  C     0.68147   0.69315   0.50048   0.00000  Uiso   1.00
C2494  C     0.91964   0.67741   0.74394   0.00000  Uiso   1.00
C2495  C     0.96154   0.70368   0.72404   0.00000  Uiso   1.00
C2496  C     0.99610   0.70535   0.74548   0.00000  Uiso   1.00
C2497  C     0.74199   0.68417   0.80157   0.00000  Uiso   1.00
C2498  C     0.74647   0.70347   0.84212   0.00000  Uiso   1.00
C2499  C     0.81047   0.85285   0.96164   0.00000  Uiso   1.00
C2500  C     0.71307   0.73416   0.86144   0.00000  Uiso   1.00
C2501  C     0.83654   0.89504   0.60928   0.00000  Uiso   1.00
C2502  C     0.90717   0.72067   0.59422   0.00000  Uiso   1.00
C2503  C     0.88536   0.70934   0.63617   0.00000  Uiso   1.00
C2504  C     0.87316   0.99585   0.63592   0.00000  Uiso   1.00
C2505  C     0.85819   0.70110   0.98394   0.00000  Uiso   1.00
C2506  C     0.69449   0.91408   0.97817   0.00000  Uiso   1.00
C2507  C     0.80669   0.95392   0.87585   0.00000  Uiso   1.00
C2508  C     0.82621   0.98683   0.90241   0.00000  Uiso   1.00
C2509  C     0.86182   0.68275   0.87754   0.00000  Uiso   1.00
C2510  C     0.78145   0.88267   0.98150   0.00000  Uiso   1.00
C2511  C     0.90226   0.85783   0.90538   0.00000  Uiso   1.00
C2512  C     0.92004   0.88712   0.87294   0.00000  Uiso   1.00
C2513  C     0.96288   0.91213   0.87582   0.00000  Uiso   1.00
C2514  C     0.78613   0.75435   0.94008   0.00000  Uiso   1.00
C2515  C     0.82264   0.82637   0.98385   0.00000  Uiso   1.00
C2516  C     0.81509   0.83617   0.52511   0.00000  Uiso   1.00
C2517  C     0.78421   0.86421   0.54417   0.00000  Uiso   1.00
C2518  C     0.76867   0.88816   0.52314   0.00000  Uiso   1.00
H2519  H     0.68414   0.85986   0.71458   0.00000  Uiso   1.00
H2520  H     0.77864   0.70805   0.55786   0.00000  Uiso   1.00
H2521  H     0.96059   0.72732   0.96896   0.00000  Uiso   1.00
H2522  H     0.93176   0.71098   0.51606   0.00000  Uiso   1.00
H2523  H     0.69096   0.75782   0.99036   0.00000  Uiso   1.00
H2524  H     0.99693   0.74789   0.54047   0.00000  Uiso   1.00
H2525  H     0.99080   0.67152   0.51968   0.00000  Uiso   1.00
H2526  H     0.71329   0.69457   0.50661   0.00000  Uiso   1.00
H2527  H     0.68540   0.68125   0.96902   0.00000  Uiso   1.00
H2528  H     0.92739   0.97875   0.74401   0.00000  Uiso   1.00
H2529  H     0.90700   0.69142   0.77500   0.00000  Uiso   1.00
H2530  H     0.98415   0.80789   0.78558   0.00000  Uiso   1.00
H2531  H     0.97449   0.69020   0.69298   0.00000  Uiso   1.00
H2532  H     0.95431   0.73578   0.72384   0.00000  Uiso   1.00
H2533  H     0.98452   0.72022   0.77618   0.00000  Uiso   1.00
H2534  H     0.69302   0.72381   0.72978   0.00000  Uiso   1.00
H2535  H     0.67045   0.67357   0.74613   0.00000  Uiso   1.00
H2536  H     0.71031   0.99758   0.80653   0.00000  Uiso   1.00
H2537  H     0.73948   0.70785   0.78333   0.00000  Uiso   1.00
H2538  H     0.74116   0.67851   0.86158   0.00000  Uiso   1.00
H2539  H     0.77961   0.71992   0.83932   0.00000  Uiso   1.00
H2540  H     0.71853   0.76025   0.84317   0.00000  Uiso   1.00
H2541  H     0.77025   0.86823   0.57552   0.00000  Uiso   1.00
H2542  H     0.71632   0.74698   0.89104   0.00000  Uiso   1.00
H2543  H     0.67949   0.71837   0.86498   0.00000  Uiso   1.00
H2544  H     0.84773   0.90509   0.57905   0.00000  Uiso   1.00
H2545  H     0.86502   0.89596   0.62068   0.00000  Uiso   1.00
H2546  H     0.81513   0.91774   0.62866   0.00000  Uiso   1.00
H2547  H     0.93711   0.70474   0.58209   0.00000  Uiso   1.00
H2548  H     0.88469   0.70766   0.57600   0.00000  Uiso   1.00
H2549  H     0.90754   0.72007   0.65491   0.00000  Uiso   1.00
H2550  H     0.85510   0.72442   0.64885   0.00000  Uiso   1.00
H2551  H     0.85419   0.98453   0.61455   0.00000  Uiso   1.00
H2552  H     0.78710   0.96729   0.52586   0.00000  Uiso   1.00
H2553  H     0.85244   0.98823   0.66544   0.00000  Uiso   1.00
H2554  H     0.90292   0.97966   0.62773   0.00000  Uiso   1.00
H2555  H     0.85609   0.70320   0.51574   0.00000  Uiso   1.00
H2556  H     0.87393   0.67283   0.96945   0.00000  Uiso   1.00
H2557  H     0.82481   0.69720   0.98053   0.00000  Uiso   1.00
H2558  H     0.68750   0.88467   0.99232   0.00000  Uiso   1.00
H2559  H     0.69040   0.90789   0.94799   0.00000  Uiso   1.00
H2560  H     0.66983   0.93459   0.99604   0.00000  Uiso   1.00
H2561  H     0.79598   0.96949   0.85537   0.00000  Uiso   1.00
H2562  H     0.83313   0.93574   0.85701   0.00000  Uiso   1.00
H2563  H     0.78793   0.94816   0.57082   0.00000  Uiso   1.00
H2564  H     0.80011   0.67108   0.92264   0.00000  Uiso   1.00
H2565  H     0.84075   0.97135   0.92026   0.00000  Uiso   1.00
H2566  H     0.88725   0.99822   0.85631   0.00000  Uiso   1.00
H2567  H     0.87765   0.70506   0.89675   0.00000  Uiso   1.00
H2568  H     0.84771   0.70037   0.86096   0.00000  Uiso   1.00
H2569  H     0.92745   0.83729   0.90314   0.00000  Uiso   1.00
H2570  H     0.89665   0.87593   0.93509   0.00000  Uiso   1.00
H2571  H     0.92551   0.86870   0.84355   0.00000  Uiso   1.00
H2572  H     0.89595   0.90901   0.87563   0.00000  Uiso   1.00
H2573  H     0.95807   0.93122   0.90483   0.00000  Uiso   1.00
H2574  H     0.71279   0.99032   0.56242   0.00000  Uiso   1.00
H2575  H     0.97473   0.93315   0.85212   0.00000  Uiso   1.00
H2576  H     0.98799   0.89103   0.87224   0.00000  Uiso   1.00
H2577  H     0.76718   0.78109   0.94448   0.00000  Uiso   1.00
H2578  H     0.77345   0.73602   0.96582   0.00000  Uiso   1.00
H2579  H     0.78062   0.73440   0.91386   0.00000  Uiso   1.00
H2580  H     0.71771   0.97402   0.60673   0.00000  Uiso   1.00
H2581  H     0.78665   0.69060   0.60078   0.00000  Uiso   1.00
H2582  H     0.73938   0.71608   0.60541   0.00000  Uiso   1.00
O2583  O     0.83333   0.83333   0.75000   0.00000  Uiso   1.00
O2584  O     0.82360   0.79060   0.66625   0.00000  Uiso   1.00
O2585  O     0.79354   0.87313   0.83749   0.00000  Uiso   1.00
O2586  O     0.87755   0.84159   0.65877   0.00000  Uiso   1.00
O2587  O     0.83865   0.82802   0.83749   0.00000  Uiso   1.00
O2588  O     0.74099   0.91720   0.54417   0.00000  Uiso   1.00
O2589  O     0.94237   0.77594   0.51105   0.00000  Uiso   1.00
O2590  O     0.88903   0.67665   0.72279   0.00000  Uiso   1.00
O2591  O     0.77507   0.99151   0.78185   0.00000  Uiso   1.00
O2592  O     0.81215   0.85554   0.61024   0.00000  Uiso   1.00
O2593  O     0.91959   0.76411   0.59390   0.00000  Uiso   1.00
O2594  O     0.84515   0.74768   0.77821   0.00000  Uiso   1.00
O2595  O     0.88363   0.73576   0.96588   0.00000  Uiso   1.00
O2596  O     0.73638   0.93429   0.97735   0.00000  Uiso   1.00
O2597  O     0.76970   0.92915   0.89750   0.00000  Uiso   1.00
O2598  O     0.86482   0.83204   0.90002   0.00000  Uiso   1.00
O2599  O     0.83127   0.76686   0.93273   0.00000  Uiso   1.00
O2600  O     0.81247   0.92803   0.76767   0.00000  Uiso   1.00
O2601  O     0.74119   0.79917   0.73607   0.00000  Uiso   1.00
O2602  O     0.93452   0.85845   0.71806   0.00000  Uiso   1.00
O2603  O     0.73656   0.85627   0.77820   0.00000  Uiso   1.00
O2604  O     0.92106   0.81944   0.76768   0.00000  Uiso   1.00
O2605  O     0.80467   0.73570   0.73607   0.00000  Uiso   1.00
O2606  O     0.87104   0.92193   0.71805   0.00000  Uiso   1.00
Zn2607 Zn    0.85910   0.80756   0.78278   0.00000  Uiso   1.00
Zn2608 Zn    0.80125   0.79044   0.72258   0.00000  Uiso   1.00
Zn2609 Zn    0.87833   0.86331   0.71188   0.00000  Uiso   1.00
Zn2610 Zn    0.79465   0.87202   0.78277   0.00000  Uiso   1.00
loop_
_geom_bond_atom_site_label_1
_geom_bond_atom_site_label_2
_geom_bond_distance
_geom_bond_site_symmetry_2
_ccdc_geom_bond_type
C1     C11     1.433   .     S
C1     O136    1.271   .     A
C1     O138    1.271   .     A
C2     C50     1.416   .     A
C2     O134    1.387   .     S
C2     C3      1.392   .     A
C3     O130    1.382   .     S
C3     C1310   1.405   .     S
C4     O137    1.284   .     A
C4     C10     1.453   .     S
C4     O139    1.278   .     A
C5     C6      1.426   .     A
C5     C7      1.411   .     A
C5     C1308   1.405   1_554 S
C6     C9      1.425   .     A
C6     C51     1.440   .     A
C7     O124    1.391   .     S
C7     C8      1.407   .     A
C8     O128    1.386   .     S
C8     C20     1.400   .     A
C9     C20     1.405   .     A
C9     O127    1.380   .     S
C10    C156    1.335   .     S
C10    H199    1.088   .     S
C11    C300    1.335   1_455 S
C11    H355    1.086   1_455 S
C12    C21     1.403   .     A
C12    O132    1.390   .     S
C12    C19     1.413   .     A
C13    C16     1.467   .     S
C13    C449    1.355   .     S
C13    O560    1.388   .     S
C14    C15     1.452   .     S
C14    C883    1.355   1_545 S
C14    O996    1.406   1_545 S
C15    O129    1.282   .     A
C15    O140    1.273   .     A
C16    O141    1.274   .     A
C16    O135    1.256   .     A
C17    C20     1.458   .     S
C17    O121    1.274   .     A
C17    O119    1.275   .     A
C18    C19     1.481   .     S
C18    O122    1.290   .     A
C18    O120    1.280   .     A
C19    C23     1.398   .     A
C21    O131    1.383   .     S
C21    C45     1.418   .     A
C22    H98     1.115   .     S
C22    O123    1.415   .     S
C22    H87     1.115   .     S
C22    C24     1.528   .     S
C23    C34     1.420   .     A
C23    O133    1.387   .     S
C24    H109    1.111   .     S
C24    H115    1.112   .     S
C24    C460    1.528   .     S
C25    H116    1.111   .     S
C25    H55     1.110   .     S
C25    H117    1.110   .     S
C25    C894    1.528   1_545 S
C26    C27     1.530   .     S
C26    O124    1.412   .     S
C26    H57     1.108   .     S
C26    H1361   1.111   1_554 S
C27    H59     1.110   .     S
C27    C173    1.524   .     S
C27    H1508   1.111   1_554 S
C28    H61     1.110   .     S
C28    C317    1.524   1_455 S
C28    H350    1.110   1_455 S
C28    H1367   1.111   1_554 S
C29    O125    1.412   .     S
C29    C30     1.528   .     S
C29    H64     1.116   .     S
C29    H933    1.114   1_545 S
C30    C31     1.527   .     S
C30    H67     1.112   .     S
C30    H66     1.112   .     S
C31    H68     1.111   .     S
C31    H214    1.110   .     S
C31    H215    1.111   .     S
C32    H72     1.109   .     S
C32    C33     1.535   .     S
C32    H941    1.111   1_545 S
C32    O996    1.419   1_545 S
C33    H73     1.110   .     S
C33    C35     1.527   .     S
C33    H74     1.110   .     S
C34    C50     1.424   .     A
C34    C45     1.419   .     A
C35    H75     1.111   .     S
C35    H77     1.110   .     S
C35    H78     1.111   .     S
C36    H80     1.110   .     S
C36    H81     1.109   .     S
C36    O127    1.411   .     S
C36    H79     1.113   .     S
C37    O128    1.421   .     S
C37    C38     1.527   .     S
C37    H82     1.110   .     S
C37    H83     1.118   .     S
C38    H85     1.106   .     S
C38    H84     1.111   .     S
C38    C909    1.525   1_545 S
C39    H88     1.107   .     S
C39    H86     1.110   .     S
C39    H89     1.111   .     S
C39    C473    1.525   .     S
C40    H92     1.111   .     S
C40    O130    1.413   .     S
C40    H91     1.109   .     S
C40    H1395   1.111   .     S
C41    H93     1.114   .     S
C41    H94     1.112   .     S
C41    O131    1.412   .     S
C41    H95     1.107   .     S
C42    H96     1.109   .     S
C42    C43     1.525   .     S
C42    H97     1.109   .     S
C42    O132    1.423   .     S
C43    H100    1.110   .     S
C43    C479    1.529   .     S
C43    H534    1.107   .     S
C44    H103    1.111   .     S
C44    H102    1.107   .     S
C44    C913    1.529   1_545 S
C44    H971    1.111   1_545 S
C45    C1358   1.412   .     S
C46    H105    1.116   .     S
C46    H104    1.111   .     S
C46    C47     1.533   .     S
C46    O133    1.417   .     S
C47    C48     1.527   .     S
C47    H106    1.112   .     S
C47    H107    1.111   .     S
C48    H110    1.111   .     S
C48    H108    1.111   .     S
C48    H111    1.111   .     S
C49    O134    1.413   .     S
C49    H113    1.111   .     S
C49    H114    1.107   .     S
C49    H112    1.109   .     S
C50    C1356   1.417   .     S
C51    C52     1.411   .     A
C51    C1355   1.417   1_554 S
C52    C53     1.397   .     A
C52    H76     1.071   .     S
C53    O123    1.384   .     S
C53    C1350   1.412   1_554 S
H54    C300    1.088   1_455 S
H56    C1331   1.111   .     S
H58    C1622   1.111   1_455 S
H60    C173    1.110   .     S
H62    C1333   1.111   .     S
H63    C464    1.114   .     S
H65    C156    1.086   .     S
H69    C321    1.110   1_455 S
H70    C321    1.111   1_455 S
H71    C467    1.111   .     S
H90    C1345   1.111   1_554 S
H99    C913    1.107   1_545 S
H101   C479    1.111   .     S
O118   Zn144   1.926   .     S
O118   Zn143   1.948   .     S
O118   Zn145   1.925   .     S
O118   Zn142   1.967   .     S
O119   Zn143   1.924   .     S
O120   Zn145   1.941   .     S
O121   Zn144   1.935   .     S
O122   Zn142   1.920   .     S
O125   C883    1.388   1_545 S
O126   C449    1.406   .     S
O126   C467    1.419   .     S
O129   Zn142   1.941   .     S
O135   Zn145   1.942   .     S
O136   Zn143   1.913   .     S
O137   Zn144   1.930   .     S
O138   Zn145   1.925   .     S
O139   Zn142   1.909   .     S
O140   Zn143   1.950   .     S
O141   Zn144   1.942   .     S
C146   C156    1.433   .     S
C146   O281    1.271   .     A
C146   O283    1.271   .     A
C147   C195    1.416   .     A
C147   O279    1.387   .     S
C147   C148    1.392   .     A
C148   O275    1.382   .     S
C148   C1455   1.405   .     S
C149   O282    1.284   .     A
C149   C155    1.453   .     S
C149   O284    1.278   .     A
C150   C151    1.426   .     A
C150   C152    1.411   .     A
C150   C1453   1.405   1_554 S
C151   C154    1.425   .     A
C151   C196    1.440   .     A
C152   O269    1.391   .     S
C152   C153    1.407   .     A
C153   O273    1.386   .     S
C153   C165    1.400   .     A
C154   C165    1.405   .     A
C154   O272    1.380   .     S
C155   C301    1.335   .     S
C155   H344    1.088   .     S
C157   C166    1.403   .     A
C157   O277    1.390   .     S
C157   C164    1.413   .     A
C158   C161    1.467   .     S
C158   C594    1.355   .     S
C158   O705    1.388   .     S
C159   C160    1.452   .     S
C159   C1028   1.355   1_545 S
C159   O1141   1.406   1_545 S
C160   O274    1.282   .     A
C160   O285    1.273   .     A
C161   O286    1.274   .     A
C161   O280    1.256   .     A
C162   C165    1.458   .     S
C162   O266    1.274   .     A
C162   O264    1.275   .     A
C163   C164    1.481   .     S
C163   O267    1.290   .     A
C163   O265    1.280   .     A
C164   C168    1.398   .     A
C166   O276    1.383   .     S
C166   C190    1.418   .     A
C167   H243    1.115   .     S
C167   O268    1.415   .     S
C167   H232    1.115   .     S
C167   C169    1.528   .     S
C168   C179    1.420   .     A
C168   O278    1.387   .     S
C169   H254    1.111   .     S
C169   H260    1.112   .     S
C169   C605    1.528   .     S
C170   H261    1.111   .     S
C170   H200    1.110   .     S
C170   H262    1.110   .     S
C170   C1039   1.528   1_545 S
C171   C172    1.530   .     S
C171   O269    1.412   .     S
C171   H202    1.108   .     S
C171   H1506   1.111   1_554 S
C172   H204    1.110   .     S
C172   C318    1.524   .     S
C172   H1653   1.111   1_554 S
C173   H206    1.110   .     S
C173   H1512   1.111   1_554 S
C174   O270    1.412   .     S
C174   C175    1.528   .     S
C174   H209    1.116   .     S
C174   H1078   1.114   1_545 S
C175   C176    1.527   .     S
C175   H212    1.112   .     S
C175   H211    1.112   .     S
C176   H213    1.111   .     S
C176   H359    1.110   .     S
C176   H360    1.111   .     S
C177   H217    1.109   .     S
C177   C178    1.535   .     S
C177   H1086   1.111   1_545 S
C177   O1141   1.419   1_545 S
C178   H218    1.110   .     S
C178   C180    1.527   .     S
C178   H219    1.110   .     S
C179   C195    1.424   .     A
C179   C190    1.419   .     A
C180   H220    1.111   .     S
C180   H222    1.110   .     S
C180   H223    1.111   .     S
C181   H225    1.110   .     S
C181   H226    1.109   .     S
C181   O272    1.411   .     S
C181   H224    1.113   .     S
C182   O273    1.421   .     S
C182   C183    1.527   .     S
C182   H227    1.110   .     S
C182   H228    1.118   .     S
C183   H230    1.106   .     S
C183   H229    1.111   .     S
C183   C1054   1.525   1_545 S
C184   H233    1.107   .     S
C184   H231    1.110   .     S
C184   H234    1.111   .     S
C184   C618    1.525   .     S
C185   H237    1.111   .     S
C185   O275    1.413   .     S
C185   H236    1.109   .     S
C185   H1540   1.111   .     S
C186   H238    1.114   .     S
C186   H239    1.112   .     S
C186   O276    1.412   .     S
C186   H240    1.107   .     S
C187   H241    1.109   .     S
C187   C188    1.525   .     S
C187   H242    1.109   .     S
C187   O277    1.423   .     S
C188   H245    1.110   .     S
C188   C624    1.529   .     S
C188   H679    1.107   .     S
C189   H248    1.111   .     S
C189   H247    1.107   .     S
C189   C1058   1.529   1_545 S
C189   H1116   1.111   1_545 S
C190   C1503   1.412   .     S
C191   H250    1.116   .     S
C191   H249    1.111   .     S
C191   C192    1.533   .     S
C191   O278    1.417   .     S
C192   C193    1.527   .     S
C192   H251    1.112   .     S
C192   H252    1.111   .     S
C193   H255    1.111   .     S
C193   H253    1.111   .     S
C193   H256    1.111   .     S
C194   O279    1.413   .     S
C194   H258    1.111   .     S
C194   H259    1.107   .     S
C194   H257    1.109   .     S
C195   C1501   1.417   .     S
C196   C197    1.411   .     A
C196   C1500   1.417   1_554 S
C197   C198    1.397   .     A
C197   H221    1.071   .     S
C198   O268    1.384   .     S
C198   C1495   1.412   1_554 S
H201   C1476   1.111   .     S
H203   C1332   1.111   .     S
H205   C318    1.110   .     S
H207   C1478   1.111   .     S
H208   C609    1.114   .     S
H210   C301    1.086   .     S
H216   C612    1.111   .     S
H235   C1490   1.111   1_554 S
H244   C1058   1.107   1_545 S
H246   C624    1.111   .     S
O263   Zn289   1.926   .     S
O263   Zn288   1.948   .     S
O263   Zn290   1.925   .     S
O263   Zn287   1.967   .     S
O264   Zn288   1.924   .     S
O265   Zn290   1.941   .     S
O266   Zn289   1.935   .     S
O267   Zn287   1.920   .     S
O270   C1028   1.388   1_545 S
O271   C594    1.406   .     S
O271   C612    1.419   .     S
O274   Zn287   1.941   .     S
O280   Zn290   1.942   .     S
O281   Zn288   1.913   .     S
O282   Zn289   1.930   .     S
O283   Zn290   1.925   .     S
O284   Zn287   1.909   .     S
O285   Zn288   1.950   .     S
O286   Zn289   1.942   .     S
C291   C301    1.433   .     S
C291   O426    1.271   .     A
C291   O428    1.271   .     A
C292   C340    1.416   .     A
C292   O424    1.387   .     S
C292   C293    1.392   .     A
C293   O420    1.382   .     S
C293   C1600   1.405   .     S
C294   O427    1.284   .     A
C294   C300    1.453   .     S
C294   O429    1.278   .     A
C295   C296    1.426   .     A
C295   C297    1.411   .     A
C295   C1598   1.405   1_554 S
C296   C299    1.425   .     A
C296   C341    1.440   .     A
C297   O414    1.391   .     S
C297   C298    1.407   .     A
C298   O418    1.386   .     S
C298   C310    1.400   .     A
C299   C310    1.405   .     A
C299   O417    1.380   .     S
C300   C11     1.335   1_655 S
C300   H54     1.088   1_655 S
C302   C311    1.403   .     A
C302   O422    1.390   .     S
C302   C309    1.413   .     A
C303   C306    1.467   .     S
C303   C739    1.355   .     S
C303   O850    1.388   .     S
C304   C305    1.452   .     S
C304   C1173   1.355   1_545 S
C304   O1286   1.406   1_545 S
C305   O419    1.282   .     A
C305   O430    1.273   .     A
C306   O431    1.274   .     A
C306   O425    1.256   .     A
C307   C310    1.458   .     S
C307   O411    1.274   .     A
C307   O409    1.275   .     A
C308   C309    1.481   .     S
C308   O412    1.290   .     A
C308   O410    1.280   .     A
C309   C313    1.398   .     A
C311   O421    1.383   .     S
C311   C335    1.418   .     A
C312   H388    1.115   .     S
C312   O413    1.415   .     S
C312   H377    1.115   .     S
C312   C314    1.528   .     S
C313   C324    1.420   .     A
C313   O423    1.387   .     S
C314   H399    1.111   .     S
C314   H405    1.112   .     S
C314   C750    1.528   .     S
C315   H406    1.111   .     S
C315   H345    1.110   .     S
C315   H407    1.110   .     S
C315   C1184   1.528   1_545 S
C316   C317    1.530   .     S
C316   O414    1.412   .     S
C316   H347    1.108   .     S
C316   H1651   1.111   1_554 S
C317   H349    1.110   .     S
C317   C28     1.524   1_655 S
C317   H1363   1.111   1_654 S
C318   H351    1.110   .     S
C318   H1657   1.111   1_554 S
C319   O415    1.412   .     S
C319   C320    1.528   .     S
C319   H354    1.116   .     S
C319   H1223   1.114   1_545 S
C320   C321    1.527   .     S
C320   H357    1.112   .     S
C320   H356    1.112   .     S
C321   H358    1.111   .     S
C321   H69     1.110   1_655 S
C321   H70     1.111   1_655 S
C322   H362    1.109   .     S
C322   C323    1.535   .     S
C322   H1231   1.111   1_545 S
C322   O1286   1.419   1_545 S
C323   H363    1.110   .     S
C323   C325    1.527   .     S
C323   H364    1.110   .     S
C324   C340    1.424   .     A
C324   C335    1.419   .     A
C325   H365    1.111   .     S
C325   H367    1.110   .     S
C325   H368    1.111   .     S
C326   H370    1.110   .     S
C326   H371    1.109   .     S
C326   O417    1.411   .     S
C326   H369    1.113   .     S
C327   O418    1.421   .     S
C327   C328    1.527   .     S
C327   H372    1.110   .     S
C327   H373    1.118   .     S
C328   H375    1.106   .     S
C328   H374    1.111   .     S
C328   C1199   1.525   1_545 S
C329   H378    1.107   .     S
C329   H376    1.110   .     S
C329   H379    1.111   .     S
C329   C763    1.525   .     S
C330   H382    1.111   .     S
C330   O420    1.413   .     S
C330   H381    1.109   .     S
C330   H1685   1.111   .     S
C331   H383    1.114   .     S
C331   H384    1.112   .     S
C331   O421    1.412   .     S
C331   H385    1.107   .     S
C332   H386    1.109   .     S
C332   C333    1.525   .     S
C332   H387    1.109   .     S
C332   O422    1.423   .     S
C333   H390    1.110   .     S
C333   C769    1.529   .     S
C333   H824    1.107   .     S
C334   H393    1.111   .     S
C334   H392    1.107   .     S
C334   C1203   1.529   1_545 S
C334   H1261   1.111   1_545 S
C335   C1648   1.412   .     S
C336   H395    1.116   .     S
C336   H394    1.111   .     S
C336   C337    1.533   .     S
C336   O423    1.417   .     S
C337   C338    1.527   .     S
C337   H396    1.112   .     S
C337   H397    1.111   .     S
C338   H400    1.111   .     S
C338   H398    1.111   .     S
C338   H401    1.111   .     S
C339   O424    1.413   .     S
C339   H403    1.111   .     S
C339   H404    1.107   .     S
C339   H402    1.109   .     S
C340   C1646   1.417   .     S
C341   C342    1.411   .     A
C341   C1645   1.417   1_554 S
C342   C343    1.397   .     A
C342   H366    1.071   .     S
C343   O413    1.384   .     S
C343   C1640   1.412   1_554 S
H346   C1621   1.111   .     S
H348   C1477   1.111   .     S
H350   C28     1.110   1_655 S
H352   C1623   1.111   .     S
H353   C754    1.114   .     S
H355   C11     1.086   1_655 S
H361   C757    1.111   .     S
H380   C1635   1.111   1_554 S
H389   C1203   1.107   1_545 S
H391   C769    1.111   .     S
O408   Zn434   1.926   .     S
O408   Zn433   1.948   .     S
O408   Zn435   1.925   .     S
O408   Zn432   1.967   .     S
O409   Zn433   1.924   .     S
O410   Zn435   1.941   .     S
O411   Zn434   1.935   .     S
O412   Zn432   1.920   .     S
O415   C1173   1.388   1_545 S
O416   C739    1.406   .     S
O416   C757    1.419   .     S
O419   Zn432   1.941   .     S
O425   Zn435   1.942   .     S
O426   Zn433   1.913   .     S
O427   Zn434   1.930   .     S
O428   Zn435   1.925   .     S
O429   Zn432   1.909   .     S
O430   Zn433   1.950   .     S
O431   Zn434   1.942   .     S
C436   C446    1.433   .     S
C436   O571    1.271   .     A
C436   O573    1.271   .     A
C437   C485    1.416   .     A
C437   O569    1.387   .     S
C437   C438    1.392   .     A
C438   O565    1.382   .     S
C438   C1745   1.405   .     S
C439   O572    1.284   .     A
C439   C445    1.453   .     S
C439   O574    1.278   .     A
C440   C441    1.426   .     A
C440   C442    1.411   .     A
C440   C1743   1.405   1_554 S
C441   C444    1.425   .     A
C441   C486    1.440   .     A
C442   O559    1.391   .     S
C442   C443    1.407   .     A
C443   O563    1.386   .     S
C443   C455    1.400   .     A
C444   C455    1.405   .     A
C444   O562    1.380   .     S
C445   C591    1.335   .     S
C445   H634    1.088   .     S
C446   C735    1.335   1_455 S
C446   H790    1.086   1_455 S
C447   C456    1.403   .     A
C447   O567    1.390   .     S
C447   C454    1.413   .     A
C448   C451    1.467   .     S
C448   C884    1.355   .     S
C448   O995    1.388   .     S
C449   C450    1.452   .     S
C450   O564    1.282   .     A
C450   O575    1.273   .     A
C451   O576    1.274   .     A
C451   O570    1.256   .     A
C452   C455    1.458   .     S
C452   O556    1.274   .     A
C452   O554    1.275   .     A
C453   C454    1.481   .     S
C453   O557    1.290   .     A
C453   O555    1.280   .     A
C454   C458    1.398   .     A
C456   O566    1.383   .     S
C456   C480    1.418   .     A
C457   H533    1.115   .     S
C457   O558    1.415   .     S
C457   H522    1.115   .     S
C457   C459    1.528   .     S
C458   C469    1.420   .     A
C458   O568    1.387   .     S
C459   H544    1.111   .     S
C459   H550    1.112   .     S
C459   C895    1.528   .     S
C460   H551    1.111   .     S
C460   H490    1.110   .     S
C460   H552    1.110   .     S
C461   C462    1.530   .     S
C461   O559    1.412   .     S
C461   H492    1.108   .     S
C461   H1796   1.111   1_554 S
C462   H494    1.110   .     S
C462   C608    1.524   .     S
C462   H1943   1.111   1_554 S
C463   H496    1.110   .     S
C463   C752    1.524   1_455 S
C463   H785    1.110   1_455 S
C463   H1802   1.111   1_554 S
C464   O560    1.412   .     S
C464   C465    1.528   .     S
C464   H499    1.116   .     S
C465   C466    1.527   .     S
C465   H502    1.112   .     S
C465   H501    1.112   .     S
C466   H503    1.111   .     S
C466   H649    1.110   .     S
C466   H650    1.111   .     S
C467   H507    1.109   .     S
C467   C468    1.535   .     S
C468   H508    1.110   .     S
C468   C470    1.527   .     S
C468   H509    1.110   .     S
C469   C485    1.424   .     A
C469   C480    1.419   .     A
C470   H510    1.111   .     S
C470   H512    1.110   .     S
C470   H513    1.111   .     S
C471   H515    1.110   .     S
C471   H516    1.109   .     S
C471   O562    1.411   .     S
C471   H514    1.113   .     S
C472   O563    1.421   .     S
C472   C473    1.527   .     S
C472   H517    1.110   .     S
C472   H518    1.118   .     S
C473   H520    1.106   .     S
C473   H519    1.111   .     S
C474   H523    1.107   .     S
C474   H521    1.110   .     S
C474   H524    1.111   .     S
C474   C908    1.525   .     S
C475   H527    1.111   .     S
C475   O565    1.413   .     S
C475   H526    1.109   .     S
C475   H1830   1.111   .     S
C476   H528    1.114   .     S
C476   H529    1.112   .     S
C476   O566    1.412   .     S
C476   H530    1.107   .     S
C477   H531    1.109   .     S
C477   C478    1.525   .     S
C477   H532    1.109   .     S
C477   O567    1.423   .     S
C478   H535    1.110   .     S
C478   C914    1.529   .     S
C478   H969    1.107   .     S
C479   H538    1.111   .     S
C479   H537    1.107   .     S
C480   C1793   1.412   .     S
C481   H540    1.116   .     S
C481   H539    1.111   .     S
C481   C482    1.533   .     S
C481   O568    1.417   .     S
C482   C483    1.527   .     S
C482   H541    1.112   .     S
C482   H542    1.111   .     S
C483   H545    1.111   .     S
C483   H543    1.111   .     S
C483   H546    1.111   .     S
C484   O569    1.413   .     S
C484   H548    1.111   .     S
C484   H549    1.107   .     S
C484   H547    1.109   .     S
C485   C1791   1.417   .     S
C486   C487    1.411   .     A
C486   C1790   1.417   1_554 S
C487   C488    1.397   .     A
C487   H511    1.071   .     S
C488   O558    1.384   .     S
C488   C1785   1.412   1_554 S
H489   C735    1.088   1_455 S
H491   C1766   1.111   .     S
H493   C2057   1.111   1_455 S
H495   C608    1.110   .     S
H497   C1768   1.111   .     S
H498   C899    1.114   .     S
H500   C591    1.086   .     S
H504   C756    1.110   1_455 S
H505   C756    1.111   1_455 S
H506   C902    1.111   .     S
H525   C1780   1.111   1_554 S
H536   C914    1.111   .     S
O553   Zn579   1.926   .     S
O553   Zn578   1.948   .     S
O553   Zn580   1.925   .     S
O553   Zn577   1.967   .     S
O554   Zn578   1.924   .     S
O555   Zn580   1.941   .     S
O556   Zn579   1.935   .     S
O557   Zn577   1.920   .     S
O561   C884    1.406   .     S
O561   C902    1.419   .     S
O564   Zn577   1.941   .     S
O570   Zn580   1.942   .     S
O571   Zn578   1.913   .     S
O572   Zn579   1.930   .     S
O573   Zn580   1.925   .     S
O574   Zn577   1.909   .     S
O575   Zn578   1.950   .     S
O576   Zn579   1.942   .     S
C581   C591    1.433   .     S
C581   O716    1.271   .     A
C581   O718    1.271   .     A
C582   C630    1.416   .     A
C582   O714    1.387   .     S
C582   C583    1.392   .     A
C583   O710    1.382   .     S
C583   C1890   1.405   .     S
C584   O717    1.284   .     A
C584   C590    1.453   .     S
C584   O719    1.278   .     A
C585   C586    1.426   .     A
C585   C587    1.411   .     A
C585   C1888   1.405   1_554 S
C586   C589    1.425   .     A
C586   C631    1.440   .     A
C587   O704    1.391   .     S
C587   C588    1.407   .     A
C588   O708    1.386   .     S
C588   C600    1.400   .     A
C589   C600    1.405   .     A
C589   O707    1.380   .     S
C590   C736    1.335   .     S
C590   H779    1.088   .     S
C592   C601    1.403   .     A
C592   O712    1.390   .     S
C592   C599    1.413   .     A
C593   C596    1.467   .     S
C593   C1029   1.355   .     S
C593   O1140   1.388   .     S
C594   C595    1.452   .     S
C595   O709    1.282   .     A
C595   O720    1.273   .     A
C596   O721    1.274   .     A
C596   O715    1.256   .     A
C597   C600    1.458   .     S
C597   O701    1.274   .     A
C597   O699    1.275   .     A
C598   C599    1.481   .     S
C598   O702    1.290   .     A
C598   O700    1.280   .     A
C599   C603    1.398   .     A
C601   O711    1.383   .     S
C601   C625    1.418   .     A
C602   H678    1.115   .     S
C602   O703    1.415   .     S
C602   H667    1.115   .     S
C602   C604    1.528   .     S
C603   C614    1.420   .     A
C603   O713    1.387   .     S
C604   H689    1.111   .     S
C604   H695    1.112   .     S
C604   C1040   1.528   .     S
C605   H696    1.111   .     S
C605   H635    1.110   .     S
C605   H697    1.110   .     S
C606   C607    1.530   .     S
C606   O704    1.412   .     S
C606   H637    1.108   .     S
C606   H1941   1.111   1_554 S
C607   H639    1.110   .     S
C607   C753    1.524   .     S
C607   H2088   1.111   1_554 S
C608   H641    1.110   .     S
C608   H1947   1.111   1_554 S
C609   O705    1.412   .     S
C609   C610    1.528   .     S
C609   H644    1.116   .     S
C610   C611    1.527   .     S
C610   H647    1.112   .     S
C610   H646    1.112   .     S
C611   H648    1.111   .     S
C611   H794    1.110   .     S
C611   H795    1.111   .     S
C612   H652    1.109   .     S
C612   C613    1.535   .     S
C613   H653    1.110   .     S
C613   C615    1.527   .     S
C613   H654    1.110   .     S
C614   C630    1.424   .     A
C614   C625    1.419   .     A
C615   H655    1.111   .     S
C615   H657    1.110   .     S
C615   H658    1.111   .     S
C616   H660    1.110   .     S
C616   H661    1.109   .     S
C616   O707    1.411   .     S
C616   H659    1.113   .     S
C617   O708    1.421   .     S
C617   C618    1.527   .     S
C617   H662    1.110   .     S
C617   H663    1.118   .     S
C618   H665    1.106   .     S
C618   H664    1.111   .     S
C619   H668    1.107   .     S
C619   H666    1.110   .     S
C619   H669    1.111   .     S
C619   C1053   1.525   .     S
C620   H672    1.111   .     S
C620   O710    1.413   .     S
C620   H671    1.109   .     S
C620   H1975   1.111   .     S
C621   H673    1.114   .     S
C621   H674    1.112   .     S
C621   O711    1.412   .     S
C621   H675    1.107   .     S
C622   H676    1.109   .     S
C622   C623    1.525   .     S
C622   H677    1.109   .     S
C622   O712    1.423   .     S
C623   H680    1.110   .     S
C623   C1059   1.529   .     S
C623   H1114   1.107   .     S
C624   H683    1.111   .     S
C624   H682    1.107   .     S
C625   C1938   1.412   .     S
C626   H685    1.116   .     S
C626   H684    1.111   .     S
C626   C627    1.533   .     S
C626   O713    1.417   .     S
C627   C628    1.527   .     S
C627   H686    1.112   .     S
C627   H687    1.111   .     S
C628   H690    1.111   .     S
C628   H688    1.111   .     S
C628   H691    1.111   .     S
C629   O714    1.413   .     S
C629   H693    1.111   .     S
C629   H694    1.107   .     S
C629   H692    1.109   .     S
C630   C1936   1.417   .     S
C631   C632    1.411   .     A
C631   C1935   1.417   1_554 S
C632   C633    1.397   .     A
C632   H656    1.071   .     S
C633   O703    1.384   .     S
C633   C1930   1.412   1_554 S
H636   C1911   1.111   .     S
H638   C1767   1.111   .     S
H640   C753    1.110   .     S
H642   C1913   1.111   .     S
H643   C1044   1.114   .     S
H645   C736    1.086   .     S
H651   C1047   1.111   .     S
H670   C1925   1.111   1_554 S
H681   C1059   1.111   .     S
O698   Zn724   1.926   .     S
O698   Zn723   1.948   .     S
O698   Zn725   1.925   .     S
O698   Zn722   1.967   .     S
O699   Zn723   1.924   .     S
O700   Zn725   1.941   .     S
O701   Zn724   1.935   .     S
O702   Zn722   1.920   .     S
O706   C1029   1.406   .     S
O706   C1047   1.419   .     S
O709   Zn722   1.941   .     S
O715   Zn725   1.942   .     S
O716   Zn723   1.913   .     S
O717   Zn724   1.930   .     S
O718   Zn725   1.925   .     S
O719   Zn722   1.909   .     S
O720   Zn723   1.950   .     S
O721   Zn724   1.942   .     S
C726   C736    1.433   .     S
C726   O861    1.271   .     A
C726   O863    1.271   .     A
C727   C775    1.416   .     A
C727   O859    1.387   .     S
C727   C728    1.392   .     A
C728   O855    1.382   .     S
C728   C2035   1.405   .     S
C729   O862    1.284   .     A
C729   C735    1.453   .     S
C729   O864    1.278   .     A
C730   C731    1.426   .     A
C730   C732    1.411   .     A
C730   C2033   1.405   1_554 S
C731   C734    1.425   .     A
C731   C776    1.440   .     A
C732   O849    1.391   .     S
C732   C733    1.407   .     A
C733   O853    1.386   .     S
C733   C745    1.400   .     A
C734   C745    1.405   .     A
C734   O852    1.380   .     S
C735   C446    1.335   1_655 S
C735   H489    1.088   1_655 S
C737   C746    1.403   .     A
C737   O857    1.390   .     S
C737   C744    1.413   .     A
C738   C741    1.467   .     S
C738   C1174   1.355   .     S
C738   O1285   1.388   .     S
C739   C740    1.452   .     S
C740   O854    1.282   .     A
C740   O865    1.273   .     A
C741   O866    1.274   .     A
C741   O860    1.256   .     A
C742   C745    1.458   .     S
C742   O846    1.274   .     A
C742   O844    1.275   .     A
C743   C744    1.481   .     S
C743   O847    1.290   .     A
C743   O845    1.280   .     A
C744   C748    1.398   .     A
C746   O856    1.383   .     S
C746   C770    1.418   .     A
C747   H823    1.115   .     S
C747   O848    1.415   .     S
C747   H812    1.115   .     S
C747   C749    1.528   .     S
C748   C759    1.420   .     A
C748   O858    1.387   .     S
C749   H834    1.111   .     S
C749   H840    1.112   .     S
C749   C1185   1.528   .     S
C750   H841    1.111   .     S
C750   H780    1.110   .     S
C750   H842    1.110   .     S
C751   C752    1.530   .     S
C751   O849    1.412   .     S
C751   H782    1.108   .     S
C751   H2086   1.111   1_554 S
C752   H784    1.110   .     S
C752   C463    1.524   1_655 S
C752   H1798   1.111   1_654 S
C753   H786    1.110   .     S
C753   H2092   1.111   1_554 S
C754   O850    1.412   .     S
C754   C755    1.528   .     S
C754   H789    1.116   .     S
C755   C756    1.527   .     S
C755   H792    1.112   .     S
C755   H791    1.112   .     S
C756   H793    1.111   .     S
C756   H504    1.110   1_655 S
C756   H505    1.111   1_655 S
C757   H797    1.109   .     S
C757   C758    1.535   .     S
C758   H798    1.110   .     S
C758   C760    1.527   .     S
C758   H799    1.110   .     S
C759   C775    1.424   .     A
C759   C770    1.419   .     A
C760   H800    1.111   .     S
C760   H802    1.110   .     S
C760   H803    1.111   .     S
C761   H805    1.110   .     S
C761   H806    1.109   .     S
C761   O852    1.411   .     S
C761   H804    1.113   .     S
C762   O853    1.421   .     S
C762   C763    1.527   .     S
C762   H807    1.110   .     S
C762   H808    1.118   .     S
C763   H810    1.106   .     S
C763   H809    1.111   .     S
C764   H813    1.107   .     S
C764   H811    1.110   .     S
C764   H814    1.111   .     S
C764   C1198   1.525   .     S
C765   H817    1.111   .     S
C765   O855    1.413   .     S
C765   H816    1.109   .     S
C765   H2120   1.111   .     S
C766   H818    1.114   .     S
C766   H819    1.112   .     S
C766   O856    1.412   .     S
C766   H820    1.107   .     S
C767   H821    1.109   .     S
C767   C768    1.525   .     S
C767   H822    1.109   .     S
C767   O857    1.423   .     S
C768   H825    1.110   .     S
C768   C1204   1.529   .     S
C768   H1259   1.107   .     S
C769   H828    1.111   .     S
C769   H827    1.107   .     S
C770   C2083   1.412   .     S
C771   H830    1.116   .     S
C771   H829    1.111   .     S
C771   C772    1.533   .     S
C771   O858    1.417   .     S
C772   C773    1.527   .     S
C772   H831    1.112   .     S
C772   H832    1.111   .     S
C773   H835    1.111   .     S
C773   H833    1.111   .     S
C773   H836    1.111   .     S
C774   O859    1.413   .     S
C774   H838    1.111   .     S
C774   H839    1.107   .     S
C774   H837    1.109   .     S
C775   C2081   1.417   .     S
C776   C777    1.411   .     A
C776   C2080   1.417   1_554 S
C777   C778    1.397   .     A
C777   H801    1.071   .     S
C778   O848    1.384   .     S
C778   C2075   1.412   1_554 S
H781   C2056   1.111   .     S
H783   C1912   1.111   .     S
H785   C463    1.110   1_655 S
H787   C2058   1.111   .     S
H788   C1189   1.114   .     S
H790   C446    1.086   1_655 S
H796   C1192   1.111   .     S
H815   C2070   1.111   1_554 S
H826   C1204   1.111   .     S
O843   Zn869   1.926   .     S
O843   Zn868   1.948   .     S
O843   Zn870   1.925   .     S
O843   Zn867   1.967   .     S
O844   Zn868   1.924   .     S
O845   Zn870   1.941   .     S
O846   Zn869   1.935   .     S
O847   Zn867   1.920   .     S
O851   C1174   1.406   .     S
O851   C1192   1.419   .     S
O854   Zn867   1.941   .     S
O860   Zn870   1.942   .     S
O861   Zn868   1.913   .     S
O862   Zn869   1.930   .     S
O863   Zn870   1.925   .     S
O864   Zn867   1.909   .     S
O865   Zn868   1.950   .     S
O866   Zn869   1.942   .     S
C871   C881    1.433   .     S
C871   O1006   1.271   .     A
C871   O1008   1.271   .     A
C872   C920    1.416   .     A
C872   O1004   1.387   .     S
C872   C873    1.392   .     A
C873   O1000   1.382   .     S
C873   C2180   1.405   .     S
C874   O1007   1.284   .     A
C874   C880    1.453   .     S
C874   O1009   1.278   .     A
C875   C876    1.426   .     A
C875   C877    1.411   .     A
C875   C2178   1.405   1_554 S
C876   C879    1.425   .     A
C876   C921    1.440   .     A
C877   O994    1.391   .     S
C877   C878    1.407   .     A
C878   O998    1.386   .     S
C878   C890    1.400   .     A
C879   C890    1.405   .     A
C879   O997    1.380   .     S
C880   C1026   1.335   .     S
C880   H1069   1.088   .     S
C881   C1170   1.335   1_455 S
C881   H1225   1.086   1_455 S
C882   C891    1.403   .     A
C882   O1002   1.390   .     S
C882   C889    1.413   .     A
C883   C886    1.467   .     S
C883   C14     1.355   1_565 S
C883   O125    1.388   1_565 S
C884   C885    1.452   .     S
C885   O999    1.282   .     A
C885   O1010   1.273   .     A
C886   O1011   1.274   .     A
C886   O1005   1.256   .     A
C887   C890    1.458   .     S
C887   O991    1.274   .     A
C887   O989    1.275   .     A
C888   C889    1.481   .     S
C888   O992    1.290   .     A
C888   O990    1.280   .     A
C889   C893    1.398   .     A
C891   O1001   1.383   .     S
C891   C915    1.418   .     A
C892   H968    1.115   .     S
C892   O993    1.415   .     S
C892   H957    1.115   .     S
C892   C894    1.528   .     S
C893   C904    1.420   .     A
C893   O1003   1.387   .     S
C894   H979    1.111   .     S
C894   H985    1.112   .     S
C894   C25     1.528   1_565 S
C895   H986    1.111   .     S
C895   H925    1.110   .     S
C895   H987    1.110   .     S
C896   C897    1.530   .     S
C896   O994    1.412   .     S
C896   H927    1.108   .     S
C896   H2231   1.111   1_554 S
C897   H929    1.110   .     S
C897   C1043   1.524   .     S
C897   H2378   1.111   1_554 S
C898   H931    1.110   .     S
C898   C1187   1.524   1_455 S
C898   H1220   1.110   1_455 S
C898   H2237   1.111   1_554 S
C899   O995    1.412   .     S
C899   C900    1.528   .     S
C899   H934    1.116   .     S
C900   C901    1.527   .     S
C900   H937    1.112   .     S
C900   H936    1.112   .     S
C901   H938    1.111   .     S
C901   H1084   1.110   .     S
C901   H1085   1.111   .     S
C902   H942    1.109   .     S
C902   C903    1.535   .     S
C903   H943    1.110   .     S
C903   C905    1.527   .     S
C903   H944    1.110   .     S
C904   C920    1.424   .     A
C904   C915    1.419   .     A
C905   H945    1.111   .     S
C905   H947    1.110   .     S
C905   H948    1.111   .     S
C906   H950    1.110   .     S
C906   H951    1.109   .     S
C906   O997    1.411   .     S
C906   H949    1.113   .     S
C907   O998    1.421   .     S
C907   C908    1.527   .     S
C907   H952    1.110   .     S
C907   H953    1.118   .     S
C908   H955    1.106   .     S
C908   H954    1.111   .     S
C909   H958    1.107   .     S
C909   H956    1.110   .     S
C909   H959    1.111   .     S
C909   C38     1.525   1_565 S
C910   H962    1.111   .     S
C910   O1000   1.413   .     S
C910   H961    1.109   .     S
C910   H2265   1.111   .     S
C911   H963    1.114   .     S
C911   H964    1.112   .     S
C911   O1001   1.412   .     S
C911   H965    1.107   .     S
C912   H966    1.109   .     S
C912   C913    1.525   .     S
C912   H967    1.109   .     S
C912   O1002   1.423   .     S
C913   H970    1.110   .     S
C913   C44     1.529   1_565 S
C913   H99     1.107   1_565 S
C914   H973    1.111   .     S
C914   H972    1.107   .     S
C915   C2228   1.412   .     S
C916   H975    1.116   .     S
C916   H974    1.111   .     S
C916   C917    1.533   .     S
C916   O1003   1.417   .     S
C917   C918    1.527   .     S
C917   H976    1.112   .     S
C917   H977    1.111   .     S
C918   H980    1.111   .     S
C918   H978    1.111   .     S
C918   H981    1.111   .     S
C919   O1004   1.413   .     S
C919   H983    1.111   .     S
C919   H984    1.107   .     S
C919   H982    1.109   .     S
C920   C2226   1.417   .     S
C921   C922    1.411   .     A
C921   C2225   1.417   1_554 S
C922   C923    1.397   .     A
C922   H946    1.071   .     S
C923   O993    1.384   .     S
C923   C2220   1.412   1_554 S
H924   C1170   1.088   1_455 S
H926   C2201   1.111   .     S
H928   C2492   1.111   1_455 S
H930   C1043   1.110   .     S
H932   C2203   1.111   .     S
H933   C29     1.114   1_565 S
H935   C1026   1.086   .     S
H939   C1191   1.110   1_455 S
H940   C1191   1.111   1_455 S
H941   C32     1.111   1_565 S
H960   C2215   1.111   1_554 S
H971   C44     1.111   1_565 S
O988   Zn1014  1.926   .     S
O988   Zn1013  1.948   .     S
O988   Zn1015  1.925   .     S
O988   Zn1012  1.967   .     S
O989   Zn1013  1.924   .     S
O990   Zn1015  1.941   .     S
O991   Zn1014  1.935   .     S
O992   Zn1012  1.920   .     S
O996   C14     1.406   1_565 S
O996   C32     1.419   1_565 S
O999   Zn1012  1.941   .     S
O1005  Zn1015  1.942   .     S
O1006  Zn1013  1.913   .     S
O1007  Zn1014  1.930   .     S
O1008  Zn1015  1.925   .     S
O1009  Zn1012  1.909   .     S
O1010  Zn1013  1.950   .     S
O1011  Zn1014  1.942   .     S
C1016  C1026   1.433   .     S
C1016  O1151   1.271   .     A
C1016  O1153   1.271   .     A
C1017  C1065   1.416   .     A
C1017  O1149   1.387   .     S
C1017  C1018   1.392   .     A
C1018  O1145   1.382   .     S
C1018  C2325   1.405   .     S
C1019  O1152   1.284   .     A
C1019  C1025   1.453   .     S
C1019  O1154   1.278   .     A
C1020  C1021   1.426   .     A
C1020  C1022   1.411   .     A
C1020  C2323   1.405   1_554 S
C1021  C1024   1.425   .     A
C1021  C1066   1.440   .     A
C1022  O1139   1.391   .     S
C1022  C1023   1.407   .     A
C1023  O1143   1.386   .     S
C1023  C1035   1.400   .     A
C1024  C1035   1.405   .     A
C1024  O1142   1.380   .     S
C1025  C1171   1.335   .     S
C1025  H1214   1.088   .     S
C1027  C1036   1.403   .     A
C1027  O1147   1.390   .     S
C1027  C1034   1.413   .     A
C1028  C1031   1.467   .     S
C1028  C159    1.355   1_565 S
C1028  O270    1.388   1_565 S
C1029  C1030   1.452   .     S
C1030  O1144   1.282   .     A
C1030  O1155   1.273   .     A
C1031  O1156   1.274   .     A
C1031  O1150   1.256   .     A
C1032  C1035   1.458   .     S
C1032  O1136   1.274   .     A
C1032  O1134   1.275   .     A
C1033  C1034   1.481   .     S
C1033  O1137   1.290   .     A
C1033  O1135   1.280   .     A
C1034  C1038   1.398   .     A
C1036  O1146   1.383   .     S
C1036  C1060   1.418   .     A
C1037  H1113   1.115   .     S
C1037  O1138   1.415   .     S
C1037  H1102   1.115   .     S
C1037  C1039   1.528   .     S
C1038  C1049   1.420   .     A
C1038  O1148   1.387   .     S
C1039  H1124   1.111   .     S
C1039  H1130   1.112   .     S
C1039  C170    1.528   1_565 S
C1040  H1131   1.111   .     S
C1040  H1070   1.110   .     S
C1040  H1132   1.110   .     S
C1041  C1042   1.530   .     S
C1041  O1139   1.412   .     S
C1041  H1072   1.108   .     S
C1041  H2376   1.111   1_554 S
C1042  H1074   1.110   .     S
C1042  C1188   1.524   .     S
C1042  H2523   1.111   1_554 S
C1043  H1076   1.110   .     S
C1043  H2382   1.111   1_554 S
C1044  O1140   1.412   .     S
C1044  C1045   1.528   .     S
C1044  H1079   1.116   .     S
C1045  C1046   1.527   .     S
C1045  H1082   1.112   .     S
C1045  H1081   1.112   .     S
C1046  H1083   1.111   .     S
C1046  H1229   1.110   .     S
C1046  H1230   1.111   .     S
C1047  H1087   1.109   .     S
C1047  C1048   1.535   .     S
C1048  H1088   1.110   .     S
C1048  C1050   1.527   .     S
C1048  H1089   1.110   .     S
C1049  C1065   1.424   .     A
C1049  C1060   1.419   .     A
C1050  H1090   1.111   .     S
C1050  H1092   1.110   .     S
C1050  H1093   1.111   .     S
C1051  H1095   1.110   .     S
C1051  H1096   1.109   .     S
C1051  O1142   1.411   .     S
C1051  H1094   1.113   .     S
C1052  O1143   1.421   .     S
C1052  C1053   1.527   .     S
C1052  H1097   1.110   .     S
C1052  H1098   1.118   .     S
C1053  H1100   1.106   .     S
C1053  H1099   1.111   .     S
C1054  H1103   1.107   .     S
C1054  H1101   1.110   .     S
C1054  H1104   1.111   .     S
C1054  C183    1.525   1_565 S
C1055  H1107   1.111   .     S
C1055  O1145   1.413   .     S
C1055  H1106   1.109   .     S
C1055  H2410   1.111   .     S
C1056  H1108   1.114   .     S
C1056  H1109   1.112   .     S
C1056  O1146   1.412   .     S
C1056  H1110   1.107   .     S
C1057  H1111   1.109   .     S
C1057  C1058   1.525   .     S
C1057  H1112   1.109   .     S
C1057  O1147   1.423   .     S
C1058  H1115   1.110   .     S
C1058  C189    1.529   1_565 S
C1058  H244    1.107   1_565 S
C1059  H1118   1.111   .     S
C1059  H1117   1.107   .     S
C1060  C2373   1.412   .     S
C1061  H1120   1.116   .     S
C1061  H1119   1.111   .     S
C1061  C1062   1.533   .     S
C1061  O1148   1.417   .     S
C1062  C1063   1.527   .     S
C1062  H1121   1.112   .     S
C1062  H1122   1.111   .     S
C1063  H1125   1.111   .     S
C1063  H1123   1.111   .     S
C1063  H1126   1.111   .     S
C1064  O1149   1.413   .     S
C1064  H1128   1.111   .     S
C1064  H1129   1.107   .     S
C1064  H1127   1.109   .     S
C1065  C2371   1.417   .     S
C1066  C1067   1.411   .     A
C1066  C2370   1.417   1_554 S
C1067  C1068   1.397   .     A
C1067  H1091   1.071   .     S
C1068  O1138   1.384   .     S
C1068  C2365   1.412   1_554 S
H1071  C2346   1.111   .     S
H1073  C2202   1.111   .     S
H1075  C1188   1.110   .     S
H1077  C2348   1.111   .     S
H1078  C174    1.114   1_565 S
H1080  C1171   1.086   .     S
H1086  C177    1.111   1_565 S
H1105  C2360   1.111   1_554 S
H1116  C189    1.111   1_565 S
O1133  Zn1159  1.926   .     S
O1133  Zn1158  1.948   .     S
O1133  Zn1160  1.925   .     S
O1133  Zn1157  1.967   .     S
O1134  Zn1158  1.924   .     S
O1135  Zn1160  1.941   .     S
O1136  Zn1159  1.935   .     S
O1137  Zn1157  1.920   .     S
O1141  C159    1.406   1_565 S
O1141  C177    1.419   1_565 S
O1144  Zn1157  1.941   .     S
O1150  Zn1160  1.942   .     S
O1151  Zn1158  1.913   .     S
O1152  Zn1159  1.930   .     S
O1153  Zn1160  1.925   .     S
O1154  Zn1157  1.909   .     S
O1155  Zn1158  1.950   .     S
O1156  Zn1159  1.942   .     S
C1161  C1171   1.433   .     S
C1161  O1296   1.271   .     A
C1161  O1298   1.271   .     A
C1162  C1210   1.416   .     A
C1162  O1294   1.387   .     S
C1162  C1163   1.392   .     A
C1163  O1290   1.382   .     S
C1163  C2470   1.405   .     S
C1164  O1297   1.284   .     A
C1164  C1170   1.453   .     S
C1164  O1299   1.278   .     A
C1165  C1166   1.426   .     A
C1165  C1167   1.411   .     A
C1165  C2468   1.405   1_554 S
C1166  C1169   1.425   .     A
C1166  C1211   1.440   .     A
C1167  O1284   1.391   .     S
C1167  C1168   1.407   .     A
C1168  O1288   1.386   .     S
C1168  C1180   1.400   .     A
C1169  C1180   1.405   .     A
C1169  O1287   1.380   .     S
C1170  C881    1.335   1_655 S
C1170  H924    1.088   1_655 S
C1172  C1181   1.403   .     A
C1172  O1292   1.390   .     S
C1172  C1179   1.413   .     A
C1173  C1176   1.467   .     S
C1173  C304    1.355   1_565 S
C1173  O415    1.388   1_565 S
C1174  C1175   1.452   .     S
C1175  O1289   1.282   .     A
C1175  O1300   1.273   .     A
C1176  O1301   1.274   .     A
C1176  O1295   1.256   .     A
C1177  C1180   1.458   .     S
C1177  O1281   1.274   .     A
C1177  O1279   1.275   .     A
C1178  C1179   1.481   .     S
C1178  O1282   1.290   .     A
C1178  O1280   1.280   .     A
C1179  C1183   1.398   .     A
C1181  O1291   1.383   .     S
C1181  C1205   1.418   .     A
C1182  H1258   1.115   .     S
C1182  O1283   1.415   .     S
C1182  H1247   1.115   .     S
C1182  C1184   1.528   .     S
C1183  C1194   1.420   .     A
C1183  O1293   1.387   .     S
C1184  H1269   1.111   .     S
C1184  H1275   1.112   .     S
C1184  C315    1.528   1_565 S
C1185  H1276   1.111   .     S
C1185  H1215   1.110   .     S
C1185  H1277   1.110   .     S
C1186  C1187   1.530   .     S
C1186  O1284   1.412   .     S
C1186  H1217   1.108   .     S
C1186  H2521   1.111   1_554 S
C1187  H1219   1.110   .     S
C1187  C898    1.524   1_655 S
C1187  H2233   1.111   1_654 S
C1188  H1221   1.110   .     S
C1188  H2527   1.111   1_554 S
C1189  O1285   1.412   .     S
C1189  C1190   1.528   .     S
C1189  H1224   1.116   .     S
C1190  C1191   1.527   .     S
C1190  H1227   1.112   .     S
C1190  H1226   1.112   .     S
C1191  H1228   1.111   .     S
C1191  H939    1.110   1_655 S
C1191  H940    1.111   1_655 S
C1192  H1232   1.109   .     S
C1192  C1193   1.535   .     S
C1193  H1233   1.110   .     S
C1193  C1195   1.527   .     S
C1193  H1234   1.110   .     S
C1194  C1210   1.424   .     A
C1194  C1205   1.419   .     A
C1195  H1235   1.111   .     S
C1195  H1237   1.110   .     S
C1195  H1238   1.111   .     S
C1196  H1240   1.110   .     S
C1196  H1241   1.109   .     S
C1196  O1287   1.411   .     S
C1196  H1239   1.113   .     S
C1197  O1288   1.421   .     S
C1197  C1198   1.527   .     S
C1197  H1242   1.110   .     S
C1197  H1243   1.118   .     S
C1198  H1245   1.106   .     S
C1198  H1244   1.111   .     S
C1199  H1248   1.107   .     S
C1199  H1246   1.110   .     S
C1199  H1249   1.111   .     S
C1199  C328    1.525   1_565 S
C1200  H1252   1.111   .     S
C1200  O1290   1.413   .     S
C1200  H1251   1.109   .     S
C1200  H2555   1.111   .     S
C1201  H1253   1.114   .     S
C1201  H1254   1.112   .     S
C1201  O1291   1.412   .     S
C1201  H1255   1.107   .     S
C1202  H1256   1.109   .     S
C1202  C1203   1.525   .     S
C1202  H1257   1.109   .     S
C1202  O1292   1.423   .     S
C1203  H1260   1.110   .     S
C1203  C334    1.529   1_565 S
C1203  H389    1.107   1_565 S
C1204  H1263   1.111   .     S
C1204  H1262   1.107   .     S
C1205  C2518   1.412   .     S
C1206  H1265   1.116   .     S
C1206  H1264   1.111   .     S
C1206  C1207   1.533   .     S
C1206  O1293   1.417   .     S
C1207  C1208   1.527   .     S
C1207  H1266   1.112   .     S
C1207  H1267   1.111   .     S
C1208  H1270   1.111   .     S
C1208  H1268   1.111   .     S
C1208  H1271   1.111   .     S
C1209  O1294   1.413   .     S
C1209  H1273   1.111   .     S
C1209  H1274   1.107   .     S
C1209  H1272   1.109   .     S
C1210  C2516   1.417   .     S
C1211  C1212   1.411   .     A
C1211  C2515   1.417   1_554 S
C1212  C1213   1.397   .     A
C1212  H1236   1.071   .     S
C1213  O1283   1.384   .     S
C1213  C2510   1.412   1_554 S
H1216  C2491   1.111   .     S
H1218  C2347   1.111   .     S
H1220  C898    1.110   1_655 S
H1222  C2493   1.111   .     S
H1223  C319    1.114   1_565 S
H1225  C881    1.086   1_655 S
H1231  C322    1.111   1_565 S
H1250  C2505   1.111   1_554 S
H1261  C334    1.111   1_565 S
O1278  Zn1304  1.926   .     S
O1278  Zn1303  1.948   .     S
O1278  Zn1305  1.925   .     S
O1278  Zn1302  1.967   .     S
O1279  Zn1303  1.924   .     S
O1280  Zn1305  1.941   .     S
O1281  Zn1304  1.935   .     S
O1282  Zn1302  1.920   .     S
O1286  C304    1.406   1_565 S
O1286  C322    1.419   1_565 S
O1289  Zn1302  1.941   .     S
O1295  Zn1305  1.942   .     S
O1296  Zn1303  1.913   .     S
O1297  Zn1304  1.930   .     S
O1298  Zn1305  1.925   .     S
O1299  Zn1302  1.909   .     S
O1300  Zn1303  1.950   .     S
O1301  Zn1304  1.942   .     S
C1306  C1316   1.433   .     S
C1306  O1441   1.271   .     A
C1306  O1443   1.271   .     A
C1307  C1355   1.416   .     A
C1307  O1439   1.387   .     S
C1307  C1308   1.392   .     A
C1308  O1435   1.382   .     S
C1308  C5      1.405   1_556 S
C1309  O1442   1.284   .     A
C1309  C1315   1.453   .     S
C1309  O1444   1.278   .     A
C1310  C1311   1.426   .     A
C1310  C1312   1.411   .     A
C1311  C1314   1.425   .     A
C1311  C1356   1.440   .     A
C1312  O1429   1.391   .     S
C1312  C1313   1.407   .     A
C1313  O1433   1.386   .     S
C1313  C1325   1.400   .     A
C1314  C1325   1.405   .     A
C1314  O1432   1.380   .     S
C1315  C1461   1.335   .     S
C1315  H1504   1.088   .     S
C1316  C1605   1.335   1_455 S
C1316  H1660   1.086   1_455 S
C1317  C1326   1.403   .     A
C1317  O1437   1.390   .     S
C1317  C1324   1.413   .     A
C1318  C1321   1.467   .     S
C1318  C1754   1.355   .     S
C1318  O1865   1.388   .     S
C1319  C1320   1.452   .     S
C1319  C2188   1.355   1_545 S
C1319  O2301   1.406   1_545 S
C1320  O1434   1.282   .     A
C1320  O1445   1.273   .     A
C1321  O1446   1.274   .     A
C1321  O1440   1.256   .     A
C1322  C1325   1.458   .     S
C1322  O1426   1.274   .     A
C1322  O1424   1.275   .     A
C1323  C1324   1.481   .     S
C1323  O1427   1.290   .     A
C1323  O1425   1.280   .     A
C1324  C1328   1.398   .     A
C1326  O1436   1.383   .     S
C1326  C1350   1.418   .     A
C1327  H1403   1.115   .     S
C1327  O1428   1.415   .     S
C1327  H1392   1.115   .     S
C1327  C1329   1.528   .     S
C1328  C1339   1.420   .     A
C1328  O1438   1.387   .     S
C1329  H1414   1.111   .     S
C1329  H1420   1.112   .     S
C1329  C1765   1.528   .     S
C1330  H1421   1.111   .     S
C1330  H1360   1.110   .     S
C1330  H1422   1.110   .     S
C1330  C2199   1.528   1_545 S
C1331  C1332   1.530   .     S
C1331  O1429   1.412   .     S
C1331  H1362   1.108   .     S
C1332  H1364   1.110   .     S
C1332  C1478   1.524   .     S
C1333  H1366   1.110   .     S
C1333  C1622   1.524   1_455 S
C1333  H1655   1.110   1_455 S
C1334  O1430   1.412   .     S
C1334  C1335   1.528   .     S
C1334  H1369   1.116   .     S
C1334  H2238   1.114   1_545 S
C1335  C1336   1.527   .     S
C1335  H1372   1.112   .     S
C1335  H1371   1.112   .     S
C1336  H1373   1.111   .     S
C1336  H1519   1.110   .     S
C1336  H1520   1.111   .     S
C1337  H1377   1.109   .     S
C1337  C1338   1.535   .     S
C1337  H2246   1.111   1_545 S
C1337  O2301   1.419   1_545 S
C1338  H1378   1.110   .     S
C1338  C1340   1.527   .     S
C1338  H1379   1.110   .     S
C1339  C1355   1.424   .     A
C1339  C1350   1.419   .     A
C1340  H1380   1.111   .     S
C1340  H1382   1.110   .     S
C1340  H1383   1.111   .     S
C1341  H1385   1.110   .     S
C1341  H1386   1.109   .     S
C1341  O1432   1.411   .     S
C1341  H1384   1.113   .     S
C1342  O1433   1.421   .     S
C1342  C1343   1.527   .     S
C1342  H1387   1.110   .     S
C1342  H1388   1.118   .     S
C1343  H1390   1.106   .     S
C1343  H1389   1.111   .     S
C1343  C2214   1.525   1_545 S
C1344  H1393   1.107   .     S
C1344  H1391   1.110   .     S
C1344  H1394   1.111   .     S
C1344  C1778   1.525   .     S
C1345  H1397   1.111   .     S
C1345  O1435   1.413   .     S
C1345  H1396   1.109   .     S
C1345  H90     1.111   1_556 S
C1346  H1398   1.114   .     S
C1346  H1399   1.112   .     S
C1346  O1436   1.412   .     S
C1346  H1400   1.107   .     S
C1347  H1401   1.109   .     S
C1347  C1348   1.525   .     S
C1347  H1402   1.109   .     S
C1347  O1437   1.423   .     S
C1348  H1405   1.110   .     S
C1348  C1784   1.529   .     S
C1348  H1839   1.107   .     S
C1349  H1408   1.111   .     S
C1349  H1407   1.107   .     S
C1349  C2218   1.529   1_545 S
C1349  H2276   1.111   1_545 S
C1350  C53     1.412   1_556 S
C1351  H1410   1.116   .     S
C1351  H1409   1.111   .     S
C1351  C1352   1.533   .     S
C1351  O1438   1.417   .     S
C1352  C1353   1.527   .     S
C1352  H1411   1.112   .     S
C1352  H1412   1.111   .     S
C1353  H1415   1.111   .     S
C1353  H1413   1.111   .     S
C1353  H1416   1.111   .     S
C1354  O1439   1.413   .     S
C1354  H1418   1.111   .     S
C1354  H1419   1.107   .     S
C1354  H1417   1.109   .     S
C1355  C51     1.417   1_556 S
C1356  C1357   1.411   .     A
C1357  C1358   1.397   .     A
C1357  H1381   1.071   .     S
C1358  O1428   1.384   .     S
H1359  C1605   1.088   1_455 S
H1361  C26     1.111   1_556 S
H1363  C317    1.111   1_456 S
H1365  C1478   1.110   .     S
H1367  C28     1.111   1_556 S
H1368  C1769   1.114   .     S
H1370  C1461   1.086   .     S
H1374  C1626   1.110   1_455 S
H1375  C1626   1.111   1_455 S
H1376  C1772   1.111   .     S
H1404  C2218   1.107   1_545 S
H1406  C1784   1.111   .     S
O1423  Zn1449  1.926   .     S
O1423  Zn1448  1.948   .     S
O1423  Zn1450  1.925   .     S
O1423  Zn1447  1.967   .     S
O1424  Zn1448  1.924   .     S
O1425  Zn1450  1.941   .     S
O1426  Zn1449  1.935   .     S
O1427  Zn1447  1.920   .     S
O1430  C2188   1.388   1_545 S
O1431  C1754   1.406   .     S
O1431  C1772   1.419   .     S
O1434  Zn1447  1.941   .     S
O1440  Zn1450  1.942   .     S
O1441  Zn1448  1.913   .     S
O1442  Zn1449  1.930   .     S
O1443  Zn1450  1.925   .     S
O1444  Zn1447  1.909   .     S
O1445  Zn1448  1.950   .     S
O1446  Zn1449  1.942   .     S
C1451  C1461   1.433   .     S
C1451  O1586   1.271   .     A
C1451  O1588   1.271   .     A
C1452  C1500   1.416   .     A
C1452  O1584   1.387   .     S
C1452  C1453   1.392   .     A
C1453  O1580   1.382   .     S
C1453  C150    1.405   1_556 S
C1454  O1587   1.284   .     A
C1454  C1460   1.453   .     S
C1454  O1589   1.278   .     A
C1455  C1456   1.426   .     A
C1455  C1457   1.411   .     A
C1456  C1459   1.425   .     A
C1456  C1501   1.440   .     A
C1457  O1574   1.391   .     S
C1457  C1458   1.407   .     A
C1458  O1578   1.386   .     S
C1458  C1470   1.400   .     A
C1459  C1470   1.405   .     A
C1459  O1577   1.380   .     S
C1460  C1606   1.335   .     S
C1460  H1649   1.088   .     S
C1462  C1471   1.403   .     A
C1462  O1582   1.390   .     S
C1462  C1469   1.413   .     A
C1463  C1466   1.467   .     S
C1463  C1899   1.355   .     S
C1463  O2010   1.388   .     S
C1464  C1465   1.452   .     S
C1464  C2333   1.355   1_545 S
C1464  O2446   1.406   1_545 S
C1465  O1579   1.282   .     A
C1465  O1590   1.273   .     A
C1466  O1591   1.274   .     A
C1466  O1585   1.256   .     A
C1467  C1470   1.458   .     S
C1467  O1571   1.274   .     A
C1467  O1569   1.275   .     A
C1468  C1469   1.481   .     S
C1468  O1572   1.290   .     A
C1468  O1570   1.280   .     A
C1469  C1473   1.398   .     A
C1471  O1581   1.383   .     S
C1471  C1495   1.418   .     A
C1472  H1548   1.115   .     S
C1472  O1573   1.415   .     S
C1472  H1537   1.115   .     S
C1472  C1474   1.528   .     S
C1473  C1484   1.420   .     A
C1473  O1583   1.387   .     S
C1474  H1559   1.111   .     S
C1474  H1565   1.112   .     S
C1474  C1910   1.528   .     S
C1475  H1566   1.111   .     S
C1475  H1505   1.110   .     S
C1475  H1567   1.110   .     S
C1475  C2344   1.528   1_545 S
C1476  C1477   1.530   .     S
C1476  O1574   1.412   .     S
C1476  H1507   1.108   .     S
C1477  H1509   1.110   .     S
C1477  C1623   1.524   .     S
C1478  H1511   1.110   .     S
C1479  O1575   1.412   .     S
C1479  C1480   1.528   .     S
C1479  H1514   1.116   .     S
C1479  H2383   1.114   1_545 S
C1480  C1481   1.527   .     S
C1480  H1517   1.112   .     S
C1480  H1516   1.112   .     S
C1481  H1518   1.111   .     S
C1481  H1664   1.110   .     S
C1481  H1665   1.111   .     S
C1482  H1522   1.109   .     S
C1482  C1483   1.535   .     S
C1482  H2391   1.111   1_545 S
C1482  O2446   1.419   1_545 S
C1483  H1523   1.110   .     S
C1483  C1485   1.527   .     S
C1483  H1524   1.110   .     S
C1484  C1500   1.424   .     A
C1484  C1495   1.419   .     A
C1485  H1525   1.111   .     S
C1485  H1527   1.110   .     S
C1485  H1528   1.111   .     S
C1486  H1530   1.110   .     S
C1486  H1531   1.109   .     S
C1486  O1577   1.411   .     S
C1486  H1529   1.113   .     S
C1487  O1578   1.421   .     S
C1487  C1488   1.527   .     S
C1487  H1532   1.110   .     S
C1487  H1533   1.118   .     S
C1488  H1535   1.106   .     S
C1488  H1534   1.111   .     S
C1488  C2359   1.525   1_545 S
C1489  H1538   1.107   .     S
C1489  H1536   1.110   .     S
C1489  H1539   1.111   .     S
C1489  C1923   1.525   .     S
C1490  H1542   1.111   .     S
C1490  O1580   1.413   .     S
C1490  H1541   1.109   .     S
C1490  H235    1.111   1_556 S
C1491  H1543   1.114   .     S
C1491  H1544   1.112   .     S
C1491  O1581   1.412   .     S
C1491  H1545   1.107   .     S
C1492  H1546   1.109   .     S
C1492  C1493   1.525   .     S
C1492  H1547   1.109   .     S
C1492  O1582   1.423   .     S
C1493  H1550   1.110   .     S
C1493  C1929   1.529   .     S
C1493  H1984   1.107   .     S
C1494  H1553   1.111   .     S
C1494  H1552   1.107   .     S
C1494  C2363   1.529   1_545 S
C1494  H2421   1.111   1_545 S
C1495  C198    1.412   1_556 S
C1496  H1555   1.116   .     S
C1496  H1554   1.111   .     S
C1496  C1497   1.533   .     S
C1496  O1583   1.417   .     S
C1497  C1498   1.527   .     S
C1497  H1556   1.112   .     S
C1497  H1557   1.111   .     S
C1498  H1560   1.111   .     S
C1498  H1558   1.111   .     S
C1498  H1561   1.111   .     S
C1499  O1584   1.413   .     S
C1499  H1563   1.111   .     S
C1499  H1564   1.107   .     S
C1499  H1562   1.109   .     S
C1500  C196    1.417   1_556 S
C1501  C1502   1.411   .     A
C1502  C1503   1.397   .     A
C1502  H1526   1.071   .     S
C1503  O1573   1.384   .     S
H1506  C171    1.111   1_556 S
H1508  C27     1.111   1_556 S
H1510  C1623   1.110   .     S
H1512  C173    1.111   1_556 S
H1513  C1914   1.114   .     S
H1515  C1606   1.086   .     S
H1521  C1917   1.111   .     S
H1549  C2363   1.107   1_545 S
H1551  C1929   1.111   .     S
O1568  Zn1594  1.926   .     S
O1568  Zn1593  1.948   .     S
O1568  Zn1595  1.925   .     S
O1568  Zn1592  1.967   .     S
O1569  Zn1593  1.924   .     S
O1570  Zn1595  1.941   .     S
O1571  Zn1594  1.935   .     S
O1572  Zn1592  1.920   .     S
O1575  C2333   1.388   1_545 S
O1576  C1899   1.406   .     S
O1576  C1917   1.419   .     S
O1579  Zn1592  1.941   .     S
O1585  Zn1595  1.942   .     S
O1586  Zn1593  1.913   .     S
O1587  Zn1594  1.930   .     S
O1588  Zn1595  1.925   .     S
O1589  Zn1592  1.909   .     S
O1590  Zn1593  1.950   .     S
O1591  Zn1594  1.942   .     S
C1596  C1606   1.433   .     S
C1596  O1731   1.271   .     A
C1596  O1733   1.271   .     A
C1597  C1645   1.416   .     A
C1597  O1729   1.387   .     S
C1597  C1598   1.392   .     A
C1598  O1725   1.382   .     S
C1598  C295    1.405   1_556 S
C1599  O1732   1.284   .     A
C1599  C1605   1.453   .     S
C1599  O1734   1.278   .     A
C1600  C1601   1.426   .     A
C1600  C1602   1.411   .     A
C1601  C1604   1.425   .     A
C1601  C1646   1.440   .     A
C1602  O1719   1.391   .     S
C1602  C1603   1.407   .     A
C1603  O1723   1.386   .     S
C1603  C1615   1.400   .     A
C1604  C1615   1.405   .     A
C1604  O1722   1.380   .     S
C1605  C1316   1.335   1_655 S
C1605  H1359   1.088   1_655 S
C1607  C1616   1.403   .     A
C1607  O1727   1.390   .     S
C1607  C1614   1.413   .     A
C1608  C1611   1.467   .     S
C1608  C2044   1.355   .     S
C1608  O2155   1.388   .     S
C1609  C1610   1.452   .     S
C1609  C2478   1.355   1_545 S
C1609  O2591   1.406   1_545 S
C1610  O1724   1.282   .     A
C1610  O1735   1.273   .     A
C1611  O1736   1.274   .     A
C1611  O1730   1.256   .     A
C1612  C1615   1.458   .     S
C1612  O1716   1.274   .     A
C1612  O1714   1.275   .     A
C1613  C1614   1.481   .     S
C1613  O1717   1.290   .     A
C1613  O1715   1.280   .     A
C1614  C1618   1.398   .     A
C1616  O1726   1.383   .     S
C1616  C1640   1.418   .     A
C1617  H1693   1.115   .     S
C1617  O1718   1.415   .     S
C1617  H1682   1.115   .     S
C1617  C1619   1.528   .     S
C1618  C1629   1.420   .     A
C1618  O1728   1.387   .     S
C1619  H1704   1.111   .     S
C1619  H1710   1.112   .     S
C1619  C2055   1.528   .     S
C1620  H1711   1.111   .     S
C1620  H1650   1.110   .     S
C1620  H1712   1.110   .     S
C1620  C2489   1.528   1_545 S
C1621  C1622   1.530   .     S
C1621  O1719   1.412   .     S
C1621  H1652   1.108   .     S
C1622  H1654   1.110   .     S
C1622  C1333   1.524   1_655 S
C1622  H58     1.111   1_655 S
C1623  H1656   1.110   .     S
C1624  O1720   1.412   .     S
C1624  C1625   1.528   .     S
C1624  H1659   1.116   .     S
C1624  H2528   1.114   1_545 S
C1625  C1626   1.527   .     S
C1625  H1662   1.112   .     S
C1625  H1661   1.112   .     S
C1626  H1663   1.111   .     S
C1626  H1374   1.110   1_655 S
C1626  H1375   1.111   1_655 S
C1627  H1667   1.109   .     S
C1627  C1628   1.535   .     S
C1627  H2536   1.111   1_545 S
C1627  O2591   1.419   1_545 S
C1628  H1668   1.110   .     S
C1628  C1630   1.527   .     S
C1628  H1669   1.110   .     S
C1629  C1645   1.424   .     A
C1629  C1640   1.419   .     A
C1630  H1670   1.111   .     S
C1630  H1672   1.110   .     S
C1630  H1673   1.111   .     S
C1631  H1675   1.110   .     S
C1631  H1676   1.109   .     S
C1631  O1722   1.411   .     S
C1631  H1674   1.113   .     S
C1632  O1723   1.421   .     S
C1632  C1633   1.527   .     S
C1632  H1677   1.110   .     S
C1632  H1678   1.118   .     S
C1633  H1680   1.106   .     S
C1633  H1679   1.111   .     S
C1633  C2504   1.525   1_545 S
C1634  H1683   1.107   .     S
C1634  H1681   1.110   .     S
C1634  H1684   1.111   .     S
C1634  C2068   1.525   .     S
C1635  H1687   1.111   .     S
C1635  O1725   1.413   .     S
C1635  H1686   1.109   .     S
C1635  H380    1.111   1_556 S
C1636  H1688   1.114   .     S
C1636  H1689   1.112   .     S
C1636  O1726   1.412   .     S
C1636  H1690   1.107   .     S
C1637  H1691   1.109   .     S
C1637  C1638   1.525   .     S
C1637  H1692   1.109   .     S
C1637  O1727   1.423   .     S
C1638  H1695   1.110   .     S
C1638  C2074   1.529   .     S
C1638  H2129   1.107   .     S
C1639  H1698   1.111   .     S
C1639  H1697   1.107   .     S
C1639  C2508   1.529   1_545 S
C1639  H2566   1.111   1_545 S
C1640  C343    1.412   1_556 S
C1641  H1700   1.116   .     S
C1641  H1699   1.111   .     S
C1641  C1642   1.533   .     S
C1641  O1728   1.417   .     S
C1642  C1643   1.527   .     S
C1642  H1701   1.112   .     S
C1642  H1702   1.111   .     S
C1643  H1705   1.111   .     S
C1643  H1703   1.111   .     S
C1643  H1706   1.111   .     S
C1644  O1729   1.413   .     S
C1644  H1708   1.111   .     S
C1644  H1709   1.107   .     S
C1644  H1707   1.109   .     S
C1645  C341    1.417   1_556 S
C1646  C1647   1.411   .     A
C1647  C1648   1.397   .     A
C1647  H1671   1.071   .     S
C1648  O1718   1.384   .     S
H1651  C316    1.111   1_556 S
H1653  C172    1.111   1_556 S
H1655  C1333   1.110   1_655 S
H1657  C318    1.111   1_556 S
H1658  C2059   1.114   .     S
H1660  C1316   1.086   1_655 S
H1666  C2062   1.111   .     S
H1694  C2508   1.107   1_545 S
H1696  C2074   1.111   .     S
O1713  Zn1739  1.926   .     S
O1713  Zn1738  1.948   .     S
O1713  Zn1740  1.925   .     S
O1713  Zn1737  1.967   .     S
O1714  Zn1738  1.924   .     S
O1715  Zn1740  1.941   .     S
O1716  Zn1739  1.935   .     S
O1717  Zn1737  1.920   .     S
O1720  C2478   1.388   1_545 S
O1721  C2044   1.406   .     S
O1721  C2062   1.419   .     S
O1724  Zn1737  1.941   .     S
O1730  Zn1740  1.942   .     S
O1731  Zn1738  1.913   .     S
O1732  Zn1739  1.930   .     S
O1733  Zn1740  1.925   .     S
O1734  Zn1737  1.909   .     S
O1735  Zn1738  1.950   .     S
O1736  Zn1739  1.942   .     S
C1741  C1751   1.433   .     S
C1741  O1876   1.271   .     A
C1741  O1878   1.271   .     A
C1742  C1790   1.416   .     A
C1742  O1874   1.387   .     S
C1742  C1743   1.392   .     A
C1743  O1870   1.382   .     S
C1743  C440    1.405   1_556 S
C1744  O1877   1.284   .     A
C1744  C1750   1.453   .     S
C1744  O1879   1.278   .     A
C1745  C1746   1.426   .     A
C1745  C1747   1.411   .     A
C1746  C1749   1.425   .     A
C1746  C1791   1.440   .     A
C1747  O1864   1.391   .     S
C1747  C1748   1.407   .     A
C1748  O1868   1.386   .     S
C1748  C1760   1.400   .     A
C1749  C1760   1.405   .     A
C1749  O1867   1.380   .     S
C1750  C1896   1.335   .     S
C1750  H1939   1.088   .     S
C1751  C2040   1.335   1_455 S
C1751  H2095   1.086   1_455 S
C1752  C1761   1.403   .     A
C1752  O1872   1.390   .     S
C1752  C1759   1.413   .     A
C1753  C1756   1.467   .     S
C1753  C2189   1.355   .     S
C1753  O2300   1.388   .     S
C1754  C1755   1.452   .     S
C1755  O1869   1.282   .     A
C1755  O1880   1.273   .     A
C1756  O1881   1.274   .     A
C1756  O1875   1.256   .     A
C1757  C1760   1.458   .     S
C1757  O1861   1.274   .     A
C1757  O1859   1.275   .     A
C1758  C1759   1.481   .     S
C1758  O1862   1.290   .     A
C1758  O1860   1.280   .     A
C1759  C1763   1.398   .     A
C1761  O1871   1.383   .     S
C1761  C1785   1.418   .     A
C1762  H1838   1.115   .     S
C1762  O1863   1.415   .     S
C1762  H1827   1.115   .     S
C1762  C1764   1.528   .     S
C1763  C1774   1.420   .     A
C1763  O1873   1.387   .     S
C1764  H1849   1.111   .     S
C1764  H1855   1.112   .     S
C1764  C2200   1.528   .     S
C1765  H1856   1.111   .     S
C1765  H1795   1.110   .     S
C1765  H1857   1.110   .     S
C1766  C1767   1.530   .     S
C1766  O1864   1.412   .     S
C1766  H1797   1.108   .     S
C1767  H1799   1.110   .     S
C1767  C1913   1.524   .     S
C1768  H1801   1.110   .     S
C1768  C2057   1.524   1_455 S
C1768  H2090   1.110   1_455 S
C1769  O1865   1.412   .     S
C1769  C1770   1.528   .     S
C1769  H1804   1.116   .     S
C1770  C1771   1.527   .     S
C1770  H1807   1.112   .     S
C1770  H1806   1.112   .     S
C1771  H1808   1.111   .     S
C1771  H1954   1.110   .     S
C1771  H1955   1.111   .     S
C1772  H1812   1.109   .     S
C1772  C1773   1.535   .     S
C1773  H1813   1.110   .     S
C1773  C1775   1.527   .     S
C1773  H1814   1.110   .     S
C1774  C1790   1.424   .     A
C1774  C1785   1.419   .     A
C1775  H1815   1.111   .     S
C1775  H1817   1.110   .     S
C1775  H1818   1.111   .     S
C1776  H1820   1.110   .     S
C1776  H1821   1.109   .     S
C1776  O1867   1.411   .     S
C1776  H1819   1.113   .     S
C1777  O1868   1.421   .     S
C1777  C1778   1.527   .     S
C1777  H1822   1.110   .     S
C1777  H1823   1.118   .     S
C1778  H1825   1.106   .     S
C1778  H1824   1.111   .     S
C1779  H1828   1.107   .     S
C1779  H1826   1.110   .     S
C1779  H1829   1.111   .     S
C1779  C2213   1.525   .     S
C1780  H1832   1.111   .     S
C1780  O1870   1.413   .     S
C1780  H1831   1.109   .     S
C1780  H525    1.111   1_556 S
C1781  H1833   1.114   .     S
C1781  H1834   1.112   .     S
C1781  O1871   1.412   .     S
C1781  H1835   1.107   .     S
C1782  H1836   1.109   .     S
C1782  C1783   1.525   .     S
C1782  H1837   1.109   .     S
C1782  O1872   1.423   .     S
C1783  H1840   1.110   .     S
C1783  C2219   1.529   .     S
C1783  H2274   1.107   .     S
C1784  H1843   1.111   .     S
C1784  H1842   1.107   .     S
C1785  C488    1.412   1_556 S
C1786  H1845   1.116   .     S
C1786  H1844   1.111   .     S
C1786  C1787   1.533   .     S
C1786  O1873   1.417   .     S
C1787  C1788   1.527   .     S
C1787  H1846   1.112   .     S
C1787  H1847   1.111   .     S
C1788  H1850   1.111   .     S
C1788  H1848   1.111   .     S
C1788  H1851   1.111   .     S
C1789  O1874   1.413   .     S
C1789  H1853   1.111   .     S
C1789  H1854   1.107   .     S
C1789  H1852   1.109   .     S
C1790  C486    1.417   1_556 S
C1791  C1792   1.411   .     A
C1792  C1793   1.397   .     A
C1792  H1816   1.071   .     S
C1793  O1863   1.384   .     S
H1794  C2040   1.088   1_455 S
H1796  C461    1.111   1_556 S
H1798  C752    1.111   1_456 S
H1800  C1913   1.110   .     S
H1802  C463    1.111   1_556 S
H1803  C2204   1.114   .     S
H1805  C1896   1.086   .     S
H1809  C2061   1.110   1_455 S
H1810  C2061   1.111   1_455 S
H1811  C2207   1.111   .     S
H1841  C2219   1.111   .     S
O1858  Zn1884  1.926   .     S
O1858  Zn1883  1.948   .     S
O1858  Zn1885  1.925   .     S
O1858  Zn1882  1.967   .     S
O1859  Zn1883  1.924   .     S
O1860  Zn1885  1.941   .     S
O1861  Zn1884  1.935   .     S
O1862  Zn1882  1.920   .     S
O1866  C2189   1.406   .     S
O1866  C2207   1.419   .     S
O1869  Zn1882  1.941   .     S
O1875  Zn1885  1.942   .     S
O1876  Zn1883  1.913   .     S
O1877  Zn1884  1.930   .     S
O1878  Zn1885  1.925   .     S
O1879  Zn1882  1.909   .     S
O1880  Zn1883  1.950   .     S
O1881  Zn1884  1.942   .     S
C1886  C1896   1.433   .     S
C1886  O2021   1.271   .     A
C1886  O2023   1.271   .     A
C1887  C1935   1.416   .     A
C1887  O2019   1.387   .     S
C1887  C1888   1.392   .     A
C1888  O2015   1.382   .     S
C1888  C585    1.405   1_556 S
C1889  O2022   1.284   .     A
C1889  C1895   1.453   .     S
C1889  O2024   1.278   .     A
C1890  C1891   1.426   .     A
C1890  C1892   1.411   .     A
C1891  C1894   1.425   .     A
C1891  C1936   1.440   .     A
C1892  O2009   1.391   .     S
C1892  C1893   1.407   .     A
C1893  O2013   1.386   .     S
C1893  C1905   1.400   .     A
C1894  C1905   1.405   .     A
C1894  O2012   1.380   .     S
C1895  C2041   1.335   .     S
C1895  H2084   1.088   .     S
C1897  C1906   1.403   .     A
C1897  O2017   1.390   .     S
C1897  C1904   1.413   .     A
C1898  C1901   1.467   .     S
C1898  C2334   1.355   .     S
C1898  O2445   1.388   .     S
C1899  C1900   1.452   .     S
C1900  O2014   1.282   .     A
C1900  O2025   1.273   .     A
C1901  O2026   1.274   .     A
C1901  O2020   1.256   .     A
C1902  C1905   1.458   .     S
C1902  O2006   1.274   .     A
C1902  O2004   1.275   .     A
C1903  C1904   1.481   .     S
C1903  O2007   1.290   .     A
C1903  O2005   1.280   .     A
C1904  C1908   1.398   .     A
C1906  O2016   1.383   .     S
C1906  C1930   1.418   .     A
C1907  H1983   1.115   .     S
C1907  O2008   1.415   .     S
C1907  H1972   1.115   .     S
C1907  C1909   1.528   .     S
C1908  C1919   1.420   .     A
C1908  O2018   1.387   .     S
C1909  H1994   1.111   .     S
C1909  H2000   1.112   .     S
C1909  C2345   1.528   .     S
C1910  H2001   1.111   .     S
C1910  H1940   1.110   .     S
C1910  H2002   1.110   .     S
C1911  C1912   1.530   .     S
C1911  O2009   1.412   .     S
C1911  H1942   1.108   .     S
C1912  H1944   1.110   .     S
C1912  C2058   1.524   .     S
C1913  H1946   1.110   .     S
C1914  O2010   1.412   .     S
C1914  C1915   1.528   .     S
C1914  H1949   1.116   .     S
C1915  C1916   1.527   .     S
C1915  H1952   1.112   .     S
C1915  H1951   1.112   .     S
C1916  H1953   1.111   .     S
C1916  H2099   1.110   .     S
C1916  H2100   1.111   .     S
C1917  H1957   1.109   .     S
C1917  C1918   1.535   .     S
C1918  H1958   1.110   .     S
C1918  C1920   1.527   .     S
C1918  H1959   1.110   .     S
C1919  C1935   1.424   .     A
C1919  C1930   1.419   .     A
C1920  H1960   1.111   .     S
C1920  H1962   1.110   .     S
C1920  H1963   1.111   .     S
C1921  H1965   1.110   .     S
C1921  H1966   1.109   .     S
C1921  O2012   1.411   .     S
C1921  H1964   1.113   .     S
C1922  O2013   1.421   .     S
C1922  C1923   1.527   .     S
C1922  H1967   1.110   .     S
C1922  H1968   1.118   .     S
C1923  H1970   1.106   .     S
C1923  H1969   1.111   .     S
C1924  H1973   1.107   .     S
C1924  H1971   1.110   .     S
C1924  H1974   1.111   .     S
C1924  C2358   1.525   .     S
C1925  H1977   1.111   .     S
C1925  O2015   1.413   .     S
C1925  H1976   1.109   .     S
C1925  H670    1.111   1_556 S
C1926  H1978   1.114   .     S
C1926  H1979   1.112   .     S
C1926  O2016   1.412   .     S
C1926  H1980   1.107   .     S
C1927  H1981   1.109   .     S
C1927  C1928   1.525   .     S
C1927  H1982   1.109   .     S
C1927  O2017   1.423   .     S
C1928  H1985   1.110   .     S
C1928  C2364   1.529   .     S
C1928  H2419   1.107   .     S
C1929  H1988   1.111   .     S
C1929  H1987   1.107   .     S
C1930  C633    1.412   1_556 S
C1931  H1990   1.116   .     S
C1931  H1989   1.111   .     S
C1931  C1932   1.533   .     S
C1931  O2018   1.417   .     S
C1932  C1933   1.527   .     S
C1932  H1991   1.112   .     S
C1932  H1992   1.111   .     S
C1933  H1995   1.111   .     S
C1933  H1993   1.111   .     S
C1933  H1996   1.111   .     S
C1934  O2019   1.413   .     S
C1934  H1998   1.111   .     S
C1934  H1999   1.107   .     S
C1934  H1997   1.109   .     S
C1935  C631    1.417   1_556 S
C1936  C1937   1.411   .     A
C1937  C1938   1.397   .     A
C1937  H1961   1.071   .     S
C1938  O2008   1.384   .     S
H1941  C606    1.111   1_556 S
H1943  C462    1.111   1_556 S
H1945  C2058   1.110   .     S
H1947  C608    1.111   1_556 S
H1948  C2349   1.114   .     S
H1950  C2041   1.086   .     S
H1956  C2352   1.111   .     S
H1986  C2364   1.111   .     S
O2003  Zn2029  1.926   .     S
O2003  Zn2028  1.948   .     S
O2003  Zn2030  1.925   .     S
O2003  Zn2027  1.967   .     S
O2004  Zn2028  1.924   .     S
O2005  Zn2030  1.941   .     S
O2006  Zn2029  1.935   .     S
O2007  Zn2027  1.920   .     S
O2011  C2334   1.406   .     S
O2011  C2352   1.419   .     S
O2014  Zn2027  1.941   .     S
O2020  Zn2030  1.942   .     S
O2021  Zn2028  1.913   .     S
O2022  Zn2029  1.930   .     S
O2023  Zn2030  1.925   .     S
O2024  Zn2027  1.909   .     S
O2025  Zn2028  1.950   .     S
O2026  Zn2029  1.942   .     S
C2031  C2041   1.433   .     S
C2031  O2166   1.271   .     A
C2031  O2168   1.271   .     A
C2032  C2080   1.416   .     A
C2032  O2164   1.387   .     S
C2032  C2033   1.392   .     A
C2033  O2160   1.382   .     S
C2033  C730    1.405   1_556 S
C2034  O2167   1.284   .     A
C2034  C2040   1.453   .     S
C2034  O2169   1.278   .     A
C2035  C2036   1.426   .     A
C2035  C2037   1.411   .     A
C2036  C2039   1.425   .     A
C2036  C2081   1.440   .     A
C2037  O2154   1.391   .     S
C2037  C2038   1.407   .     A
C2038  O2158   1.386   .     S
C2038  C2050   1.400   .     A
C2039  C2050   1.405   .     A
C2039  O2157   1.380   .     S
C2040  C1751   1.335   1_655 S
C2040  H1794   1.088   1_655 S
C2042  C2051   1.403   .     A
C2042  O2162   1.390   .     S
C2042  C2049   1.413   .     A
C2043  C2046   1.467   .     S
C2043  C2479   1.355   .     S
C2043  O2590   1.388   .     S
C2044  C2045   1.452   .     S
C2045  O2159   1.282   .     A
C2045  O2170   1.273   .     A
C2046  O2171   1.274   .     A
C2046  O2165   1.256   .     A
C2047  C2050   1.458   .     S
C2047  O2151   1.274   .     A
C2047  O2149   1.275   .     A
C2048  C2049   1.481   .     S
C2048  O2152   1.290   .     A
C2048  O2150   1.280   .     A
C2049  C2053   1.398   .     A
C2051  O2161   1.383   .     S
C2051  C2075   1.418   .     A
C2052  H2128   1.115   .     S
C2052  O2153   1.415   .     S
C2052  H2117   1.115   .     S
C2052  C2054   1.528   .     S
C2053  C2064   1.420   .     A
C2053  O2163   1.387   .     S
C2054  H2139   1.111   .     S
C2054  H2145   1.112   .     S
C2054  C2490   1.528   .     S
C2055  H2146   1.111   .     S
C2055  H2085   1.110   .     S
C2055  H2147   1.110   .     S
C2056  C2057   1.530   .     S
C2056  O2154   1.412   .     S
C2056  H2087   1.108   .     S
C2057  H2089   1.110   .     S
C2057  C1768   1.524   1_655 S
C2057  H493    1.111   1_655 S
C2058  H2091   1.110   .     S
C2059  O2155   1.412   .     S
C2059  C2060   1.528   .     S
C2059  H2094   1.116   .     S
C2060  C2061   1.527   .     S
C2060  H2097   1.112   .     S
C2060  H2096   1.112   .     S
C2061  H2098   1.111   .     S
C2061  H1809   1.110   1_655 S
C2061  H1810   1.111   1_655 S
C2062  H2102   1.109   .     S
C2062  C2063   1.535   .     S
C2063  H2103   1.110   .     S
C2063  C2065   1.527   .     S
C2063  H2104   1.110   .     S
C2064  C2080   1.424   .     A
C2064  C2075   1.419   .     A
C2065  H2105   1.111   .     S
C2065  H2107   1.110   .     S
C2065  H2108   1.111   .     S
C2066  H2110   1.110   .     S
C2066  H2111   1.109   .     S
C2066  O2157   1.411   .     S
C2066  H2109   1.113   .     S
C2067  O2158   1.421   .     S
C2067  C2068   1.527   .     S
C2067  H2112   1.110   .     S
C2067  H2113   1.118   .     S
C2068  H2115   1.106   .     S
C2068  H2114   1.111   .     S
C2069  H2118   1.107   .     S
C2069  H2116   1.110   .     S
C2069  H2119   1.111   .     S
C2069  C2503   1.525   .     S
C2070  H2122   1.111   .     S
C2070  O2160   1.413   .     S
C2070  H2121   1.109   .     S
C2070  H815    1.111   1_556 S
C2071  H2123   1.114   .     S
C2071  H2124   1.112   .     S
C2071  O2161   1.412   .     S
C2071  H2125   1.107   .     S
C2072  H2126   1.109   .     S
C2072  C2073   1.525   .     S
C2072  H2127   1.109   .     S
C2072  O2162   1.423   .     S
C2073  H2130   1.110   .     S
C2073  C2509   1.529   .     S
C2073  H2564   1.107   .     S
C2074  H2133   1.111   .     S
C2074  H2132   1.107   .     S
C2075  C778    1.412   1_556 S
C2076  H2135   1.116   .     S
C2076  H2134   1.111   .     S
C2076  C2077   1.533   .     S
C2076  O2163   1.417   .     S
C2077  C2078   1.527   .     S
C2077  H2136   1.112   .     S
C2077  H2137   1.111   .     S
C2078  H2140   1.111   .     S
C2078  H2138   1.111   .     S
C2078  H2141   1.111   .     S
C2079  O2164   1.413   .     S
C2079  H2143   1.111   .     S
C2079  H2144   1.107   .     S
C2079  H2142   1.109   .     S
C2080  C776    1.417   1_556 S
C2081  C2082   1.411   .     A
C2082  C2083   1.397   .     A
C2082  H2106   1.071   .     S
C2083  O2153   1.384   .     S
H2086  C751    1.111   1_556 S
H2088  C607    1.111   1_556 S
H2090  C1768   1.110   1_655 S
H2092  C753    1.111   1_556 S
H2093  C2494   1.114   .     S
H2095  C1751   1.086   1_655 S
H2101  C2497   1.111   .     S
H2131  C2509   1.111   .     S
O2148  Zn2174  1.926   .     S
O2148  Zn2173  1.948   .     S
O2148  Zn2175  1.925   .     S
O2148  Zn2172  1.967   .     S
O2149  Zn2173  1.924   .     S
O2150  Zn2175  1.941   .     S
O2151  Zn2174  1.935   .     S
O2152  Zn2172  1.920   .     S
O2156  C2479   1.406   .     S
O2156  C2497   1.419   .     S
O2159  Zn2172  1.941   .     S
O2165  Zn2175  1.942   .     S
O2166  Zn2173  1.913   .     S
O2167  Zn2174  1.930   .     S
O2168  Zn2175  1.925   .     S
O2169  Zn2172  1.909   .     S
O2170  Zn2173  1.950   .     S
O2171  Zn2174  1.942   .     S
C2176  C2186   1.433   .     S
C2176  O2311   1.271   .     A
C2176  O2313   1.271   .     A
C2177  C2225   1.416   .     A
C2177  O2309   1.387   .     S
C2177  C2178   1.392   .     A
C2178  O2305   1.382   .     S
C2178  C875    1.405   1_556 S
C2179  O2312   1.284   .     A
C2179  C2185   1.453   .     S
C2179  O2314   1.278   .     A
C2180  C2181   1.426   .     A
C2180  C2182   1.411   .     A
C2181  C2184   1.425   .     A
C2181  C2226   1.440   .     A
C2182  O2299   1.391   .     S
C2182  C2183   1.407   .     A
C2183  O2303   1.386   .     S
C2183  C2195   1.400   .     A
C2184  C2195   1.405   .     A
C2184  O2302   1.380   .     S
C2185  C2331   1.335   .     S
C2185  H2374   1.088   .     S
C2186  C2475   1.335   1_455 S
C2186  H2530   1.086   1_455 S
C2187  C2196   1.403   .     A
C2187  O2307   1.390   .     S
C2187  C2194   1.413   .     A
C2188  C2191   1.467   .     S
C2188  C1319   1.355   1_565 S
C2188  O1430   1.388   1_565 S
C2189  C2190   1.452   .     S
C2190  O2304   1.282   .     A
C2190  O2315   1.273   .     A
C2191  O2316   1.274   .     A
C2191  O2310   1.256   .     A
C2192  C2195   1.458   .     S
C2192  O2296   1.274   .     A
C2192  O2294   1.275   .     A
C2193  C2194   1.481   .     S
C2193  O2297   1.290   .     A
C2193  O2295   1.280   .     A
C2194  C2198   1.398   .     A
C2196  O2306   1.383   .     S
C2196  C2220   1.418   .     A
C2197  H2273   1.115   .     S
C2197  O2298   1.415   .     S
C2197  H2262   1.115   .     S
C2197  C2199   1.528   .     S
C2198  C2209   1.420   .     A
C2198  O2308   1.387   .     S
C2199  H2284   1.111   .     S
C2199  H2290   1.112   .     S
C2199  C1330   1.528   1_565 S
C2200  H2291   1.111   .     S
C2200  H2230   1.110   .     S
C2200  H2292   1.110   .     S
C2201  C2202   1.530   .     S
C2201  O2299   1.412   .     S
C2201  H2232   1.108   .     S
C2202  H2234   1.110   .     S
C2202  C2348   1.524   .     S
C2203  H2236   1.110   .     S
C2203  C2492   1.524   1_455 S
C2203  H2525   1.110   1_455 S
C2204  O2300   1.412   .     S
C2204  C2205   1.528   .     S
C2204  H2239   1.116   .     S
C2205  C2206   1.527   .     S
C2205  H2242   1.112   .     S
C2205  H2241   1.112   .     S
C2206  H2243   1.111   .     S
C2206  H2389   1.110   .     S
C2206  H2390   1.111   .     S
C2207  H2247   1.109   .     S
C2207  C2208   1.535   .     S
C2208  H2248   1.110   .     S
C2208  C2210   1.527   .     S
C2208  H2249   1.110   .     S
C2209  C2225   1.424   .     A
C2209  C2220   1.419   .     A
C2210  H2250   1.111   .     S
C2210  H2252   1.110   .     S
C2210  H2253   1.111   .     S
C2211  H2255   1.110   .     S
C2211  H2256   1.109   .     S
C2211  O2302   1.411   .     S
C2211  H2254   1.113   .     S
C2212  O2303   1.421   .     S
C2212  C2213   1.527   .     S
C2212  H2257   1.110   .     S
C2212  H2258   1.118   .     S
C2213  H2260   1.106   .     S
C2213  H2259   1.111   .     S
C2214  H2263   1.107   .     S
C2214  H2261   1.110   .     S
C2214  H2264   1.111   .     S
C2214  C1343   1.525   1_565 S
C2215  H2267   1.111   .     S
C2215  O2305   1.413   .     S
C2215  H2266   1.109   .     S
C2215  H960    1.111   1_556 S
C2216  H2268   1.114   .     S
C2216  H2269   1.112   .     S
C2216  O2306   1.412   .     S
C2216  H2270   1.107   .     S
C2217  H2271   1.109   .     S
C2217  C2218   1.525   .     S
C2217  H2272   1.109   .     S
C2217  O2307   1.423   .     S
C2218  H2275   1.110   .     S
C2218  C1349   1.529   1_565 S
C2218  H1404   1.107   1_565 S
C2219  H2278   1.111   .     S
C2219  H2277   1.107   .     S
C2220  C923    1.412   1_556 S
C2221  H2280   1.116   .     S
C2221  H2279   1.111   .     S
C2221  C2222   1.533   .     S
C2221  O2308   1.417   .     S
C2222  C2223   1.527   .     S
C2222  H2281   1.112   .     S
C2222  H2282   1.111   .     S
C2223  H2285   1.111   .     S
C2223  H2283   1.111   .     S
C2223  H2286   1.111   .     S
C2224  O2309   1.413   .     S
C2224  H2288   1.111   .     S
C2224  H2289   1.107   .     S
C2224  H2287   1.109   .     S
C2225  C921    1.417   1_556 S
C2226  C2227   1.411   .     A
C2227  C2228   1.397   .     A
C2227  H2251   1.071   .     S
C2228  O2298   1.384   .     S
H2229  C2475   1.088   1_455 S
H2231  C896    1.111   1_556 S
H2233  C1187   1.111   1_456 S
H2235  C2348   1.110   .     S
H2237  C898    1.111   1_556 S
H2238  C1334   1.114   1_565 S
H2240  C2331   1.086   .     S
H2244  C2496   1.110   1_455 S
H2245  C2496   1.111   1_455 S
H2246  C1337   1.111   1_565 S
H2276  C1349   1.111   1_565 S
O2293  Zn2319  1.926   .     S
O2293  Zn2318  1.948   .     S
O2293  Zn2320  1.925   .     S
O2293  Zn2317  1.967   .     S
O2294  Zn2318  1.924   .     S
O2295  Zn2320  1.941   .     S
O2296  Zn2319  1.935   .     S
O2297  Zn2317  1.920   .     S
O2301  C1319   1.406   1_565 S
O2301  C1337   1.419   1_565 S
O2304  Zn2317  1.941   .     S
O2310  Zn2320  1.942   .     S
O2311  Zn2318  1.913   .     S
O2312  Zn2319  1.930   .     S
O2313  Zn2320  1.925   .     S
O2314  Zn2317  1.909   .     S
O2315  Zn2318  1.950   .     S
O2316  Zn2319  1.942   .     S
C2321  C2331   1.433   .     S
C2321  O2456   1.271   .     A
C2321  O2458   1.271   .     A
C2322  C2370   1.416   .     A
C2322  O2454   1.387   .     S
C2322  C2323   1.392   .     A
C2323  O2450   1.382   .     S
C2323  C1020   1.405   1_556 S
C2324  O2457   1.284   .     A
C2324  C2330   1.453   .     S
C2324  O2459   1.278   .     A
C2325  C2326   1.426   .     A
C2325  C2327   1.411   .     A
C2326  C2329   1.425   .     A
C2326  C2371   1.440   .     A
C2327  O2444   1.391   .     S
C2327  C2328   1.407   .     A
C2328  O2448   1.386   .     S
C2328  C2340   1.400   .     A
C2329  C2340   1.405   .     A
C2329  O2447   1.380   .     S
C2330  C2476   1.335   .     S
C2330  H2519   1.088   .     S
C2332  C2341   1.403   .     A
C2332  O2452   1.390   .     S
C2332  C2339   1.413   .     A
C2333  C2336   1.467   .     S
C2333  C1464   1.355   1_565 S
C2333  O1575   1.388   1_565 S
C2334  C2335   1.452   .     S
C2335  O2449   1.282   .     A
C2335  O2460   1.273   .     A
C2336  O2461   1.274   .     A
C2336  O2455   1.256   .     A
C2337  C2340   1.458   .     S
C2337  O2441   1.274   .     A
C2337  O2439   1.275   .     A
C2338  C2339   1.481   .     S
C2338  O2442   1.290   .     A
C2338  O2440   1.280   .     A
C2339  C2343   1.398   .     A
C2341  O2451   1.383   .     S
C2341  C2365   1.418   .     A
C2342  H2418   1.115   .     S
C2342  O2443   1.415   .     S
C2342  H2407   1.115   .     S
C2342  C2344   1.528   .     S
C2343  C2354   1.420   .     A
C2343  O2453   1.387   .     S
C2344  H2429   1.111   .     S
C2344  H2435   1.112   .     S
C2344  C1475   1.528   1_565 S
C2345  H2436   1.111   .     S
C2345  H2375   1.110   .     S
C2345  H2437   1.110   .     S
C2346  C2347   1.530   .     S
C2346  O2444   1.412   .     S
C2346  H2377   1.108   .     S
C2347  H2379   1.110   .     S
C2347  C2493   1.524   .     S
C2348  H2381   1.110   .     S
C2349  O2445   1.412   .     S
C2349  C2350   1.528   .     S
C2349  H2384   1.116   .     S
C2350  C2351   1.527   .     S
C2350  H2387   1.112   .     S
C2350  H2386   1.112   .     S
C2351  H2388   1.111   .     S
C2351  H2534   1.110   .     S
C2351  H2535   1.111   .     S
C2352  H2392   1.109   .     S
C2352  C2353   1.535   .     S
C2353  H2393   1.110   .     S
C2353  C2355   1.527   .     S
C2353  H2394   1.110   .     S
C2354  C2370   1.424   .     A
C2354  C2365   1.419   .     A
C2355  H2395   1.111   .     S
C2355  H2397   1.110   .     S
C2355  H2398   1.111   .     S
C2356  H2400   1.110   .     S
C2356  H2401   1.109   .     S
C2356  O2447   1.411   .     S
C2356  H2399   1.113   .     S
C2357  O2448   1.421   .     S
C2357  C2358   1.527   .     S
C2357  H2402   1.110   .     S
C2357  H2403   1.118   .     S
C2358  H2405   1.106   .     S
C2358  H2404   1.111   .     S
C2359  H2408   1.107   .     S
C2359  H2406   1.110   .     S
C2359  H2409   1.111   .     S
C2359  C1488   1.525   1_565 S
C2360  H2412   1.111   .     S
C2360  O2450   1.413   .     S
C2360  H2411   1.109   .     S
C2360  H1105   1.111   1_556 S
C2361  H2413   1.114   .     S
C2361  H2414   1.112   .     S
C2361  O2451   1.412   .     S
C2361  H2415   1.107   .     S
C2362  H2416   1.109   .     S
C2362  C2363   1.525   .     S
C2362  H2417   1.109   .     S
C2362  O2452   1.423   .     S
C2363  H2420   1.110   .     S
C2363  C1494   1.529   1_565 S
C2363  H1549   1.107   1_565 S
C2364  H2423   1.111   .     S
C2364  H2422   1.107   .     S
C2365  C1068   1.412   1_556 S
C2366  H2425   1.116   .     S
C2366  H2424   1.111   .     S
C2366  C2367   1.533   .     S
C2366  O2453   1.417   .     S
C2367  C2368   1.527   .     S
C2367  H2426   1.112   .     S
C2367  H2427   1.111   .     S
C2368  H2430   1.111   .     S
C2368  H2428   1.111   .     S
C2368  H2431   1.111   .     S
C2369  O2454   1.413   .     S
C2369  H2433   1.111   .     S
C2369  H2434   1.107   .     S
C2369  H2432   1.109   .     S
C2370  C1066   1.417   1_556 S
C2371  C2372   1.411   .     A
C2372  C2373   1.397   .     A
C2372  H2396   1.071   .     S
C2373  O2443   1.384   .     S
H2376  C1041   1.111   1_556 S
H2378  C897    1.111   1_556 S
H2380  C2493   1.110   .     S
H2382  C1043   1.111   1_556 S
H2383  C1479   1.114   1_565 S
H2385  C2476   1.086   .     S
H2391  C1482   1.111   1_565 S
H2421  C1494   1.111   1_565 S
O2438  Zn2464  1.926   .     S
O2438  Zn2463  1.948   .     S
O2438  Zn2465  1.925   .     S
O2438  Zn2462  1.967   .     S
O2439  Zn2463  1.924   .     S
O2440  Zn2465  1.941   .     S
O2441  Zn2464  1.935   .     S
O2442  Zn2462  1.920   .     S
O2446  C1464   1.406   1_565 S
O2446  C1482   1.419   1_565 S
O2449  Zn2462  1.941   .     S
O2455  Zn2465  1.942   .     S
O2456  Zn2463  1.913   .     S
O2457  Zn2464  1.930   .     S
O2458  Zn2465  1.925   .     S
O2459  Zn2462  1.909   .     S
O2460  Zn2463  1.950   .     S
O2461  Zn2464  1.942   .     S
C2466  C2476   1.433   .     S
C2466  O2601   1.271   .     A
C2466  O2603   1.271   .     A
C2467  C2515   1.416   .     A
C2467  O2599   1.387   .     S
C2467  C2468   1.392   .     A
C2468  O2595   1.382   .     S
C2468  C1165   1.405   1_556 S
C2469  O2602   1.284   .     A
C2469  C2475   1.453   .     S
C2469  O2604   1.278   .     A
C2470  C2471   1.426   .     A
C2470  C2472   1.411   .     A
C2471  C2474   1.425   .     A
C2471  C2516   1.440   .     A
C2472  O2589   1.391   .     S
C2472  C2473   1.407   .     A
C2473  O2593   1.386   .     S
C2473  C2485   1.400   .     A
C2474  C2485   1.405   .     A
C2474  O2592   1.380   .     S
C2475  C2186   1.335   1_655 S
C2475  H2229   1.088   1_655 S
C2477  C2486   1.403   .     A
C2477  O2597   1.390   .     S
C2477  C2484   1.413   .     A
C2478  C2481   1.467   .     S
C2478  C1609   1.355   1_565 S
C2478  O1720   1.388   1_565 S
C2479  C2480   1.452   .     S
C2480  O2594   1.282   .     A
C2480  O2605   1.273   .     A
C2481  O2606   1.274   .     A
C2481  O2600   1.256   .     A
C2482  C2485   1.458   .     S
C2482  O2586   1.274   .     A
C2482  O2584   1.275   .     A
C2483  C2484   1.481   .     S
C2483  O2587   1.290   .     A
C2483  O2585   1.280   .     A
C2484  C2488   1.398   .     A
C2486  O2596   1.383   .     S
C2486  C2510   1.418   .     A
C2487  H2563   1.115   .     S
C2487  O2588   1.415   .     S
C2487  H2552   1.115   .     S
C2487  C2489   1.528   .     S
C2488  C2499   1.420   .     A
C2488  O2598   1.387   .     S
C2489  H2574   1.111   .     S
C2489  H2580   1.112   .     S
C2489  C1620   1.528   1_565 S
C2490  H2581   1.111   .     S
C2490  H2520   1.110   .     S
C2490  H2582   1.110   .     S
C2491  C2492   1.530   .     S
C2491  O2589   1.412   .     S
C2491  H2522   1.108   .     S
C2492  H2524   1.110   .     S
C2492  C2203   1.524   1_655 S
C2492  H928    1.111   1_655 S
C2493  H2526   1.110   .     S
C2494  O2590   1.412   .     S
C2494  C2495   1.528   .     S
C2494  H2529   1.116   .     S
C2495  C2496   1.527   .     S
C2495  H2532   1.112   .     S
C2495  H2531   1.112   .     S
C2496  H2533   1.111   .     S
C2496  H2244   1.110   1_655 S
C2496  H2245   1.111   1_655 S
C2497  H2537   1.109   .     S
C2497  C2498   1.535   .     S
C2498  H2538   1.110   .     S
C2498  C2500   1.527   .     S
C2498  H2539   1.110   .     S
C2499  C2515   1.424   .     A
C2499  C2510   1.419   .     A
C2500  H2540   1.111   .     S
C2500  H2542   1.110   .     S
C2500  H2543   1.111   .     S
C2501  H2545   1.110   .     S
C2501  H2546   1.109   .     S
C2501  O2592   1.411   .     S
C2501  H2544   1.113   .     S
C2502  O2593   1.421   .     S
C2502  C2503   1.527   .     S
C2502  H2547   1.110   .     S
C2502  H2548   1.118   .     S
C2503  H2550   1.106   .     S
C2503  H2549   1.111   .     S
C2504  H2553   1.107   .     S
C2504  H2551   1.110   .     S
C2504  H2554   1.111   .     S
C2504  C1633   1.525   1_565 S
C2505  H2557   1.111   .     S
C2505  O2595   1.413   .     S
C2505  H2556   1.109   .     S
C2505  H1250   1.111   1_556 S
C2506  H2558   1.114   .     S
C2506  H2559   1.112   .     S
C2506  O2596   1.412   .     S
C2506  H2560   1.107   .     S
C2507  H2561   1.109   .     S
C2507  C2508   1.525   .     S
C2507  H2562   1.109   .     S
C2507  O2597   1.423   .     S
C2508  H2565   1.110   .     S
C2508  C1639   1.529   1_565 S
C2508  H1694   1.107   1_565 S
C2509  H2568   1.111   .     S
C2509  H2567   1.107   .     S
C2510  C1213   1.412   1_556 S
C2511  H2570   1.116   .     S
C2511  H2569   1.111   .     S
C2511  C2512   1.533   .     S
C2511  O2598   1.417   .     S
C2512  C2513   1.527   .     S
C2512  H2571   1.112   .     S
C2512  H2572   1.111   .     S
C2513  H2575   1.111   .     S
C2513  H2573   1.111   .     S
C2513  H2576   1.111   .     S
C2514  O2599   1.413   .     S
C2514  H2578   1.111   .     S
C2514  H2579   1.107   .     S
C2514  H2577   1.109   .     S
C2515  C1211   1.417   1_556 S
C2516  C2517   1.411   .     A
C2517  C2518   1.397   .     A
C2517  H2541   1.071   .     S
C2518  O2588   1.384   .     S
H2521  C1186   1.111   1_556 S
H2523  C1042   1.111   1_556 S
H2525  C2203   1.110   1_655 S
H2527  C1188   1.111   1_556 S
H2528  C1624   1.114   1_565 S
H2530  C2186   1.086   1_655 S
H2536  C1627   1.111   1_565 S
H2566  C1639   1.111   1_565 S
O2583  Zn2609  1.926   .     S
O2583  Zn2608  1.948   .     S
O2583  Zn2610  1.925   .     S
O2583  Zn2607  1.967   .     S
O2584  Zn2608  1.924   .     S
O2585  Zn2610  1.941   .     S
O2586  Zn2609  1.935   .     S
O2587  Zn2607  1.920   .     S
O2591  C1609   1.406   1_565 S
O2591  C1627   1.419   1_565 S
O2594  Zn2607  1.941   .     S
O2600  Zn2610  1.942   .     S
O2601  Zn2608  1.913   .     S
O2602  Zn2609  1.930   .     S
O2603  Zn2610  1.925   .     S
O2604  Zn2607  1.909   .     S
O2605  Zn2608  1.950   .     S
O2606  Zn2609  1.942   .     S
