data_str_m1_o5_o17_pcu_sym.11
_audit_creation_date              2020-01-03
_audit_creation_method            'Materials Studio'
_symmetry_space_group_name_H-M    'P1'
_symmetry_Int_Tables_number       1
_symmetry_cell_setting            triclinic
loop_
_symmetry_equiv_pos_as_xyz
  x,y,z
_cell_length_a                    31.7595
_cell_length_b                    31.7675
_cell_length_c                    34.4643
_cell_angle_alpha                 89.9909
_cell_angle_beta                  89.9953
_cell_angle_gamma                 90.0720
loop_
_atom_site_label
_atom_site_type_symbol
_atom_site_fract_x
_atom_site_fract_y
_atom_site_fract_z
_atom_site_U_iso_or_equiv
_atom_site_adp_type
_atom_site_occupancy
C1     C     0.24997   0.49998   0.35593   0.00000  Uiso   1.00
C2     C     0.33003   0.41998   0.75000   0.00000  Uiso   1.00
C3     C     0.45867   0.18523   0.02080   0.00000  Uiso   1.00
C4     C     0.31474   0.04137   0.97921   0.00000  Uiso   1.00
C5     C     0.18393   0.46122   0.02025   0.00000  Uiso   1.00
C6     C     0.46130   0.18390   0.97978   0.00000  Uiso   1.00
C7     C     0.04131   0.31478   0.02077   0.00000  Uiso   1.00
C8     C     0.04081   0.31962   0.39838   0.00000  Uiso   1.00
C9     C     0.00446   0.34685   0.38282   0.00000  Uiso   1.00
C10    C     0.02087   0.38770   0.36498   0.00000  Uiso   1.00
C11    C     0.45330   0.18408   0.60149   0.00000  Uiso   1.00
C12    C     0.48670   0.15375   0.61774   0.00000  Uiso   1.00
C13    C     0.41998   0.16998   0.25000   0.00000  Uiso   1.00
C14    C     0.46614   0.11572   0.63713   0.00000  Uiso   1.00
C15    C     0.17997   0.45970   0.39815   0.00000  Uiso   1.00
C16    C     0.15262   0.49592   0.38259   0.00000  Uiso   1.00
C17    C     0.11270   0.47922   0.36327   0.00000  Uiso   1.00
C18    C     0.32064   0.03887   0.60162   0.00000  Uiso   1.00
C19    C     0.34711   0.00189   0.61700   0.00000  Uiso   1.00
C20    C     0.38892   0.01713   0.63377   0.00000  Uiso   1.00
C21    C     0.45841   0.18079   0.39846   0.00000  Uiso   1.00
C22    C     0.49432   0.15307   0.38281   0.00000  Uiso   1.00
C23    C     0.47717   0.11301   0.36406   0.00000  Uiso   1.00
C24    C     0.08002   0.33002   0.75000   0.00000  Uiso   1.00
C25    C     0.04712   0.31594   0.60156   0.00000  Uiso   1.00
C26    C     0.01400   0.34646   0.61797   0.00000  Uiso   1.00
C27    C     0.03491   0.38421   0.63753   0.00000  Uiso   1.00
C28    C     0.32128   0.03752   0.39814   0.00000  Uiso   1.00
C29    C     0.34708   0.49992   0.38306   0.00000  Uiso   1.00
C30    C     0.38782   0.01458   0.36377   0.00000  Uiso   1.00
C31    C     0.17822   0.46316   0.60186   0.00000  Uiso   1.00
C32    C     0.15295   0.00109   0.61699   0.00000  Uiso   1.00
C33    C     0.11129   0.48714   0.63502   0.00000  Uiso   1.00
C34    C     0.28807   0.07108   0.89832   0.00000  Uiso   1.00
C35    C     0.33003   0.41998   0.25000   0.00000  Uiso   1.00
C36    C     0.25063   0.09697   0.88304   0.00000  Uiso   1.00
C37    C     0.26532   0.13857   0.86542   0.00000  Uiso   1.00
C38    C     0.20562   0.43243   0.10171   0.00000  Uiso   1.00
C39    C     0.24006   0.40316   0.11776   0.00000  Uiso   1.00
C40    C     0.22084   0.36460   0.13744   0.00000  Uiso   1.00
C41    C     0.43248   0.20552   0.89832   0.00000  Uiso   1.00
C42    C     0.40316   0.23991   0.88226   0.00000  Uiso   1.00
C43    C     0.36461   0.22064   0.86261   0.00000  Uiso   1.00
C44    C     0.07106   0.28814   0.10165   0.00000  Uiso   1.00
C45    C     0.09699   0.25074   0.11694   0.00000  Uiso   1.00
C46    C     0.16997   0.08003   0.75000   0.00000  Uiso   1.00
C47    C     0.13860   0.26547   0.13453   0.00000  Uiso   1.00
C48    C     0.21192   0.42891   0.89834   0.00000  Uiso   1.00
C49    C     0.24936   0.40302   0.88306   0.00000  Uiso   1.00
C50    C     0.23466   0.36143   0.86543   0.00000  Uiso   1.00
C51    C     0.29435   0.06758   0.10166   0.00000  Uiso   1.00
C52    C     0.25990   0.09680   0.11775   0.00000  Uiso   1.00
C53    C     0.27907   0.13565   0.13697   0.00000  Uiso   1.00
C54    C     0.06753   0.29445   0.89830   0.00000  Uiso   1.00
C55    C     0.09684   0.26006   0.88224   0.00000  Uiso   1.00
C56    C     0.13542   0.27933   0.86262   0.00000  Uiso   1.00
C57    C     0.08002   0.33002   0.25000   0.00000  Uiso   1.00
C58    C     0.42893   0.21187   0.10168   0.00000  Uiso   1.00
C59    C     0.40299   0.24928   0.11697   0.00000  Uiso   1.00
C60    C     0.36144   0.23453   0.13465   0.00000  Uiso   1.00
C61    C     0.41998   0.16998   0.75000   0.00000  Uiso   1.00
C62    C     0.16998   0.41998   0.75000   0.00000  Uiso   1.00
C63    C     0.33002   0.08002   0.24999   0.00000  Uiso   1.00
C64    C     0.41997   0.33002   0.75000   0.00000  Uiso   1.00
C65    C     0.24998   0.00001   0.64408   0.00000  Uiso   1.00
C66    C     0.08003   0.16998   0.25000   0.00000  Uiso   1.00
C67    C     0.33002   0.08002   0.75000   0.00000  Uiso   1.00
C68    C     0.16998   0.41998   0.25000   0.00000  Uiso   1.00
C69    C     0.08003   0.16997   0.75000   0.00000  Uiso   1.00
C70    C     0.41997   0.33003   0.25000   0.00000  Uiso   1.00
C71    C     0.13834   0.38834   0.25000   0.00000  Uiso   1.00
C72    C     0.36167   0.11166   0.75000   0.00000  Uiso   1.00
C73    C     0.11167   0.13833   0.25000   0.00000  Uiso   1.00
C74    C     0.38833   0.36167   0.75000   0.00000  Uiso   1.00
C75    C     0.36166   0.11166   0.24999   0.00000  Uiso   1.00
C76    C     0.49999   0.24998   0.35592   0.00000  Uiso   1.00
C77    C     0.13833   0.38834   0.75000   0.00000  Uiso   1.00
C78    C     0.38833   0.36167   0.25000   0.00000  Uiso   1.00
C79    C     0.11167   0.13833   0.75000   0.00000  Uiso   1.00
C80    C     0.13833   0.11167   0.75000   0.00000  Uiso   1.00
C81    C     0.36167   0.38833   0.25000   0.00000  Uiso   1.00
C82    C     0.11167   0.36166   0.75000   0.00000  Uiso   1.00
C83    C     0.38833   0.13834   0.25000   0.00000  Uiso   1.00
C84    C     0.36167   0.38833   0.75001   0.00000  Uiso   1.00
C85    C     0.13833   0.11167   0.25000   0.00000  Uiso   1.00
C86    C     0.38834   0.13834   0.75000   0.00000  Uiso   1.00
C87    C     0.00001   0.25006   0.64403   0.00000  Uiso   1.00
C88    C     0.11167   0.36166   0.25000   0.00000  Uiso   1.00
C89    C     0.02481   0.27975   0.41868   0.00000  Uiso   1.00
C90    C     0.47318   0.22214   0.58111   0.00000  Uiso   1.00
C91    C     0.21955   0.47594   0.41876   0.00000  Uiso   1.00
C92    C     0.28057   0.02360   0.58125   0.00000  Uiso   1.00
C93    C     0.47494   0.22046   0.41875   0.00000  Uiso   1.00
C94    C     0.02696   0.27806   0.58110   0.00000  Uiso   1.00
C95    C     0.28086   0.02337   0.41876   0.00000  Uiso   1.00
C96    C     0.21882   0.47683   0.58130   0.00000  Uiso   1.00
C97    C     0.27365   0.03066   0.91869   0.00000  Uiso   1.00
C98    C    -0.00000   0.25000   0.85596   0.00000  Uiso   1.00
C99    C     0.22419   0.47104   0.08115   0.00000  Uiso   1.00
C100   C     0.47108   0.22415   0.91887   0.00000  Uiso   1.00
C101   C     0.03064   0.27369   0.08131   0.00000  Uiso   1.00
C102   C     0.22635   0.46933   0.91869   0.00000  Uiso   1.00
C103   C     0.27581   0.02895   0.08113   0.00000  Uiso   1.00
C104   C     0.02893   0.27584   0.91886   0.00000  Uiso   1.00
C105   C     0.46934   0.22633   0.08132   0.00000  Uiso   1.00
C106   C     0.49995   0.25003   0.39834   0.00000  Uiso   1.00
C107   C     0.00004   0.25011   0.60152   0.00000  Uiso   1.00
C108   C     0.25002   0.49989   0.39841   0.00000  Uiso   1.00
C109   C    -0.00000   0.25000   0.14409   0.00000  Uiso   1.00
C110   C     0.24986   0.00004   0.60163   0.00000  Uiso   1.00
C111   C     0.25000  -0.00000   0.89833   0.00000  Uiso   1.00
C112   C     0.25000   0.49999   0.10153   0.00000  Uiso   1.00
C113   C     0.00000   0.24999   0.89847   0.00000  Uiso   1.00
C114   C     0.49999   0.25001   0.10167   0.00000  Uiso   1.00
C115   C     0.46912   0.22681   0.45904   0.00000  Uiso   1.00
C116   C     0.03160   0.27231   0.54062   0.00000  Uiso   1.00
C117   C     0.27517   0.02932   0.45918   0.00000  Uiso   1.00
C118   C     0.22451   0.47075   0.54090   0.00000  Uiso   1.00
C119   C     0.03068   0.27351   0.45897   0.00000  Uiso   1.00
C120   C     0.25000  -0.00000   0.85591   0.00000  Uiso   1.00
C121   C     0.46843   0.22798   0.54067   0.00000  Uiso   1.00
C122   C     0.22489   0.47064   0.45919   0.00000  Uiso   1.00
C123   C     0.27513   0.02907   0.54086   0.00000  Uiso   1.00
C124   C     0.22024   0.47534   0.95900   0.00000  Uiso   1.00
C125   C     0.28068   0.02341   0.04065   0.00000  Uiso   1.00
C126   C     0.02339   0.28070   0.95934   0.00000  Uiso   1.00
C127   C     0.47537   0.22023   0.04102   0.00000  Uiso   1.00
C128   C     0.27975   0.02464   0.95899   0.00000  Uiso   1.00
C129   C     0.21932   0.47656   0.04066   0.00000  Uiso   1.00
C130   C     0.47661   0.21929   0.95936   0.00000  Uiso   1.00
C131   C     0.25000  -0.00000   0.14404   0.00000  Uiso   1.00
C132   C     0.02461   0.27978   0.04100   0.00000  Uiso   1.00
C133   C     0.49994   0.25015   0.47943   0.00000  Uiso   1.00
C134   C     0.49999   0.25015   0.52025   0.00000  Uiso   1.00
C135   C     0.24982   0.00010   0.47960   0.00000  Uiso   1.00
C136   C     0.25000   0.49982   0.52044   0.00000  Uiso   1.00
C137   C     0.25000   0.49999   0.97942   0.00000  Uiso   1.00
C138   C     0.25000   0.49999   0.02026   0.00000  Uiso   1.00
C139   C    -0.00000   0.25000   0.97975   0.00000  Uiso   1.00
C140   C     0.49999   0.25000   0.02058   0.00000  Uiso   1.00
C141   C     0.43344   0.21166   0.47932   0.00000  Uiso   1.00
C142   C     0.16997   0.08002   0.25000   0.00000  Uiso   1.00
C143   C     0.06757   0.28620   0.52019   0.00000  Uiso   1.00
C144   C     0.29326   0.06348   0.47965   0.00000  Uiso   1.00
C145   C     0.20641   0.43655   0.52050   0.00000  Uiso   1.00
C146   C     0.06634   0.28883   0.47917   0.00000  Uiso   1.00
C147   C     0.43237   0.21417   0.52034   0.00000  Uiso   1.00
C148   C     0.20824   0.43573   0.47942   0.00000  Uiso   1.00
C149   C     0.29186   0.06399   0.52074   0.00000  Uiso   1.00
C150   C     0.18525   0.45860   0.97923   0.00000  Uiso   1.00
C151   C     0.31607   0.03876   0.02023   0.00000  Uiso   1.00
C152   C     0.03869   0.31610   0.97975   0.00000  Uiso   1.00
H153   H     0.03736   0.40680   0.38729   0.00000  Uiso   1.00
H154   H     0.49088   0.09429   0.64842   0.00000  Uiso   1.00
H155   H     0.15368   0.29840   0.88373   0.00000  Uiso   1.00
H156   H     0.15600   0.25388   0.85135   0.00000  Uiso   1.00
H157   H     0.10744   0.23950   0.90645   0.00000  Uiso   1.00
H158   H     0.08053   0.24003   0.86065   0.00000  Uiso   1.00
H159   H     0.05761   0.31630   0.87492   0.00000  Uiso   1.00
H160   H     0.08742   0.31294   0.91841   0.00000  Uiso   1.00
H161   H     0.34169   0.21901   0.11224   0.00000  Uiso   1.00
H162   H     0.36737   0.21211   0.15879   0.00000  Uiso   1.00
H163   H     0.34395   0.26204   0.14625   0.00000  Uiso   1.00
H164   H     0.42042   0.26692   0.13957   0.00000  Uiso   1.00
H165   H     0.00716   0.14262   0.59366   0.00000  Uiso   1.00
H166   H     0.39613   0.27127   0.09268   0.00000  Uiso   1.00
H167   H     0.40754   0.19519   0.08159   0.00000  Uiso   1.00
H168   H     0.43653   0.18973   0.12559   0.00000  Uiso   1.00
H169   H     0.38397   0.17644   0.47378   0.00000  Uiso   1.00
H170   H     0.12892   0.28595   0.52345   0.00000  Uiso   1.00
H171   H     0.33208   0.11012   0.47385   0.00000  Uiso   1.00
H172   H     0.16748   0.38994   0.52615   0.00000  Uiso   1.00
H173   H     0.11559   0.32438   0.47359   0.00000  Uiso   1.00
H174   H     0.37105   0.21452   0.52391   0.00000  Uiso   1.00
H175   H     0.20355   0.37463   0.47536   0.00000  Uiso   1.00
H176   H     0.00702   0.16940   0.63953   0.00000  Uiso   1.00
H177   H     0.29707   0.12500   0.52531   0.00000  Uiso   1.00
H178   H     0.13744   0.42113   0.97371   0.00000  Uiso   1.00
H179   H     0.37738   0.04094   0.02352   0.00000  Uiso   1.00
H180   H     0.04077   0.37741   0.97645   0.00000  Uiso   1.00
H181   H     0.42125   0.13738   0.02634   0.00000  Uiso   1.00
H182   H     0.36256   0.07885   0.97367   0.00000  Uiso   1.00
H183   H     0.12261   0.45906   0.02354   0.00000  Uiso   1.00
H184   H     0.45922   0.12259   0.97652   0.00000  Uiso   1.00
H185   H     0.07873   0.36263   0.02628   0.00000  Uiso   1.00
H186   H     0.43149   0.19454   0.62469   0.00000  Uiso   1.00
H187   H     0.43443   0.16479   0.58117   0.00000  Uiso   1.00
H188   H     0.12088   0.45817   0.33866   0.00000  Uiso   1.00
H189   H     0.09332   0.46158   0.38460   0.00000  Uiso   1.00
H190   H     0.09382   0.00596   0.35199   0.00000  Uiso   1.00
H191   H     0.14357   0.01694   0.40700   0.00000  Uiso   1.00
H192   H     0.16991   0.01504   0.36093   0.00000  Uiso   1.00
H193   H     0.04290   0.38075   0.34077   0.00000  Uiso   1.00
H194   H     0.18869   0.43778   0.37442   0.00000  Uiso   1.00
H195   H     0.15922   0.44199   0.41813   0.00000  Uiso   1.00
H196   H     0.40836   0.03177   0.61064   0.00000  Uiso   1.00
H197   H     0.38338   0.04039   0.65730   0.00000  Uiso   1.00
H198   H     0.40651   0.48999   0.64596   0.00000  Uiso   1.00
H199   H     0.33015   0.48459   0.64014   0.00000  Uiso   1.00
H200   H     0.35365   0.47951   0.59294   0.00000  Uiso   1.00
H201   H     0.34159   0.05612   0.58146   0.00000  Uiso   1.00
H202   H     0.31264   0.06091   0.62548   0.00000  Uiso   1.00
H203   H     0.45948   0.09403   0.38568   0.00000  Uiso   1.00
H204   H     0.49407   0.40631   0.35346   0.00000  Uiso   1.00
H205   H     0.45602   0.12103   0.33946   0.00000  Uiso   1.00
H206   H     0.00369   0.09378   0.35285   0.00000  Uiso   1.00
H207   H     0.01328   0.16995   0.36077   0.00000  Uiso   1.00
H208   H     0.01558   0.14420   0.40710   0.00000  Uiso   1.00
H209   H     0.44097   0.16015   0.41867   0.00000  Uiso   1.00
H210   H     0.43633   0.18944   0.37482   0.00000  Uiso   1.00
H211   H     0.05489   0.37361   0.66212   0.00000  Uiso   1.00
H212   H     0.05465   0.40169   0.61636   0.00000  Uiso   1.00
H213   H     0.01036   0.40580   0.64890   0.00000  Uiso   1.00
H214   H     0.49363   0.35791   0.59395   0.00000  Uiso   1.00
H215   H     0.48624   0.32999   0.36025   0.00000  Uiso   1.00
H216   H     0.49355   0.33085   0.63968   0.00000  Uiso   1.00
H217   H     0.06891   0.30524   0.62468   0.00000  Uiso   1.00
H218   H     0.06607   0.33520   0.58128   0.00000  Uiso   1.00
H219   H     0.38072   0.03567   0.33889   0.00000  Uiso   1.00
H220   H     0.40791   0.03161   0.38497   0.00000  Uiso   1.00
H221   H     0.40552   0.48688   0.35285   0.00000  Uiso   1.00
H222   H     0.35503   0.47880   0.40773   0.00000  Uiso   1.00
H223   H     0.32912   0.48132   0.36151   0.00000  Uiso   1.00
H224   H     0.31364   0.05949   0.37412   0.00000  Uiso   1.00
H225   H     0.34293   0.05429   0.41788   0.00000  Uiso   1.00
H226   H     0.48266   0.35470   0.40700   0.00000  Uiso   1.00
H227   H     0.09111   0.47177   0.61283   0.00000  Uiso   1.00
H228   H     0.11704   0.46481   0.65926   0.00000  Uiso   1.00
H229   H     0.09433   0.01501   0.64656   0.00000  Uiso   1.00
H230   H     0.17077   0.01869   0.63934   0.00000  Uiso   1.00
H231   H     0.14625   0.02296   0.59256   0.00000  Uiso   1.00
H232   H     0.15643   0.44669   0.58201   0.00000  Uiso   1.00
H233   H     0.18556   0.44108   0.62588   0.00000  Uiso   1.00
H234   H     0.28079   0.15831   0.88787   0.00000  Uiso   1.00
H235   H     0.28779   0.13271   0.84131   0.00000  Uiso   1.00
H236   H     0.23780   0.15602   0.85380   0.00000  Uiso   1.00
H237   H     0.05804   0.34043   0.41861   0.00000  Uiso   1.00
H238   H     0.23303   0.07956   0.86041   0.00000  Uiso   1.00
H239   H     0.22860   0.10377   0.90732   0.00000  Uiso   1.00
H240   H     0.30474   0.09248   0.91841   0.00000  Uiso   1.00
H241   H     0.31022   0.06351   0.87441   0.00000  Uiso   1.00
H242   H     0.20057   0.37436   0.16211   0.00000  Uiso   1.00
H243   H     0.20175   0.34631   0.11635   0.00000  Uiso   1.00
H244   H     0.24633   0.34405   0.14869   0.00000  Uiso   1.00
H245   H     0.26060   0.39256   0.09354   0.00000  Uiso   1.00
H246   H     0.26012   0.41950   0.13932   0.00000  Uiso   1.00
H247   H     0.18377   0.44232   0.12510   0.00000  Uiso   1.00
H248   H     0.06293   0.31129   0.37468   0.00000  Uiso   1.00
H249   H     0.18714   0.41252   0.08162   0.00000  Uiso   1.00
H250   H     0.37439   0.20037   0.83794   0.00000  Uiso   1.00
H251   H     0.34635   0.20153   0.88371   0.00000  Uiso   1.00
H252   H     0.34401   0.24608   0.85136   0.00000  Uiso   1.00
H253   H     0.39253   0.26044   0.90647   0.00000  Uiso   1.00
H254   H     0.41947   0.25997   0.86069   0.00000  Uiso   1.00
H255   H     0.44241   0.18368   0.87495   0.00000  Uiso   1.00
H256   H     0.41259   0.18703   0.91843   0.00000  Uiso   1.00
H257   H     0.15832   0.28093   0.11205   0.00000  Uiso   1.00
H258   H     0.13274   0.28794   0.15863   0.00000  Uiso   1.00
H259   H     0.44601   0.12598   0.66173   0.00000  Uiso   1.00
H260   H     0.15608   0.23797   0.14616   0.00000  Uiso   1.00
H261   H     0.07960   0.23315   0.13960   0.00000  Uiso   1.00
H262   H     0.10380   0.22870   0.09268   0.00000  Uiso   1.00
H263   H     0.09245   0.30483   0.08155   0.00000  Uiso   1.00
H264   H     0.06347   0.31029   0.12555   0.00000  Uiso   1.00
H265   H     0.21918   0.34169   0.88787   0.00000  Uiso   1.00
H266   H     0.21221   0.36731   0.84131   0.00000  Uiso   1.00
H267   H     0.26219   0.34398   0.85381   0.00000  Uiso   1.00
H268   H     0.26697   0.42044   0.86043   0.00000  Uiso   1.00
H269   H     0.27138   0.39620   0.90734   0.00000  Uiso   1.00
H270   H     0.44663   0.09821   0.61583   0.00000  Uiso   1.00
H271   H     0.19525   0.40751   0.91843   0.00000  Uiso   1.00
H272   H     0.18978   0.43649   0.87443   0.00000  Uiso   1.00
H273   H     0.29976   0.12624   0.16146   0.00000  Uiso   1.00
H274   H     0.29772   0.15394   0.11555   0.00000  Uiso   1.00
H275   H     0.25357   0.15608   0.14839   0.00000  Uiso   1.00
H276   H     0.23906   0.10707   0.09363   0.00000  Uiso   1.00
H277   H     0.24016   0.08053   0.13961   0.00000  Uiso   1.00
H278   H     0.31625   0.05772   0.12503   0.00000  Uiso   1.00
H279   H     0.31278   0.08750   0.08153   0.00000  Uiso   1.00
H280   H     0.12566   0.29963   0.83796   0.00000  Uiso   1.00
O281   O     0.25000   0.00000   0.25000   0.00000  Uiso   1.00
O282   O     0.25000   0.46539   0.66251   0.00000  Uiso   1.00
O283   O     0.46538   0.25000   0.33749   0.00000  Uiso   1.00
O284   O     0.03461   0.25000   0.66251   0.00000  Uiso   1.00
O285   O     0.00000   0.21538   0.83749   0.00000  Uiso   1.00
O286   O     0.00000   0.28461   0.16251   0.00000  Uiso   1.00
O287   O     0.28461   0.00000   0.83749   0.00000  Uiso   1.00
O288   O     0.21538   0.00000   0.16251   0.00000  Uiso   1.00
O289   O     0.00000   0.28461   0.83749   0.00000  Uiso   1.00
O290   O     0.00000   0.21538   0.16251   0.00000  Uiso   1.00
O291   O     0.21538   0.00000   0.83749   0.00000  Uiso   1.00
O292   O     0.25000   0.00000   0.75000   0.00000  Uiso   1.00
O293   O     0.28461   0.00000   0.16251   0.00000  Uiso   1.00
O294   O     0.20126   0.08332   0.27298   0.00000  Uiso   1.00
O295   O     0.29873   0.41668   0.72702   0.00000  Uiso   1.00
O296   O     0.41668   0.20127   0.27298   0.00000  Uiso   1.00
O297   O     0.08332   0.29874   0.72702   0.00000  Uiso   1.00
O298   O     0.29873   0.41668   0.27298   0.00000  Uiso   1.00
O299   O     0.20126   0.08332   0.72702   0.00000  Uiso   1.00
O300   O     0.08332   0.29874   0.27298   0.00000  Uiso   1.00
O301   O     0.41668   0.20127   0.72702   0.00000  Uiso   1.00
O302   O     0.20126   0.41668   0.72702   0.00000  Uiso   1.00
O303   O     0.00000   0.25000   0.25000   0.00000  Uiso   1.00
O304   O     0.29873   0.08332   0.27298   0.00000  Uiso   1.00
O305   O     0.41668   0.29874   0.72702   0.00000  Uiso   1.00
O306   O     0.08332   0.20127   0.27298   0.00000  Uiso   1.00
O307   O     0.29873   0.08332   0.72702   0.00000  Uiso   1.00
O308   O     0.20126   0.41668   0.27298   0.00000  Uiso   1.00
O309   O     0.08332   0.20127   0.72702   0.00000  Uiso   1.00
O310   O     0.41668   0.29874   0.27298   0.00000  Uiso   1.00
O311   O     0.45126   0.33332   0.77298   0.00000  Uiso   1.00
O312   O     0.04873   0.16668   0.22702   0.00000  Uiso   1.00
O313   O     0.16668   0.45127   0.77298   0.00000  Uiso   1.00
O314   O     0.00000   0.25000   0.75000   0.00000  Uiso   1.00
O315   O     0.33332   0.04874   0.22702   0.00000  Uiso   1.00
O316   O     0.04873   0.16668   0.77298   0.00000  Uiso   1.00
O317   O     0.45126   0.33332   0.22702   0.00000  Uiso   1.00
O318   O     0.33332   0.04874   0.77298   0.00000  Uiso   1.00
O319   O     0.16668   0.45127   0.22702   0.00000  Uiso   1.00
O320   O     0.45126   0.16668   0.22702   0.00000  Uiso   1.00
O321   O     0.04873   0.33332   0.77298   0.00000  Uiso   1.00
O322   O     0.16668   0.04874   0.22702   0.00000  Uiso   1.00
O323   O     0.33332   0.45127   0.77298   0.00000  Uiso   1.00
O324   O     0.04873   0.33332   0.22702   0.00000  Uiso   1.00
O325   O     0.25000   0.46539   0.33749   0.00000  Uiso   1.00
O326   O     0.45126   0.16668   0.77298   0.00000  Uiso   1.00
O327   O     0.33332   0.45127   0.22702   0.00000  Uiso   1.00
O328   O     0.16668   0.04874   0.77298   0.00000  Uiso   1.00
O329   O     0.39848   0.19870   0.45868   0.00000  Uiso   1.00
O330   O     0.10465   0.29218   0.54053   0.00000  Uiso   1.00
O331   O     0.30815   0.09783   0.45926   0.00000  Uiso   1.00
O332   O     0.19112   0.40245   0.54099   0.00000  Uiso   1.00
O333   O     0.10112   0.30213   0.45845   0.00000  Uiso   1.00
O334   O     0.39539   0.20811   0.54083   0.00000  Uiso   1.00
O335   O     0.19883   0.39960   0.45874   0.00000  Uiso   1.00
O336   O     0.25000   0.03462   0.66251   0.00000  Uiso   1.00
O337   O     0.30186   0.09982   0.54163   0.00000  Uiso   1.00
O338   O     0.15100   0.44395   0.95855   0.00000  Uiso   1.00
O339   O     0.35288   0.04618   0.04059   0.00000  Uiso   1.00
O340   O     0.04605   0.35292   0.95938   0.00000  Uiso   1.00
O341   O     0.44404   0.15097   0.04149   0.00000  Uiso   1.00
O342   O     0.34900   0.05603   0.95852   0.00000  Uiso   1.00
O343   O     0.14711   0.45381   0.04061   0.00000  Uiso   1.00
O344   O     0.45395   0.14707   0.95943   0.00000  Uiso   1.00
O345   O     0.05594   0.34904   0.04144   0.00000  Uiso   1.00
O346   O     0.03461   0.25000   0.33749   0.00000  Uiso   1.00
O347   O     0.46538   0.25000   0.66251   0.00000  Uiso   1.00
O348   O     0.25000   0.03462   0.33749   0.00000  Uiso   1.00
Zn349  Zn    0.20052   0.00000   0.21730   0.00000  Uiso   1.00
Zn350  Zn    0.04947   0.25000   0.28270   0.00000  Uiso   1.00
Zn351  Zn    0.25000   0.45053   0.71730   0.00000  Uiso   1.00
Zn352  Zn    0.25000   0.04948   0.28270   0.00000  Uiso   1.00
Zn353  Zn    0.04947   0.25000   0.71730   0.00000  Uiso   1.00
Zn354  Zn    0.45052   0.25000   0.28270   0.00000  Uiso   1.00
Zn355  Zn    0.25000   0.04948   0.71730   0.00000  Uiso   1.00
Zn356  Zn    0.25000   0.45053   0.28270   0.00000  Uiso   1.00
Zn357  Zn    0.29947   0.00000   0.78270   0.00000  Uiso   1.00
Zn358  Zn    0.00000   0.20052   0.21730   0.00000  Uiso   1.00
Zn359  Zn    0.00000   0.29947   0.78270   0.00000  Uiso   1.00
Zn360  Zn    0.29947   0.00000   0.21730   0.00000  Uiso   1.00
Zn361  Zn    0.20052   0.00000   0.78270   0.00000  Uiso   1.00
Zn362  Zn    0.00000   0.29947   0.21730   0.00000  Uiso   1.00
Zn363  Zn    0.00000   0.20052   0.78270   0.00000  Uiso   1.00
Zn364  Zn    0.45052   0.25000   0.71730   0.00000  Uiso   1.00
C365   C     0.74997   0.49998   0.35593   0.00000  Uiso   1.00
C366   C     0.83003   0.41998   0.75000   0.00000  Uiso   1.00
C367   C     0.95867   0.18523   0.02080   0.00000  Uiso   1.00
C368   C     0.81474   0.04137   0.97921   0.00000  Uiso   1.00
C369   C     0.68393   0.46122   0.02025   0.00000  Uiso   1.00
C370   C     0.96130   0.18390   0.97978   0.00000  Uiso   1.00
C371   C     0.54131   0.31478   0.02077   0.00000  Uiso   1.00
C372   C     0.54081   0.31962   0.39838   0.00000  Uiso   1.00
C373   C     0.50446   0.34685   0.38282   0.00000  Uiso   1.00
C374   C     0.52087   0.38770   0.36498   0.00000  Uiso   1.00
C375   C     0.95330   0.18408   0.60149   0.00000  Uiso   1.00
C376   C     0.98670   0.15375   0.61774   0.00000  Uiso   1.00
C377   C     0.91998   0.16998   0.25000   0.00000  Uiso   1.00
C378   C     0.96614   0.11572   0.63713   0.00000  Uiso   1.00
C379   C     0.67997   0.45970   0.39815   0.00000  Uiso   1.00
C380   C     0.65262   0.49592   0.38259   0.00000  Uiso   1.00
C381   C     0.61270   0.47922   0.36327   0.00000  Uiso   1.00
C382   C     0.82064   0.03887   0.60162   0.00000  Uiso   1.00
C383   C     0.84711   0.00189   0.61700   0.00000  Uiso   1.00
C384   C     0.88892   0.01713   0.63377   0.00000  Uiso   1.00
C385   C     0.95841   0.18079   0.39846   0.00000  Uiso   1.00
C386   C     0.99432   0.15307   0.38281   0.00000  Uiso   1.00
C387   C     0.97717   0.11301   0.36406   0.00000  Uiso   1.00
C388   C     0.58002   0.33002   0.75000   0.00000  Uiso   1.00
C389   C     0.54712   0.31594   0.60156   0.00000  Uiso   1.00
C390   C     0.51400   0.34646   0.61797   0.00000  Uiso   1.00
C391   C     0.53491   0.38421   0.63753   0.00000  Uiso   1.00
C392   C     0.82128   0.03752   0.39814   0.00000  Uiso   1.00
C393   C     0.84708   0.49992   0.38306   0.00000  Uiso   1.00
C394   C     0.88782   0.01458   0.36377   0.00000  Uiso   1.00
C395   C     0.67822   0.46316   0.60186   0.00000  Uiso   1.00
C396   C     0.65295   0.00109   0.61699   0.00000  Uiso   1.00
C397   C     0.61129   0.48714   0.63502   0.00000  Uiso   1.00
C398   C     0.78807   0.07108   0.89832   0.00000  Uiso   1.00
C399   C     0.83003   0.41998   0.25000   0.00000  Uiso   1.00
C400   C     0.75063   0.09697   0.88304   0.00000  Uiso   1.00
C401   C     0.76532   0.13857   0.86542   0.00000  Uiso   1.00
C402   C     0.70562   0.43243   0.10171   0.00000  Uiso   1.00
C403   C     0.74006   0.40316   0.11776   0.00000  Uiso   1.00
C404   C     0.72084   0.36460   0.13744   0.00000  Uiso   1.00
C405   C     0.93248   0.20552   0.89832   0.00000  Uiso   1.00
C406   C     0.90316   0.23991   0.88226   0.00000  Uiso   1.00
C407   C     0.86461   0.22064   0.86261   0.00000  Uiso   1.00
C408   C     0.57106   0.28814   0.10165   0.00000  Uiso   1.00
C409   C     0.59699   0.25074   0.11694   0.00000  Uiso   1.00
C410   C     0.66997   0.08003   0.75000   0.00000  Uiso   1.00
C411   C     0.63860   0.26547   0.13453   0.00000  Uiso   1.00
C412   C     0.71192   0.42891   0.89834   0.00000  Uiso   1.00
C413   C     0.74936   0.40302   0.88306   0.00000  Uiso   1.00
C414   C     0.73466   0.36143   0.86543   0.00000  Uiso   1.00
C415   C     0.79435   0.06758   0.10166   0.00000  Uiso   1.00
C416   C     0.75990   0.09680   0.11775   0.00000  Uiso   1.00
C417   C     0.77907   0.13565   0.13697   0.00000  Uiso   1.00
C418   C     0.56753   0.29445   0.89830   0.00000  Uiso   1.00
C419   C     0.59684   0.26006   0.88224   0.00000  Uiso   1.00
C420   C     0.63542   0.27933   0.86262   0.00000  Uiso   1.00
C421   C     0.58002   0.33002   0.25000   0.00000  Uiso   1.00
C422   C     0.92893   0.21187   0.10168   0.00000  Uiso   1.00
C423   C     0.90299   0.24928   0.11697   0.00000  Uiso   1.00
C424   C     0.86144   0.23453   0.13465   0.00000  Uiso   1.00
C425   C     0.91998   0.16998   0.75000   0.00000  Uiso   1.00
C426   C     0.66998   0.41998   0.75000   0.00000  Uiso   1.00
C427   C     0.83002   0.08002   0.24999   0.00000  Uiso   1.00
C428   C     0.91997   0.33002   0.75000   0.00000  Uiso   1.00
C429   C     0.74998   0.00001   0.64408   0.00000  Uiso   1.00
C430   C     0.58003   0.16998   0.25000   0.00000  Uiso   1.00
C431   C     0.83002   0.08002   0.75000   0.00000  Uiso   1.00
C432   C     0.66998   0.41998   0.25000   0.00000  Uiso   1.00
C433   C     0.58003   0.16997   0.75000   0.00000  Uiso   1.00
C434   C     0.91997   0.33003   0.25000   0.00000  Uiso   1.00
C435   C     0.63834   0.38834   0.25000   0.00000  Uiso   1.00
C436   C     0.86167   0.11166   0.75000   0.00000  Uiso   1.00
C437   C     0.61167   0.13833   0.25000   0.00000  Uiso   1.00
C438   C     0.88833   0.36167   0.75000   0.00000  Uiso   1.00
C439   C     0.86166   0.11166   0.24999   0.00000  Uiso   1.00
C440   C     0.99999   0.24998   0.35592   0.00000  Uiso   1.00
C441   C     0.63833   0.38834   0.75000   0.00000  Uiso   1.00
C442   C     0.88833   0.36167   0.25000   0.00000  Uiso   1.00
C443   C     0.61167   0.13833   0.75000   0.00000  Uiso   1.00
C444   C     0.63833   0.11167   0.75000   0.00000  Uiso   1.00
C445   C     0.86167   0.38833   0.25000   0.00000  Uiso   1.00
C446   C     0.61167   0.36166   0.75000   0.00000  Uiso   1.00
C447   C     0.88833   0.13834   0.25000   0.00000  Uiso   1.00
C448   C     0.86167   0.38833   0.75001   0.00000  Uiso   1.00
C449   C     0.63833   0.11167   0.25000   0.00000  Uiso   1.00
C450   C     0.88834   0.13834   0.75000   0.00000  Uiso   1.00
C451   C     0.50001   0.25006   0.64403   0.00000  Uiso   1.00
C452   C     0.61167   0.36166   0.25000   0.00000  Uiso   1.00
C453   C     0.52481   0.27975   0.41868   0.00000  Uiso   1.00
C454   C     0.97318   0.22214   0.58111   0.00000  Uiso   1.00
C455   C     0.71955   0.47594   0.41876   0.00000  Uiso   1.00
C456   C     0.78057   0.02360   0.58125   0.00000  Uiso   1.00
C457   C     0.97494   0.22046   0.41875   0.00000  Uiso   1.00
C458   C     0.52696   0.27806   0.58110   0.00000  Uiso   1.00
C459   C     0.78086   0.02337   0.41876   0.00000  Uiso   1.00
C460   C     0.71882   0.47683   0.58130   0.00000  Uiso   1.00
C461   C     0.77365   0.03066   0.91869   0.00000  Uiso   1.00
C462   C     0.50000   0.25000   0.85596   0.00000  Uiso   1.00
C463   C     0.72419   0.47104   0.08115   0.00000  Uiso   1.00
C464   C     0.97108   0.22415   0.91887   0.00000  Uiso   1.00
C465   C     0.53064   0.27369   0.08131   0.00000  Uiso   1.00
C466   C     0.72635   0.46933   0.91869   0.00000  Uiso   1.00
C467   C     0.77581   0.02895   0.08113   0.00000  Uiso   1.00
C468   C     0.52893   0.27584   0.91886   0.00000  Uiso   1.00
C469   C     0.96934   0.22633   0.08132   0.00000  Uiso   1.00
C470   C     0.99995   0.25003   0.39834   0.00000  Uiso   1.00
C471   C     0.50004   0.25011   0.60152   0.00000  Uiso   1.00
C472   C     0.75002   0.49989   0.39841   0.00000  Uiso   1.00
C473   C     0.50000   0.25000   0.14409   0.00000  Uiso   1.00
C474   C     0.74986   0.00004   0.60163   0.00000  Uiso   1.00
C475   C     0.75000  -0.00000   0.89833   0.00000  Uiso   1.00
C476   C     0.75000   0.49999   0.10153   0.00000  Uiso   1.00
C477   C     0.50000   0.24999   0.89847   0.00000  Uiso   1.00
C478   C     0.99999   0.25001   0.10167   0.00000  Uiso   1.00
C479   C     0.96912   0.22681   0.45904   0.00000  Uiso   1.00
C480   C     0.53160   0.27231   0.54062   0.00000  Uiso   1.00
C481   C     0.77517   0.02932   0.45918   0.00000  Uiso   1.00
C482   C     0.72451   0.47075   0.54090   0.00000  Uiso   1.00
C483   C     0.53068   0.27351   0.45897   0.00000  Uiso   1.00
C484   C     0.75000  -0.00000   0.85591   0.00000  Uiso   1.00
C485   C     0.96843   0.22798   0.54067   0.00000  Uiso   1.00
C486   C     0.72489   0.47064   0.45919   0.00000  Uiso   1.00
C487   C     0.77513   0.02907   0.54086   0.00000  Uiso   1.00
C488   C     0.72024   0.47534   0.95900   0.00000  Uiso   1.00
C489   C     0.78068   0.02341   0.04065   0.00000  Uiso   1.00
C490   C     0.52339   0.28070   0.95934   0.00000  Uiso   1.00
C491   C     0.97537   0.22023   0.04102   0.00000  Uiso   1.00
C492   C     0.77975   0.02464   0.95899   0.00000  Uiso   1.00
C493   C     0.71932   0.47656   0.04066   0.00000  Uiso   1.00
C494   C     0.97661   0.21929   0.95936   0.00000  Uiso   1.00
C495   C     0.75000  -0.00000   0.14404   0.00000  Uiso   1.00
C496   C     0.52461   0.27978   0.04100   0.00000  Uiso   1.00
C497   C     0.99994   0.25015   0.47943   0.00000  Uiso   1.00
C498   C     0.99999   0.25015   0.52025   0.00000  Uiso   1.00
C499   C     0.74982   0.00010   0.47960   0.00000  Uiso   1.00
C500   C     0.75000   0.49982   0.52044   0.00000  Uiso   1.00
C501   C     0.75000   0.49999   0.97942   0.00000  Uiso   1.00
C502   C     0.75000   0.49999   0.02026   0.00000  Uiso   1.00
C503   C     0.50000   0.25000   0.97975   0.00000  Uiso   1.00
C504   C     0.99999   0.25000   0.02058   0.00000  Uiso   1.00
C505   C     0.93344   0.21166   0.47932   0.00000  Uiso   1.00
C506   C     0.66997   0.08002   0.25000   0.00000  Uiso   1.00
C507   C     0.56757   0.28620   0.52019   0.00000  Uiso   1.00
C508   C     0.79326   0.06348   0.47965   0.00000  Uiso   1.00
C509   C     0.70641   0.43655   0.52050   0.00000  Uiso   1.00
C510   C     0.56634   0.28883   0.47917   0.00000  Uiso   1.00
C511   C     0.93237   0.21417   0.52034   0.00000  Uiso   1.00
C512   C     0.70824   0.43573   0.47942   0.00000  Uiso   1.00
C513   C     0.79186   0.06399   0.52074   0.00000  Uiso   1.00
C514   C     0.68525   0.45860   0.97923   0.00000  Uiso   1.00
C515   C     0.81607   0.03876   0.02023   0.00000  Uiso   1.00
C516   C     0.53869   0.31610   0.97975   0.00000  Uiso   1.00
H517   H     0.53736   0.40680   0.38729   0.00000  Uiso   1.00
H518   H     0.99088   0.09429   0.64842   0.00000  Uiso   1.00
H519   H     0.65368   0.29840   0.88373   0.00000  Uiso   1.00
H520   H     0.65600   0.25388   0.85135   0.00000  Uiso   1.00
H521   H     0.60744   0.23950   0.90645   0.00000  Uiso   1.00
H522   H     0.58053   0.24003   0.86065   0.00000  Uiso   1.00
H523   H     0.55761   0.31630   0.87492   0.00000  Uiso   1.00
H524   H     0.58742   0.31294   0.91841   0.00000  Uiso   1.00
H525   H     0.84169   0.21901   0.11224   0.00000  Uiso   1.00
H526   H     0.86737   0.21211   0.15879   0.00000  Uiso   1.00
H527   H     0.84395   0.26204   0.14625   0.00000  Uiso   1.00
H528   H     0.92042   0.26692   0.13957   0.00000  Uiso   1.00
H529   H     0.50716   0.14262   0.59366   0.00000  Uiso   1.00
H530   H     0.89613   0.27127   0.09268   0.00000  Uiso   1.00
H531   H     0.90754   0.19519   0.08159   0.00000  Uiso   1.00
H532   H     0.93653   0.18973   0.12559   0.00000  Uiso   1.00
H533   H     0.88397   0.17644   0.47378   0.00000  Uiso   1.00
H534   H     0.62892   0.28595   0.52345   0.00000  Uiso   1.00
H535   H     0.83208   0.11012   0.47385   0.00000  Uiso   1.00
H536   H     0.66748   0.38994   0.52615   0.00000  Uiso   1.00
H537   H     0.61559   0.32438   0.47359   0.00000  Uiso   1.00
H538   H     0.87105   0.21452   0.52391   0.00000  Uiso   1.00
H539   H     0.70355   0.37463   0.47536   0.00000  Uiso   1.00
H540   H     0.50702   0.16940   0.63953   0.00000  Uiso   1.00
H541   H     0.79707   0.12500   0.52531   0.00000  Uiso   1.00
H542   H     0.63744   0.42113   0.97371   0.00000  Uiso   1.00
H543   H     0.87738   0.04094   0.02352   0.00000  Uiso   1.00
H544   H     0.54077   0.37741   0.97645   0.00000  Uiso   1.00
H545   H     0.92125   0.13738   0.02634   0.00000  Uiso   1.00
H546   H     0.86256   0.07885   0.97367   0.00000  Uiso   1.00
H547   H     0.62261   0.45906   0.02354   0.00000  Uiso   1.00
H548   H     0.95922   0.12259   0.97652   0.00000  Uiso   1.00
H549   H     0.57873   0.36263   0.02628   0.00000  Uiso   1.00
H550   H     0.93149   0.19454   0.62469   0.00000  Uiso   1.00
H551   H     0.93443   0.16479   0.58117   0.00000  Uiso   1.00
H552   H     0.62088   0.45817   0.33866   0.00000  Uiso   1.00
H553   H     0.59332   0.46158   0.38460   0.00000  Uiso   1.00
H554   H     0.59382   0.00596   0.35199   0.00000  Uiso   1.00
H555   H     0.64357   0.01694   0.40700   0.00000  Uiso   1.00
H556   H     0.66991   0.01504   0.36093   0.00000  Uiso   1.00
H557   H     0.54290   0.38075   0.34077   0.00000  Uiso   1.00
H558   H     0.68869   0.43778   0.37442   0.00000  Uiso   1.00
H559   H     0.65922   0.44199   0.41813   0.00000  Uiso   1.00
H560   H     0.90836   0.03177   0.61064   0.00000  Uiso   1.00
H561   H     0.88338   0.04039   0.65730   0.00000  Uiso   1.00
H562   H     0.90651   0.48999   0.64596   0.00000  Uiso   1.00
H563   H     0.83015   0.48459   0.64014   0.00000  Uiso   1.00
H564   H     0.85365   0.47951   0.59294   0.00000  Uiso   1.00
H565   H     0.84159   0.05612   0.58146   0.00000  Uiso   1.00
H566   H     0.81264   0.06091   0.62548   0.00000  Uiso   1.00
H567   H     0.95948   0.09403   0.38568   0.00000  Uiso   1.00
H568   H     0.99407   0.40631   0.35346   0.00000  Uiso   1.00
H569   H     0.95602   0.12103   0.33946   0.00000  Uiso   1.00
H570   H     0.50369   0.09378   0.35285   0.00000  Uiso   1.00
H571   H     0.51328   0.16995   0.36077   0.00000  Uiso   1.00
H572   H     0.51558   0.14420   0.40710   0.00000  Uiso   1.00
H573   H     0.94097   0.16015   0.41867   0.00000  Uiso   1.00
H574   H     0.93633   0.18944   0.37482   0.00000  Uiso   1.00
H575   H     0.55489   0.37361   0.66212   0.00000  Uiso   1.00
H576   H     0.55465   0.40169   0.61636   0.00000  Uiso   1.00
H577   H     0.51036   0.40580   0.64890   0.00000  Uiso   1.00
H578   H     0.99363   0.35791   0.59395   0.00000  Uiso   1.00
H579   H     0.98624   0.32999   0.36025   0.00000  Uiso   1.00
H580   H     0.99355   0.33085   0.63968   0.00000  Uiso   1.00
H581   H     0.56891   0.30524   0.62468   0.00000  Uiso   1.00
H582   H     0.56607   0.33520   0.58128   0.00000  Uiso   1.00
H583   H     0.88072   0.03567   0.33889   0.00000  Uiso   1.00
H584   H     0.90791   0.03161   0.38497   0.00000  Uiso   1.00
H585   H     0.90552   0.48688   0.35285   0.00000  Uiso   1.00
H586   H     0.85503   0.47880   0.40773   0.00000  Uiso   1.00
H587   H     0.82912   0.48132   0.36151   0.00000  Uiso   1.00
H588   H     0.81364   0.05949   0.37412   0.00000  Uiso   1.00
H589   H     0.84293   0.05429   0.41788   0.00000  Uiso   1.00
H590   H     0.98266   0.35470   0.40700   0.00000  Uiso   1.00
H591   H     0.59111   0.47177   0.61283   0.00000  Uiso   1.00
H592   H     0.61704   0.46481   0.65926   0.00000  Uiso   1.00
H593   H     0.59433   0.01501   0.64656   0.00000  Uiso   1.00
H594   H     0.67077   0.01869   0.63934   0.00000  Uiso   1.00
H595   H     0.64625   0.02296   0.59256   0.00000  Uiso   1.00
H596   H     0.65643   0.44669   0.58201   0.00000  Uiso   1.00
H597   H     0.68556   0.44108   0.62588   0.00000  Uiso   1.00
H598   H     0.78079   0.15831   0.88787   0.00000  Uiso   1.00
H599   H     0.78779   0.13271   0.84131   0.00000  Uiso   1.00
H600   H     0.73780   0.15602   0.85380   0.00000  Uiso   1.00
H601   H     0.55804   0.34043   0.41861   0.00000  Uiso   1.00
H602   H     0.73303   0.07956   0.86041   0.00000  Uiso   1.00
H603   H     0.72860   0.10377   0.90732   0.00000  Uiso   1.00
H604   H     0.80474   0.09248   0.91841   0.00000  Uiso   1.00
H605   H     0.81022   0.06351   0.87441   0.00000  Uiso   1.00
H606   H     0.70057   0.37436   0.16211   0.00000  Uiso   1.00
H607   H     0.70175   0.34631   0.11635   0.00000  Uiso   1.00
H608   H     0.74633   0.34405   0.14869   0.00000  Uiso   1.00
H609   H     0.76060   0.39256   0.09354   0.00000  Uiso   1.00
H610   H     0.76012   0.41950   0.13932   0.00000  Uiso   1.00
H611   H     0.68377   0.44232   0.12510   0.00000  Uiso   1.00
H612   H     0.56293   0.31129   0.37468   0.00000  Uiso   1.00
H613   H     0.68714   0.41252   0.08162   0.00000  Uiso   1.00
H614   H     0.87439   0.20037   0.83794   0.00000  Uiso   1.00
H615   H     0.84635   0.20153   0.88371   0.00000  Uiso   1.00
H616   H     0.84401   0.24608   0.85136   0.00000  Uiso   1.00
H617   H     0.89253   0.26044   0.90647   0.00000  Uiso   1.00
H618   H     0.91947   0.25997   0.86069   0.00000  Uiso   1.00
H619   H     0.94241   0.18368   0.87495   0.00000  Uiso   1.00
H620   H     0.91259   0.18703   0.91843   0.00000  Uiso   1.00
H621   H     0.65832   0.28093   0.11205   0.00000  Uiso   1.00
H622   H     0.63274   0.28794   0.15863   0.00000  Uiso   1.00
H623   H     0.94601   0.12598   0.66173   0.00000  Uiso   1.00
H624   H     0.65608   0.23797   0.14616   0.00000  Uiso   1.00
H625   H     0.57960   0.23315   0.13960   0.00000  Uiso   1.00
H626   H     0.60380   0.22870   0.09268   0.00000  Uiso   1.00
H627   H     0.59245   0.30483   0.08155   0.00000  Uiso   1.00
H628   H     0.56347   0.31029   0.12555   0.00000  Uiso   1.00
H629   H     0.71918   0.34169   0.88787   0.00000  Uiso   1.00
H630   H     0.71221   0.36731   0.84131   0.00000  Uiso   1.00
H631   H     0.76219   0.34398   0.85381   0.00000  Uiso   1.00
H632   H     0.76697   0.42044   0.86043   0.00000  Uiso   1.00
H633   H     0.77138   0.39620   0.90734   0.00000  Uiso   1.00
H634   H     0.94663   0.09821   0.61583   0.00000  Uiso   1.00
H635   H     0.69525   0.40751   0.91843   0.00000  Uiso   1.00
H636   H     0.68978   0.43649   0.87443   0.00000  Uiso   1.00
H637   H     0.79976   0.12624   0.16146   0.00000  Uiso   1.00
H638   H     0.79772   0.15394   0.11555   0.00000  Uiso   1.00
H639   H     0.75357   0.15608   0.14839   0.00000  Uiso   1.00
H640   H     0.73906   0.10707   0.09363   0.00000  Uiso   1.00
H641   H     0.74016   0.08053   0.13961   0.00000  Uiso   1.00
H642   H     0.81625   0.05772   0.12503   0.00000  Uiso   1.00
H643   H     0.81278   0.08750   0.08153   0.00000  Uiso   1.00
H644   H     0.62566   0.29963   0.83796   0.00000  Uiso   1.00
O645   O     0.75000   0.00000   0.25000   0.00000  Uiso   1.00
O646   O     0.75000   0.46539   0.66251   0.00000  Uiso   1.00
O647   O     0.96538   0.25000   0.33749   0.00000  Uiso   1.00
O648   O     0.53461   0.25000   0.66251   0.00000  Uiso   1.00
O649   O     0.50000   0.21538   0.83749   0.00000  Uiso   1.00
O650   O     0.50000   0.28461   0.16251   0.00000  Uiso   1.00
O651   O     0.78461   0.00000   0.83749   0.00000  Uiso   1.00
O652   O     0.71538   0.00000   0.16251   0.00000  Uiso   1.00
O653   O     0.50000   0.28461   0.83749   0.00000  Uiso   1.00
O654   O     0.50000   0.21538   0.16251   0.00000  Uiso   1.00
O655   O     0.71538   0.00000   0.83749   0.00000  Uiso   1.00
O656   O     0.75000   0.00000   0.75000   0.00000  Uiso   1.00
O657   O     0.78461   0.00000   0.16251   0.00000  Uiso   1.00
O658   O     0.70126   0.08332   0.27298   0.00000  Uiso   1.00
O659   O     0.79873   0.41668   0.72702   0.00000  Uiso   1.00
O660   O     0.91668   0.20127   0.27298   0.00000  Uiso   1.00
O661   O     0.58332   0.29874   0.72702   0.00000  Uiso   1.00
O662   O     0.79873   0.41668   0.27298   0.00000  Uiso   1.00
O663   O     0.70126   0.08332   0.72702   0.00000  Uiso   1.00
O664   O     0.58332   0.29874   0.27298   0.00000  Uiso   1.00
O665   O     0.91668   0.20127   0.72702   0.00000  Uiso   1.00
O666   O     0.70126   0.41668   0.72702   0.00000  Uiso   1.00
O667   O     0.50000   0.25000   0.25000   0.00000  Uiso   1.00
O668   O     0.79873   0.08332   0.27298   0.00000  Uiso   1.00
O669   O     0.91668   0.29874   0.72702   0.00000  Uiso   1.00
O670   O     0.58332   0.20127   0.27298   0.00000  Uiso   1.00
O671   O     0.79873   0.08332   0.72702   0.00000  Uiso   1.00
O672   O     0.70126   0.41668   0.27298   0.00000  Uiso   1.00
O673   O     0.58332   0.20127   0.72702   0.00000  Uiso   1.00
O674   O     0.91668   0.29874   0.27298   0.00000  Uiso   1.00
O675   O     0.95126   0.33332   0.77298   0.00000  Uiso   1.00
O676   O     0.54873   0.16668   0.22702   0.00000  Uiso   1.00
O677   O     0.66668   0.45127   0.77298   0.00000  Uiso   1.00
O678   O     0.50000   0.25000   0.75000   0.00000  Uiso   1.00
O679   O     0.83332   0.04874   0.22702   0.00000  Uiso   1.00
O680   O     0.54873   0.16668   0.77298   0.00000  Uiso   1.00
O681   O     0.95126   0.33332   0.22702   0.00000  Uiso   1.00
O682   O     0.83332   0.04874   0.77298   0.00000  Uiso   1.00
O683   O     0.66668   0.45127   0.22702   0.00000  Uiso   1.00
O684   O     0.95126   0.16668   0.22702   0.00000  Uiso   1.00
O685   O     0.54873   0.33332   0.77298   0.00000  Uiso   1.00
O686   O     0.66668   0.04874   0.22702   0.00000  Uiso   1.00
O687   O     0.83332   0.45127   0.77298   0.00000  Uiso   1.00
O688   O     0.54873   0.33332   0.22702   0.00000  Uiso   1.00
O689   O     0.75000   0.46539   0.33749   0.00000  Uiso   1.00
O690   O     0.95126   0.16668   0.77298   0.00000  Uiso   1.00
O691   O     0.83332   0.45127   0.22702   0.00000  Uiso   1.00
O692   O     0.66668   0.04874   0.77298   0.00000  Uiso   1.00
O693   O     0.89848   0.19870   0.45868   0.00000  Uiso   1.00
O694   O     0.60465   0.29218   0.54053   0.00000  Uiso   1.00
O695   O     0.80815   0.09783   0.45926   0.00000  Uiso   1.00
O696   O     0.69112   0.40245   0.54099   0.00000  Uiso   1.00
O697   O     0.60112   0.30213   0.45845   0.00000  Uiso   1.00
O698   O     0.89539   0.20811   0.54083   0.00000  Uiso   1.00
O699   O     0.69883   0.39960   0.45874   0.00000  Uiso   1.00
O700   O     0.75000   0.03462   0.66251   0.00000  Uiso   1.00
O701   O     0.80186   0.09982   0.54163   0.00000  Uiso   1.00
O702   O     0.65100   0.44395   0.95855   0.00000  Uiso   1.00
O703   O     0.85288   0.04618   0.04059   0.00000  Uiso   1.00
O704   O     0.54605   0.35292   0.95938   0.00000  Uiso   1.00
O705   O     0.94404   0.15097   0.04149   0.00000  Uiso   1.00
O706   O     0.84900   0.05603   0.95852   0.00000  Uiso   1.00
O707   O     0.64711   0.45381   0.04061   0.00000  Uiso   1.00
O708   O     0.95395   0.14707   0.95943   0.00000  Uiso   1.00
O709   O     0.55594   0.34904   0.04144   0.00000  Uiso   1.00
O710   O     0.53461   0.25000   0.33749   0.00000  Uiso   1.00
O711   O     0.96538   0.25000   0.66251   0.00000  Uiso   1.00
O712   O     0.75000   0.03462   0.33749   0.00000  Uiso   1.00
Zn713  Zn    0.70052   0.00000   0.21730   0.00000  Uiso   1.00
Zn714  Zn    0.54947   0.25000   0.28270   0.00000  Uiso   1.00
Zn715  Zn    0.75000   0.45053   0.71730   0.00000  Uiso   1.00
Zn716  Zn    0.75000   0.04948   0.28270   0.00000  Uiso   1.00
Zn717  Zn    0.54947   0.25000   0.71730   0.00000  Uiso   1.00
Zn718  Zn    0.95052   0.25000   0.28270   0.00000  Uiso   1.00
Zn719  Zn    0.75000   0.04948   0.71730   0.00000  Uiso   1.00
Zn720  Zn    0.75000   0.45053   0.28270   0.00000  Uiso   1.00
Zn721  Zn    0.79947   0.00000   0.78270   0.00000  Uiso   1.00
Zn722  Zn    0.50000   0.20052   0.21730   0.00000  Uiso   1.00
Zn723  Zn    0.50000   0.29947   0.78270   0.00000  Uiso   1.00
Zn724  Zn    0.79947   0.00000   0.21730   0.00000  Uiso   1.00
Zn725  Zn    0.70052   0.00000   0.78270   0.00000  Uiso   1.00
Zn726  Zn    0.50000   0.29947   0.21730   0.00000  Uiso   1.00
Zn727  Zn    0.50000   0.20052   0.78270   0.00000  Uiso   1.00
Zn728  Zn    0.95052   0.25000   0.71730   0.00000  Uiso   1.00
C729   C     0.24997   0.99998   0.35593   0.00000  Uiso   1.00
C730   C     0.33003   0.91998   0.75000   0.00000  Uiso   1.00
C731   C     0.45867   0.68523   0.02080   0.00000  Uiso   1.00
C732   C     0.31474   0.54137   0.97921   0.00000  Uiso   1.00
C733   C     0.18393   0.96122   0.02025   0.00000  Uiso   1.00
C734   C     0.46130   0.68390   0.97978   0.00000  Uiso   1.00
C735   C     0.04131   0.81478   0.02077   0.00000  Uiso   1.00
C736   C     0.04081   0.81962   0.39838   0.00000  Uiso   1.00
C737   C     0.00446   0.84685   0.38282   0.00000  Uiso   1.00
C738   C     0.02087   0.88770   0.36498   0.00000  Uiso   1.00
C739   C     0.45330   0.68408   0.60149   0.00000  Uiso   1.00
C740   C     0.48670   0.65375   0.61774   0.00000  Uiso   1.00
C741   C     0.41998   0.66998   0.25000   0.00000  Uiso   1.00
C742   C     0.46614   0.61572   0.63713   0.00000  Uiso   1.00
C743   C     0.17997   0.95970   0.39815   0.00000  Uiso   1.00
C744   C     0.15262   0.99592   0.38259   0.00000  Uiso   1.00
C745   C     0.11270   0.97922   0.36327   0.00000  Uiso   1.00
C746   C     0.32064   0.53887   0.60162   0.00000  Uiso   1.00
C747   C     0.34711   0.50189   0.61700   0.00000  Uiso   1.00
C748   C     0.38892   0.51713   0.63377   0.00000  Uiso   1.00
C749   C     0.45841   0.68079   0.39846   0.00000  Uiso   1.00
C750   C     0.49432   0.65307   0.38281   0.00000  Uiso   1.00
C751   C     0.47717   0.61301   0.36406   0.00000  Uiso   1.00
C752   C     0.08002   0.83002   0.75000   0.00000  Uiso   1.00
C753   C     0.04712   0.81594   0.60156   0.00000  Uiso   1.00
C754   C     0.01400   0.84646   0.61797   0.00000  Uiso   1.00
C755   C     0.03491   0.88421   0.63753   0.00000  Uiso   1.00
C756   C     0.32128   0.53752   0.39814   0.00000  Uiso   1.00
C757   C     0.34708   0.99992   0.38306   0.00000  Uiso   1.00
C758   C     0.38782   0.51458   0.36377   0.00000  Uiso   1.00
C759   C     0.17822   0.96316   0.60186   0.00000  Uiso   1.00
C760   C     0.15295   0.50109   0.61699   0.00000  Uiso   1.00
C761   C     0.11129   0.98714   0.63502   0.00000  Uiso   1.00
C762   C     0.28807   0.57108   0.89832   0.00000  Uiso   1.00
C763   C     0.33003   0.91998   0.25000   0.00000  Uiso   1.00
C764   C     0.25063   0.59697   0.88304   0.00000  Uiso   1.00
C765   C     0.26532   0.63857   0.86542   0.00000  Uiso   1.00
C766   C     0.20562   0.93243   0.10171   0.00000  Uiso   1.00
C767   C     0.24006   0.90316   0.11776   0.00000  Uiso   1.00
C768   C     0.22084   0.86460   0.13744   0.00000  Uiso   1.00
C769   C     0.43248   0.70552   0.89832   0.00000  Uiso   1.00
C770   C     0.40316   0.73991   0.88226   0.00000  Uiso   1.00
C771   C     0.36461   0.72064   0.86261   0.00000  Uiso   1.00
C772   C     0.07106   0.78814   0.10165   0.00000  Uiso   1.00
C773   C     0.09699   0.75074   0.11694   0.00000  Uiso   1.00
C774   C     0.16997   0.58003   0.75000   0.00000  Uiso   1.00
C775   C     0.13860   0.76547   0.13453   0.00000  Uiso   1.00
C776   C     0.21192   0.92891   0.89834   0.00000  Uiso   1.00
C777   C     0.24936   0.90302   0.88306   0.00000  Uiso   1.00
C778   C     0.23466   0.86143   0.86543   0.00000  Uiso   1.00
C779   C     0.29435   0.56758   0.10166   0.00000  Uiso   1.00
C780   C     0.25990   0.59680   0.11775   0.00000  Uiso   1.00
C781   C     0.27907   0.63565   0.13697   0.00000  Uiso   1.00
C782   C     0.06753   0.79445   0.89830   0.00000  Uiso   1.00
C783   C     0.09684   0.76006   0.88224   0.00000  Uiso   1.00
C784   C     0.13542   0.77933   0.86262   0.00000  Uiso   1.00
C785   C     0.08002   0.83002   0.25000   0.00000  Uiso   1.00
C786   C     0.42893   0.71187   0.10168   0.00000  Uiso   1.00
C787   C     0.40299   0.74928   0.11697   0.00000  Uiso   1.00
C788   C     0.36144   0.73453   0.13465   0.00000  Uiso   1.00
C789   C     0.41998   0.66998   0.75000   0.00000  Uiso   1.00
C790   C     0.16998   0.91998   0.75000   0.00000  Uiso   1.00
C791   C     0.33002   0.58002   0.24999   0.00000  Uiso   1.00
C792   C     0.41997   0.83002   0.75000   0.00000  Uiso   1.00
C793   C     0.24998   0.50001   0.64408   0.00000  Uiso   1.00
C794   C     0.08003   0.66998   0.25000   0.00000  Uiso   1.00
C795   C     0.33002   0.58002   0.75000   0.00000  Uiso   1.00
C796   C     0.16998   0.91998   0.25000   0.00000  Uiso   1.00
C797   C     0.08003   0.66997   0.75000   0.00000  Uiso   1.00
C798   C     0.41997   0.83003   0.25000   0.00000  Uiso   1.00
C799   C     0.13834   0.88834   0.25000   0.00000  Uiso   1.00
C800   C     0.36167   0.61166   0.75000   0.00000  Uiso   1.00
C801   C     0.11167   0.63833   0.25000   0.00000  Uiso   1.00
C802   C     0.38833   0.86167   0.75000   0.00000  Uiso   1.00
C803   C     0.36166   0.61166   0.24999   0.00000  Uiso   1.00
C804   C     0.49999   0.74998   0.35592   0.00000  Uiso   1.00
C805   C     0.13833   0.88834   0.75000   0.00000  Uiso   1.00
C806   C     0.38833   0.86167   0.25000   0.00000  Uiso   1.00
C807   C     0.11167   0.63833   0.75000   0.00000  Uiso   1.00
C808   C     0.13833   0.61167   0.75000   0.00000  Uiso   1.00
C809   C     0.36167   0.88833   0.25000   0.00000  Uiso   1.00
C810   C     0.11167   0.86166   0.75000   0.00000  Uiso   1.00
C811   C     0.38833   0.63834   0.25000   0.00000  Uiso   1.00
C812   C     0.36167   0.88833   0.75001   0.00000  Uiso   1.00
C813   C     0.13833   0.61167   0.25000   0.00000  Uiso   1.00
C814   C     0.38834   0.63834   0.75000   0.00000  Uiso   1.00
C815   C     0.00001   0.75006   0.64403   0.00000  Uiso   1.00
C816   C     0.11167   0.86166   0.25000   0.00000  Uiso   1.00
C817   C     0.02481   0.77975   0.41868   0.00000  Uiso   1.00
C818   C     0.47318   0.72214   0.58111   0.00000  Uiso   1.00
C819   C     0.21955   0.97594   0.41876   0.00000  Uiso   1.00
C820   C     0.28057   0.52360   0.58125   0.00000  Uiso   1.00
C821   C     0.47494   0.72046   0.41875   0.00000  Uiso   1.00
C822   C     0.02696   0.77806   0.58110   0.00000  Uiso   1.00
C823   C     0.28086   0.52337   0.41876   0.00000  Uiso   1.00
C824   C     0.21882   0.97683   0.58130   0.00000  Uiso   1.00
C825   C     0.27365   0.53066   0.91869   0.00000  Uiso   1.00
C826   C    -0.00000   0.75000   0.85596   0.00000  Uiso   1.00
C827   C     0.22419   0.97104   0.08115   0.00000  Uiso   1.00
C828   C     0.47108   0.72415   0.91887   0.00000  Uiso   1.00
C829   C     0.03064   0.77369   0.08131   0.00000  Uiso   1.00
C830   C     0.22635   0.96933   0.91869   0.00000  Uiso   1.00
C831   C     0.27581   0.52895   0.08113   0.00000  Uiso   1.00
C832   C     0.02893   0.77584   0.91886   0.00000  Uiso   1.00
C833   C     0.46934   0.72633   0.08132   0.00000  Uiso   1.00
C834   C     0.49995   0.75003   0.39834   0.00000  Uiso   1.00
C835   C     0.00004   0.75011   0.60152   0.00000  Uiso   1.00
C836   C     0.25002   0.99989   0.39841   0.00000  Uiso   1.00
C837   C    -0.00000   0.75000   0.14409   0.00000  Uiso   1.00
C838   C     0.24986   0.50004   0.60163   0.00000  Uiso   1.00
C839   C     0.25000   0.50000   0.89833   0.00000  Uiso   1.00
C840   C     0.25000   0.99999   0.10153   0.00000  Uiso   1.00
C841   C     0.00000   0.74999   0.89847   0.00000  Uiso   1.00
C842   C     0.49999   0.75001   0.10167   0.00000  Uiso   1.00
C843   C     0.46912   0.72681   0.45904   0.00000  Uiso   1.00
C844   C     0.03160   0.77231   0.54062   0.00000  Uiso   1.00
C845   C     0.27517   0.52932   0.45918   0.00000  Uiso   1.00
C846   C     0.22451   0.97075   0.54090   0.00000  Uiso   1.00
C847   C     0.03068   0.77351   0.45897   0.00000  Uiso   1.00
C848   C     0.25000   0.50000   0.85591   0.00000  Uiso   1.00
C849   C     0.46843   0.72798   0.54067   0.00000  Uiso   1.00
C850   C     0.22489   0.97064   0.45919   0.00000  Uiso   1.00
C851   C     0.27513   0.52907   0.54086   0.00000  Uiso   1.00
C852   C     0.22024   0.97534   0.95900   0.00000  Uiso   1.00
C853   C     0.28068   0.52341   0.04065   0.00000  Uiso   1.00
C854   C     0.02339   0.78070   0.95934   0.00000  Uiso   1.00
C855   C     0.47537   0.72023   0.04102   0.00000  Uiso   1.00
C856   C     0.27975   0.52464   0.95899   0.00000  Uiso   1.00
C857   C     0.21932   0.97656   0.04066   0.00000  Uiso   1.00
C858   C     0.47661   0.71929   0.95936   0.00000  Uiso   1.00
C859   C     0.25000   0.50000   0.14404   0.00000  Uiso   1.00
C860   C     0.02461   0.77978   0.04100   0.00000  Uiso   1.00
C861   C     0.49994   0.75015   0.47943   0.00000  Uiso   1.00
C862   C     0.49999   0.75015   0.52025   0.00000  Uiso   1.00
C863   C     0.24982   0.50010   0.47960   0.00000  Uiso   1.00
C864   C     0.25000   0.99982   0.52044   0.00000  Uiso   1.00
C865   C     0.25000   0.99999   0.97942   0.00000  Uiso   1.00
C866   C     0.25000   0.99999   0.02026   0.00000  Uiso   1.00
C867   C    -0.00000   0.75000   0.97975   0.00000  Uiso   1.00
C868   C     0.49999   0.75000   0.02058   0.00000  Uiso   1.00
C869   C     0.43344   0.71166   0.47932   0.00000  Uiso   1.00
C870   C     0.16997   0.58002   0.25000   0.00000  Uiso   1.00
C871   C     0.06757   0.78620   0.52019   0.00000  Uiso   1.00
C872   C     0.29326   0.56348   0.47965   0.00000  Uiso   1.00
C873   C     0.20641   0.93655   0.52050   0.00000  Uiso   1.00
C874   C     0.06634   0.78883   0.47917   0.00000  Uiso   1.00
C875   C     0.43237   0.71417   0.52034   0.00000  Uiso   1.00
C876   C     0.20824   0.93573   0.47942   0.00000  Uiso   1.00
C877   C     0.29186   0.56399   0.52074   0.00000  Uiso   1.00
C878   C     0.18525   0.95860   0.97923   0.00000  Uiso   1.00
C879   C     0.31607   0.53876   0.02023   0.00000  Uiso   1.00
C880   C     0.03869   0.81610   0.97975   0.00000  Uiso   1.00
H881   H     0.03736   0.90680   0.38729   0.00000  Uiso   1.00
H882   H     0.49088   0.59429   0.64842   0.00000  Uiso   1.00
H883   H     0.15368   0.79840   0.88373   0.00000  Uiso   1.00
H884   H     0.15600   0.75388   0.85135   0.00000  Uiso   1.00
H885   H     0.10744   0.73950   0.90645   0.00000  Uiso   1.00
H886   H     0.08053   0.74003   0.86065   0.00000  Uiso   1.00
H887   H     0.05761   0.81630   0.87492   0.00000  Uiso   1.00
H888   H     0.08742   0.81294   0.91841   0.00000  Uiso   1.00
H889   H     0.34169   0.71901   0.11224   0.00000  Uiso   1.00
H890   H     0.36737   0.71211   0.15879   0.00000  Uiso   1.00
H891   H     0.34395   0.76204   0.14625   0.00000  Uiso   1.00
H892   H     0.42042   0.76692   0.13957   0.00000  Uiso   1.00
H893   H     0.00716   0.64262   0.59366   0.00000  Uiso   1.00
H894   H     0.39613   0.77127   0.09268   0.00000  Uiso   1.00
H895   H     0.40754   0.69519   0.08159   0.00000  Uiso   1.00
H896   H     0.43653   0.68973   0.12559   0.00000  Uiso   1.00
H897   H     0.38397   0.67644   0.47378   0.00000  Uiso   1.00
H898   H     0.12892   0.78595   0.52345   0.00000  Uiso   1.00
H899   H     0.33208   0.61012   0.47385   0.00000  Uiso   1.00
H900   H     0.16748   0.88994   0.52615   0.00000  Uiso   1.00
H901   H     0.11559   0.82438   0.47359   0.00000  Uiso   1.00
H902   H     0.37105   0.71452   0.52391   0.00000  Uiso   1.00
H903   H     0.20355   0.87463   0.47536   0.00000  Uiso   1.00
H904   H     0.00702   0.66940   0.63953   0.00000  Uiso   1.00
H905   H     0.29707   0.62500   0.52531   0.00000  Uiso   1.00
H906   H     0.13744   0.92113   0.97371   0.00000  Uiso   1.00
H907   H     0.37738   0.54094   0.02352   0.00000  Uiso   1.00
H908   H     0.04077   0.87741   0.97645   0.00000  Uiso   1.00
H909   H     0.42125   0.63738   0.02634   0.00000  Uiso   1.00
H910   H     0.36256   0.57885   0.97367   0.00000  Uiso   1.00
H911   H     0.12261   0.95906   0.02354   0.00000  Uiso   1.00
H912   H     0.45922   0.62259   0.97652   0.00000  Uiso   1.00
H913   H     0.07873   0.86263   0.02628   0.00000  Uiso   1.00
H914   H     0.43149   0.69454   0.62469   0.00000  Uiso   1.00
H915   H     0.43443   0.66479   0.58117   0.00000  Uiso   1.00
H916   H     0.12088   0.95817   0.33866   0.00000  Uiso   1.00
H917   H     0.09332   0.96158   0.38460   0.00000  Uiso   1.00
H918   H     0.09382   0.50596   0.35199   0.00000  Uiso   1.00
H919   H     0.14357   0.51694   0.40700   0.00000  Uiso   1.00
H920   H     0.16991   0.51504   0.36093   0.00000  Uiso   1.00
H921   H     0.04290   0.88075   0.34077   0.00000  Uiso   1.00
H922   H     0.18869   0.93778   0.37442   0.00000  Uiso   1.00
H923   H     0.15922   0.94199   0.41813   0.00000  Uiso   1.00
H924   H     0.40836   0.53177   0.61064   0.00000  Uiso   1.00
H925   H     0.38338   0.54039   0.65730   0.00000  Uiso   1.00
H926   H     0.40651   0.98999   0.64596   0.00000  Uiso   1.00
H927   H     0.33015   0.98459   0.64014   0.00000  Uiso   1.00
H928   H     0.35365   0.97951   0.59294   0.00000  Uiso   1.00
H929   H     0.34159   0.55612   0.58146   0.00000  Uiso   1.00
H930   H     0.31264   0.56091   0.62548   0.00000  Uiso   1.00
H931   H     0.45948   0.59403   0.38568   0.00000  Uiso   1.00
H932   H     0.49407   0.90631   0.35346   0.00000  Uiso   1.00
H933   H     0.45602   0.62103   0.33946   0.00000  Uiso   1.00
H934   H     0.00369   0.59378   0.35285   0.00000  Uiso   1.00
H935   H     0.01328   0.66995   0.36077   0.00000  Uiso   1.00
H936   H     0.01558   0.64420   0.40710   0.00000  Uiso   1.00
H937   H     0.44097   0.66015   0.41867   0.00000  Uiso   1.00
H938   H     0.43633   0.68944   0.37482   0.00000  Uiso   1.00
H939   H     0.05489   0.87361   0.66212   0.00000  Uiso   1.00
H940   H     0.05465   0.90169   0.61636   0.00000  Uiso   1.00
H941   H     0.01036   0.90580   0.64890   0.00000  Uiso   1.00
H942   H     0.49363   0.85791   0.59395   0.00000  Uiso   1.00
H943   H     0.48624   0.82999   0.36025   0.00000  Uiso   1.00
H944   H     0.49355   0.83085   0.63968   0.00000  Uiso   1.00
H945   H     0.06891   0.80524   0.62468   0.00000  Uiso   1.00
H946   H     0.06607   0.83520   0.58128   0.00000  Uiso   1.00
H947   H     0.38072   0.53567   0.33889   0.00000  Uiso   1.00
H948   H     0.40791   0.53161   0.38497   0.00000  Uiso   1.00
H949   H     0.40552   0.98688   0.35285   0.00000  Uiso   1.00
H950   H     0.35503   0.97880   0.40773   0.00000  Uiso   1.00
H951   H     0.32912   0.98132   0.36151   0.00000  Uiso   1.00
H952   H     0.31364   0.55949   0.37412   0.00000  Uiso   1.00
H953   H     0.34293   0.55429   0.41788   0.00000  Uiso   1.00
H954   H     0.48266   0.85470   0.40700   0.00000  Uiso   1.00
H955   H     0.09111   0.97177   0.61283   0.00000  Uiso   1.00
H956   H     0.11704   0.96481   0.65926   0.00000  Uiso   1.00
H957   H     0.09433   0.51501   0.64656   0.00000  Uiso   1.00
H958   H     0.17077   0.51869   0.63934   0.00000  Uiso   1.00
H959   H     0.14625   0.52296   0.59256   0.00000  Uiso   1.00
H960   H     0.15643   0.94669   0.58201   0.00000  Uiso   1.00
H961   H     0.18556   0.94108   0.62588   0.00000  Uiso   1.00
H962   H     0.28079   0.65831   0.88787   0.00000  Uiso   1.00
H963   H     0.28779   0.63271   0.84131   0.00000  Uiso   1.00
H964   H     0.23780   0.65602   0.85380   0.00000  Uiso   1.00
H965   H     0.05804   0.84043   0.41861   0.00000  Uiso   1.00
H966   H     0.23303   0.57956   0.86041   0.00000  Uiso   1.00
H967   H     0.22860   0.60377   0.90732   0.00000  Uiso   1.00
H968   H     0.30474   0.59248   0.91841   0.00000  Uiso   1.00
H969   H     0.31022   0.56351   0.87441   0.00000  Uiso   1.00
H970   H     0.20057   0.87436   0.16211   0.00000  Uiso   1.00
H971   H     0.20175   0.84631   0.11635   0.00000  Uiso   1.00
H972   H     0.24633   0.84405   0.14869   0.00000  Uiso   1.00
H973   H     0.26060   0.89256   0.09354   0.00000  Uiso   1.00
H974   H     0.26012   0.91950   0.13932   0.00000  Uiso   1.00
H975   H     0.18377   0.94232   0.12510   0.00000  Uiso   1.00
H976   H     0.06293   0.81129   0.37468   0.00000  Uiso   1.00
H977   H     0.18714   0.91252   0.08162   0.00000  Uiso   1.00
H978   H     0.37439   0.70037   0.83794   0.00000  Uiso   1.00
H979   H     0.34635   0.70153   0.88371   0.00000  Uiso   1.00
H980   H     0.34401   0.74608   0.85136   0.00000  Uiso   1.00
H981   H     0.39253   0.76044   0.90647   0.00000  Uiso   1.00
H982   H     0.41947   0.75997   0.86069   0.00000  Uiso   1.00
H983   H     0.44241   0.68368   0.87495   0.00000  Uiso   1.00
H984   H     0.41259   0.68703   0.91843   0.00000  Uiso   1.00
H985   H     0.15832   0.78093   0.11205   0.00000  Uiso   1.00
H986   H     0.13274   0.78794   0.15863   0.00000  Uiso   1.00
H987   H     0.44601   0.62598   0.66173   0.00000  Uiso   1.00
H988   H     0.15608   0.73797   0.14616   0.00000  Uiso   1.00
H989   H     0.07960   0.73315   0.13960   0.00000  Uiso   1.00
H990   H     0.10380   0.72870   0.09268   0.00000  Uiso   1.00
H991   H     0.09245   0.80483   0.08155   0.00000  Uiso   1.00
H992   H     0.06347   0.81029   0.12555   0.00000  Uiso   1.00
H993   H     0.21918   0.84169   0.88787   0.00000  Uiso   1.00
H994   H     0.21221   0.86731   0.84131   0.00000  Uiso   1.00
H995   H     0.26219   0.84398   0.85381   0.00000  Uiso   1.00
H996   H     0.26697   0.92044   0.86043   0.00000  Uiso   1.00
H997   H     0.27138   0.89620   0.90734   0.00000  Uiso   1.00
H998   H     0.44663   0.59821   0.61583   0.00000  Uiso   1.00
H999   H     0.19525   0.90751   0.91843   0.00000  Uiso   1.00
H1000  H     0.18978   0.93649   0.87443   0.00000  Uiso   1.00
H1001  H     0.29976   0.62624   0.16146   0.00000  Uiso   1.00
H1002  H     0.29772   0.65394   0.11555   0.00000  Uiso   1.00
H1003  H     0.25357   0.65608   0.14839   0.00000  Uiso   1.00
H1004  H     0.23906   0.60707   0.09363   0.00000  Uiso   1.00
H1005  H     0.24016   0.58053   0.13961   0.00000  Uiso   1.00
H1006  H     0.31625   0.55772   0.12503   0.00000  Uiso   1.00
H1007  H     0.31278   0.58750   0.08153   0.00000  Uiso   1.00
H1008  H     0.12566   0.79963   0.83796   0.00000  Uiso   1.00
O1009  O     0.25000   0.50000   0.25000   0.00000  Uiso   1.00
O1010  O     0.25000   0.96539   0.66251   0.00000  Uiso   1.00
O1011  O     0.46538   0.75000   0.33749   0.00000  Uiso   1.00
O1012  O     0.03461   0.75000   0.66251   0.00000  Uiso   1.00
O1013  O     0.00000   0.71538   0.83749   0.00000  Uiso   1.00
O1014  O     0.00000   0.78461   0.16251   0.00000  Uiso   1.00
O1015  O     0.28461   0.50000   0.83749   0.00000  Uiso   1.00
O1016  O     0.21538   0.50000   0.16251   0.00000  Uiso   1.00
O1017  O     0.00000   0.78461   0.83749   0.00000  Uiso   1.00
O1018  O     0.00000   0.71538   0.16251   0.00000  Uiso   1.00
O1019  O     0.21538   0.50000   0.83749   0.00000  Uiso   1.00
O1020  O     0.25000   0.50000   0.75000   0.00000  Uiso   1.00
O1021  O     0.28461   0.50000   0.16251   0.00000  Uiso   1.00
O1022  O     0.20126   0.58332   0.27298   0.00000  Uiso   1.00
O1023  O     0.29873   0.91668   0.72702   0.00000  Uiso   1.00
O1024  O     0.41668   0.70127   0.27298   0.00000  Uiso   1.00
O1025  O     0.08332   0.79874   0.72702   0.00000  Uiso   1.00
O1026  O     0.29873   0.91668   0.27298   0.00000  Uiso   1.00
O1027  O     0.20126   0.58332   0.72702   0.00000  Uiso   1.00
O1028  O     0.08332   0.79874   0.27298   0.00000  Uiso   1.00
O1029  O     0.41668   0.70127   0.72702   0.00000  Uiso   1.00
O1030  O     0.20126   0.91668   0.72702   0.00000  Uiso   1.00
O1031  O     0.00000   0.75000   0.25000   0.00000  Uiso   1.00
O1032  O     0.29873   0.58332   0.27298   0.00000  Uiso   1.00
O1033  O     0.41668   0.79874   0.72702   0.00000  Uiso   1.00
O1034  O     0.08332   0.70127   0.27298   0.00000  Uiso   1.00
O1035  O     0.29873   0.58332   0.72702   0.00000  Uiso   1.00
O1036  O     0.20126   0.91668   0.27298   0.00000  Uiso   1.00
O1037  O     0.08332   0.70127   0.72702   0.00000  Uiso   1.00
O1038  O     0.41668   0.79874   0.27298   0.00000  Uiso   1.00
O1039  O     0.45126   0.83332   0.77298   0.00000  Uiso   1.00
O1040  O     0.04873   0.66668   0.22702   0.00000  Uiso   1.00
O1041  O     0.16668   0.95127   0.77298   0.00000  Uiso   1.00
O1042  O     0.00000   0.75000   0.75000   0.00000  Uiso   1.00
O1043  O     0.33332   0.54874   0.22702   0.00000  Uiso   1.00
O1044  O     0.04873   0.66668   0.77298   0.00000  Uiso   1.00
O1045  O     0.45126   0.83332   0.22702   0.00000  Uiso   1.00
O1046  O     0.33332   0.54874   0.77298   0.00000  Uiso   1.00
O1047  O     0.16668   0.95127   0.22702   0.00000  Uiso   1.00
O1048  O     0.45126   0.66668   0.22702   0.00000  Uiso   1.00
O1049  O     0.04873   0.83332   0.77298   0.00000  Uiso   1.00
O1050  O     0.16668   0.54874   0.22702   0.00000  Uiso   1.00
O1051  O     0.33332   0.95127   0.77298   0.00000  Uiso   1.00
O1052  O     0.04873   0.83332   0.22702   0.00000  Uiso   1.00
O1053  O     0.25000   0.96539   0.33749   0.00000  Uiso   1.00
O1054  O     0.45126   0.66668   0.77298   0.00000  Uiso   1.00
O1055  O     0.33332   0.95127   0.22702   0.00000  Uiso   1.00
O1056  O     0.16668   0.54874   0.77298   0.00000  Uiso   1.00
O1057  O     0.39848   0.69870   0.45868   0.00000  Uiso   1.00
O1058  O     0.10465   0.79218   0.54053   0.00000  Uiso   1.00
O1059  O     0.30815   0.59783   0.45926   0.00000  Uiso   1.00
O1060  O     0.19112   0.90245   0.54099   0.00000  Uiso   1.00
O1061  O     0.10112   0.80213   0.45845   0.00000  Uiso   1.00
O1062  O     0.39539   0.70811   0.54083   0.00000  Uiso   1.00
O1063  O     0.19883   0.89960   0.45874   0.00000  Uiso   1.00
O1064  O     0.25000   0.53462   0.66251   0.00000  Uiso   1.00
O1065  O     0.30186   0.59982   0.54163   0.00000  Uiso   1.00
O1066  O     0.15100   0.94395   0.95855   0.00000  Uiso   1.00
O1067  O     0.35288   0.54618   0.04059   0.00000  Uiso   1.00
O1068  O     0.04605   0.85292   0.95938   0.00000  Uiso   1.00
O1069  O     0.44404   0.65097   0.04149   0.00000  Uiso   1.00
O1070  O     0.34900   0.55603   0.95852   0.00000  Uiso   1.00
O1071  O     0.14711   0.95381   0.04061   0.00000  Uiso   1.00
O1072  O     0.45395   0.64707   0.95943   0.00000  Uiso   1.00
O1073  O     0.05594   0.84904   0.04144   0.00000  Uiso   1.00
O1074  O     0.03461   0.75000   0.33749   0.00000  Uiso   1.00
O1075  O     0.46538   0.75000   0.66251   0.00000  Uiso   1.00
O1076  O     0.25000   0.53462   0.33749   0.00000  Uiso   1.00
Zn1077 Zn    0.20052   0.50000   0.21730   0.00000  Uiso   1.00
Zn1078 Zn    0.04947   0.75000   0.28270   0.00000  Uiso   1.00
Zn1079 Zn    0.25000   0.95053   0.71730   0.00000  Uiso   1.00
Zn1080 Zn    0.25000   0.54948   0.28270   0.00000  Uiso   1.00
Zn1081 Zn    0.04947   0.75000   0.71730   0.00000  Uiso   1.00
Zn1082 Zn    0.45052   0.75000   0.28270   0.00000  Uiso   1.00
Zn1083 Zn    0.25000   0.54948   0.71730   0.00000  Uiso   1.00
Zn1084 Zn    0.25000   0.95053   0.28270   0.00000  Uiso   1.00
Zn1085 Zn    0.29947   0.50000   0.78270   0.00000  Uiso   1.00
Zn1086 Zn    0.00000   0.70052   0.21730   0.00000  Uiso   1.00
Zn1087 Zn    0.00000   0.79947   0.78270   0.00000  Uiso   1.00
Zn1088 Zn    0.29947   0.50000   0.21730   0.00000  Uiso   1.00
Zn1089 Zn    0.20052   0.50000   0.78270   0.00000  Uiso   1.00
Zn1090 Zn    0.00000   0.79947   0.21730   0.00000  Uiso   1.00
Zn1091 Zn    0.00000   0.70052   0.78270   0.00000  Uiso   1.00
Zn1092 Zn    0.45052   0.75000   0.71730   0.00000  Uiso   1.00
C1093  C     0.74997   0.99998   0.35593   0.00000  Uiso   1.00
C1094  C     0.83003   0.91998   0.75000   0.00000  Uiso   1.00
C1095  C     0.95867   0.68523   0.02080   0.00000  Uiso   1.00
C1096  C     0.81474   0.54137   0.97921   0.00000  Uiso   1.00
C1097  C     0.68393   0.96122   0.02025   0.00000  Uiso   1.00
C1098  C     0.96130   0.68390   0.97978   0.00000  Uiso   1.00
C1099  C     0.54131   0.81478   0.02077   0.00000  Uiso   1.00
C1100  C     0.54081   0.81962   0.39838   0.00000  Uiso   1.00
C1101  C     0.50446   0.84685   0.38282   0.00000  Uiso   1.00
C1102  C     0.52087   0.88770   0.36498   0.00000  Uiso   1.00
C1103  C     0.95330   0.68408   0.60149   0.00000  Uiso   1.00
C1104  C     0.98670   0.65375   0.61774   0.00000  Uiso   1.00
C1105  C     0.91998   0.66998   0.25000   0.00000  Uiso   1.00
C1106  C     0.96614   0.61572   0.63713   0.00000  Uiso   1.00
C1107  C     0.67997   0.95970   0.39815   0.00000  Uiso   1.00
C1108  C     0.65262   0.99592   0.38259   0.00000  Uiso   1.00
C1109  C     0.61270   0.97922   0.36327   0.00000  Uiso   1.00
C1110  C     0.82064   0.53887   0.60162   0.00000  Uiso   1.00
C1111  C     0.84711   0.50189   0.61700   0.00000  Uiso   1.00
C1112  C     0.88892   0.51713   0.63377   0.00000  Uiso   1.00
C1113  C     0.95841   0.68079   0.39846   0.00000  Uiso   1.00
C1114  C     0.99432   0.65307   0.38281   0.00000  Uiso   1.00
C1115  C     0.97717   0.61301   0.36406   0.00000  Uiso   1.00
C1116  C     0.58002   0.83002   0.75000   0.00000  Uiso   1.00
C1117  C     0.54712   0.81594   0.60156   0.00000  Uiso   1.00
C1118  C     0.51400   0.84646   0.61797   0.00000  Uiso   1.00
C1119  C     0.53491   0.88421   0.63753   0.00000  Uiso   1.00
C1120  C     0.82128   0.53752   0.39814   0.00000  Uiso   1.00
C1121  C     0.84708   0.99992   0.38306   0.00000  Uiso   1.00
C1122  C     0.88782   0.51458   0.36377   0.00000  Uiso   1.00
C1123  C     0.67822   0.96316   0.60186   0.00000  Uiso   1.00
C1124  C     0.65295   0.50109   0.61699   0.00000  Uiso   1.00
C1125  C     0.61129   0.98714   0.63502   0.00000  Uiso   1.00
C1126  C     0.78807   0.57108   0.89832   0.00000  Uiso   1.00
C1127  C     0.83003   0.91998   0.25000   0.00000  Uiso   1.00
C1128  C     0.75063   0.59697   0.88304   0.00000  Uiso   1.00
C1129  C     0.76532   0.63857   0.86542   0.00000  Uiso   1.00
C1130  C     0.70562   0.93243   0.10171   0.00000  Uiso   1.00
C1131  C     0.74006   0.90316   0.11776   0.00000  Uiso   1.00
C1132  C     0.72084   0.86460   0.13744   0.00000  Uiso   1.00
C1133  C     0.93248   0.70552   0.89832   0.00000  Uiso   1.00
C1134  C     0.90316   0.73991   0.88226   0.00000  Uiso   1.00
C1135  C     0.86461   0.72064   0.86261   0.00000  Uiso   1.00
C1136  C     0.57106   0.78814   0.10165   0.00000  Uiso   1.00
C1137  C     0.59699   0.75074   0.11694   0.00000  Uiso   1.00
C1138  C     0.66997   0.58003   0.75000   0.00000  Uiso   1.00
C1139  C     0.63860   0.76547   0.13453   0.00000  Uiso   1.00
C1140  C     0.71192   0.92891   0.89834   0.00000  Uiso   1.00
C1141  C     0.74936   0.90302   0.88306   0.00000  Uiso   1.00
C1142  C     0.73466   0.86143   0.86543   0.00000  Uiso   1.00
C1143  C     0.79435   0.56758   0.10166   0.00000  Uiso   1.00
C1144  C     0.75990   0.59680   0.11775   0.00000  Uiso   1.00
C1145  C     0.77907   0.63565   0.13697   0.00000  Uiso   1.00
C1146  C     0.56753   0.79445   0.89830   0.00000  Uiso   1.00
C1147  C     0.59684   0.76006   0.88224   0.00000  Uiso   1.00
C1148  C     0.63542   0.77933   0.86262   0.00000  Uiso   1.00
C1149  C     0.58002   0.83002   0.25000   0.00000  Uiso   1.00
C1150  C     0.92893   0.71187   0.10168   0.00000  Uiso   1.00
C1151  C     0.90299   0.74928   0.11697   0.00000  Uiso   1.00
C1152  C     0.86144   0.73453   0.13465   0.00000  Uiso   1.00
C1153  C     0.91998   0.66998   0.75000   0.00000  Uiso   1.00
C1154  C     0.66998   0.91998   0.75000   0.00000  Uiso   1.00
C1155  C     0.83002   0.58002   0.24999   0.00000  Uiso   1.00
C1156  C     0.91997   0.83002   0.75000   0.00000  Uiso   1.00
C1157  C     0.74998   0.50001   0.64408   0.00000  Uiso   1.00
C1158  C     0.58003   0.66998   0.25000   0.00000  Uiso   1.00
C1159  C     0.83002   0.58002   0.75000   0.00000  Uiso   1.00
C1160  C     0.66998   0.91998   0.25000   0.00000  Uiso   1.00
C1161  C     0.58003   0.66997   0.75000   0.00000  Uiso   1.00
C1162  C     0.91997   0.83003   0.25000   0.00000  Uiso   1.00
C1163  C     0.63834   0.88834   0.25000   0.00000  Uiso   1.00
C1164  C     0.86167   0.61166   0.75000   0.00000  Uiso   1.00
C1165  C     0.61167   0.63833   0.25000   0.00000  Uiso   1.00
C1166  C     0.88833   0.86167   0.75000   0.00000  Uiso   1.00
C1167  C     0.86166   0.61166   0.24999   0.00000  Uiso   1.00
C1168  C     0.99999   0.74998   0.35592   0.00000  Uiso   1.00
C1169  C     0.63833   0.88834   0.75000   0.00000  Uiso   1.00
C1170  C     0.88833   0.86167   0.25000   0.00000  Uiso   1.00
C1171  C     0.61167   0.63833   0.75000   0.00000  Uiso   1.00
C1172  C     0.63833   0.61167   0.75000   0.00000  Uiso   1.00
C1173  C     0.86167   0.88833   0.25000   0.00000  Uiso   1.00
C1174  C     0.61167   0.86166   0.75000   0.00000  Uiso   1.00
C1175  C     0.88833   0.63834   0.25000   0.00000  Uiso   1.00
C1176  C     0.86167   0.88833   0.75001   0.00000  Uiso   1.00
C1177  C     0.63833   0.61167   0.25000   0.00000  Uiso   1.00
C1178  C     0.88834   0.63834   0.75000   0.00000  Uiso   1.00
C1179  C     0.50001   0.75006   0.64403   0.00000  Uiso   1.00
C1180  C     0.61167   0.86166   0.25000   0.00000  Uiso   1.00
C1181  C     0.52481   0.77975   0.41868   0.00000  Uiso   1.00
C1182  C     0.97318   0.72214   0.58111   0.00000  Uiso   1.00
C1183  C     0.71955   0.97594   0.41876   0.00000  Uiso   1.00
C1184  C     0.78057   0.52360   0.58125   0.00000  Uiso   1.00
C1185  C     0.97494   0.72046   0.41875   0.00000  Uiso   1.00
C1186  C     0.52696   0.77806   0.58110   0.00000  Uiso   1.00
C1187  C     0.78086   0.52337   0.41876   0.00000  Uiso   1.00
C1188  C     0.71882   0.97683   0.58130   0.00000  Uiso   1.00
C1189  C     0.77365   0.53066   0.91869   0.00000  Uiso   1.00
C1190  C     0.50000   0.75000   0.85596   0.00000  Uiso   1.00
C1191  C     0.72419   0.97104   0.08115   0.00000  Uiso   1.00
C1192  C     0.97108   0.72415   0.91887   0.00000  Uiso   1.00
C1193  C     0.53064   0.77369   0.08131   0.00000  Uiso   1.00
C1194  C     0.72635   0.96933   0.91869   0.00000  Uiso   1.00
C1195  C     0.77581   0.52895   0.08113   0.00000  Uiso   1.00
C1196  C     0.52893   0.77584   0.91886   0.00000  Uiso   1.00
C1197  C     0.96934   0.72633   0.08132   0.00000  Uiso   1.00
C1198  C     0.99995   0.75003   0.39834   0.00000  Uiso   1.00
C1199  C     0.50004   0.75011   0.60152   0.00000  Uiso   1.00
C1200  C     0.75002   0.99989   0.39841   0.00000  Uiso   1.00
C1201  C     0.50000   0.75000   0.14409   0.00000  Uiso   1.00
C1202  C     0.74986   0.50004   0.60163   0.00000  Uiso   1.00
C1203  C     0.75000   0.50000   0.89833   0.00000  Uiso   1.00
C1204  C     0.75000   0.99999   0.10153   0.00000  Uiso   1.00
C1205  C     0.50000   0.74999   0.89847   0.00000  Uiso   1.00
C1206  C     0.99999   0.75001   0.10167   0.00000  Uiso   1.00
C1207  C     0.96912   0.72681   0.45904   0.00000  Uiso   1.00
C1208  C     0.53160   0.77231   0.54062   0.00000  Uiso   1.00
C1209  C     0.77517   0.52932   0.45918   0.00000  Uiso   1.00
C1210  C     0.72451   0.97075   0.54090   0.00000  Uiso   1.00
C1211  C     0.53068   0.77351   0.45897   0.00000  Uiso   1.00
C1212  C     0.75000   0.50000   0.85591   0.00000  Uiso   1.00
C1213  C     0.96843   0.72798   0.54067   0.00000  Uiso   1.00
C1214  C     0.72489   0.97064   0.45919   0.00000  Uiso   1.00
C1215  C     0.77513   0.52907   0.54086   0.00000  Uiso   1.00
C1216  C     0.72024   0.97534   0.95900   0.00000  Uiso   1.00
C1217  C     0.78068   0.52341   0.04065   0.00000  Uiso   1.00
C1218  C     0.52339   0.78070   0.95934   0.00000  Uiso   1.00
C1219  C     0.97537   0.72023   0.04102   0.00000  Uiso   1.00
C1220  C     0.77975   0.52464   0.95899   0.00000  Uiso   1.00
C1221  C     0.71932   0.97656   0.04066   0.00000  Uiso   1.00
C1222  C     0.97661   0.71929   0.95936   0.00000  Uiso   1.00
C1223  C     0.75000   0.50000   0.14404   0.00000  Uiso   1.00
C1224  C     0.52461   0.77978   0.04100   0.00000  Uiso   1.00
C1225  C     0.99994   0.75015   0.47943   0.00000  Uiso   1.00
C1226  C     0.99999   0.75015   0.52025   0.00000  Uiso   1.00
C1227  C     0.74982   0.50010   0.47960   0.00000  Uiso   1.00
C1228  C     0.75000   0.99982   0.52044   0.00000  Uiso   1.00
C1229  C     0.75000   0.99999   0.97942   0.00000  Uiso   1.00
C1230  C     0.75000   0.99999   0.02026   0.00000  Uiso   1.00
C1231  C     0.50000   0.75000   0.97975   0.00000  Uiso   1.00
C1232  C     0.99999   0.75000   0.02058   0.00000  Uiso   1.00
C1233  C     0.93344   0.71166   0.47932   0.00000  Uiso   1.00
C1234  C     0.66997   0.58002   0.25000   0.00000  Uiso   1.00
C1235  C     0.56757   0.78620   0.52019   0.00000  Uiso   1.00
C1236  C     0.79326   0.56348   0.47965   0.00000  Uiso   1.00
C1237  C     0.70641   0.93655   0.52050   0.00000  Uiso   1.00
C1238  C     0.56634   0.78883   0.47917   0.00000  Uiso   1.00
C1239  C     0.93237   0.71417   0.52034   0.00000  Uiso   1.00
C1240  C     0.70824   0.93573   0.47942   0.00000  Uiso   1.00
C1241  C     0.79186   0.56399   0.52074   0.00000  Uiso   1.00
C1242  C     0.68525   0.95860   0.97923   0.00000  Uiso   1.00
C1243  C     0.81607   0.53876   0.02023   0.00000  Uiso   1.00
C1244  C     0.53869   0.81610   0.97975   0.00000  Uiso   1.00
H1245  H     0.53736   0.90680   0.38729   0.00000  Uiso   1.00
H1246  H     0.99088   0.59429   0.64842   0.00000  Uiso   1.00
H1247  H     0.65368   0.79840   0.88373   0.00000  Uiso   1.00
H1248  H     0.65600   0.75388   0.85135   0.00000  Uiso   1.00
H1249  H     0.60744   0.73950   0.90645   0.00000  Uiso   1.00
H1250  H     0.58053   0.74003   0.86065   0.00000  Uiso   1.00
H1251  H     0.55761   0.81630   0.87492   0.00000  Uiso   1.00
H1252  H     0.58742   0.81294   0.91841   0.00000  Uiso   1.00
H1253  H     0.84169   0.71901   0.11224   0.00000  Uiso   1.00
H1254  H     0.86737   0.71211   0.15879   0.00000  Uiso   1.00
H1255  H     0.84395   0.76204   0.14625   0.00000  Uiso   1.00
H1256  H     0.92042   0.76692   0.13957   0.00000  Uiso   1.00
H1257  H     0.50716   0.64262   0.59366   0.00000  Uiso   1.00
H1258  H     0.89613   0.77127   0.09268   0.00000  Uiso   1.00
H1259  H     0.90754   0.69519   0.08159   0.00000  Uiso   1.00
H1260  H     0.93653   0.68973   0.12559   0.00000  Uiso   1.00
H1261  H     0.88397   0.67644   0.47378   0.00000  Uiso   1.00
H1262  H     0.62892   0.78595   0.52345   0.00000  Uiso   1.00
H1263  H     0.83208   0.61012   0.47385   0.00000  Uiso   1.00
H1264  H     0.66748   0.88994   0.52615   0.00000  Uiso   1.00
H1265  H     0.61559   0.82438   0.47359   0.00000  Uiso   1.00
H1266  H     0.87105   0.71452   0.52391   0.00000  Uiso   1.00
H1267  H     0.70355   0.87463   0.47536   0.00000  Uiso   1.00
H1268  H     0.50702   0.66940   0.63953   0.00000  Uiso   1.00
H1269  H     0.79707   0.62500   0.52531   0.00000  Uiso   1.00
H1270  H     0.63744   0.92113   0.97371   0.00000  Uiso   1.00
H1271  H     0.87738   0.54094   0.02352   0.00000  Uiso   1.00
H1272  H     0.54077   0.87741   0.97645   0.00000  Uiso   1.00
H1273  H     0.92125   0.63738   0.02634   0.00000  Uiso   1.00
H1274  H     0.86256   0.57885   0.97367   0.00000  Uiso   1.00
H1275  H     0.62261   0.95906   0.02354   0.00000  Uiso   1.00
H1276  H     0.95922   0.62259   0.97652   0.00000  Uiso   1.00
H1277  H     0.57873   0.86263   0.02628   0.00000  Uiso   1.00
H1278  H     0.93149   0.69454   0.62469   0.00000  Uiso   1.00
H1279  H     0.93443   0.66479   0.58117   0.00000  Uiso   1.00
H1280  H     0.62088   0.95817   0.33866   0.00000  Uiso   1.00
H1281  H     0.59332   0.96158   0.38460   0.00000  Uiso   1.00
H1282  H     0.59382   0.50596   0.35199   0.00000  Uiso   1.00
H1283  H     0.64357   0.51694   0.40700   0.00000  Uiso   1.00
H1284  H     0.66991   0.51504   0.36093   0.00000  Uiso   1.00
H1285  H     0.54290   0.88075   0.34077   0.00000  Uiso   1.00
H1286  H     0.68869   0.93778   0.37442   0.00000  Uiso   1.00
H1287  H     0.65922   0.94199   0.41813   0.00000  Uiso   1.00
H1288  H     0.90836   0.53177   0.61064   0.00000  Uiso   1.00
H1289  H     0.88338   0.54039   0.65730   0.00000  Uiso   1.00
H1290  H     0.90651   0.98999   0.64596   0.00000  Uiso   1.00
H1291  H     0.83015   0.98459   0.64014   0.00000  Uiso   1.00
H1292  H     0.85365   0.97951   0.59294   0.00000  Uiso   1.00
H1293  H     0.84159   0.55612   0.58146   0.00000  Uiso   1.00
H1294  H     0.81264   0.56091   0.62548   0.00000  Uiso   1.00
H1295  H     0.95948   0.59403   0.38568   0.00000  Uiso   1.00
H1296  H     0.99407   0.90631   0.35346   0.00000  Uiso   1.00
H1297  H     0.95602   0.62103   0.33946   0.00000  Uiso   1.00
H1298  H     0.50369   0.59378   0.35285   0.00000  Uiso   1.00
H1299  H     0.51328   0.66995   0.36077   0.00000  Uiso   1.00
H1300  H     0.51558   0.64420   0.40710   0.00000  Uiso   1.00
H1301  H     0.94097   0.66015   0.41867   0.00000  Uiso   1.00
H1302  H     0.93633   0.68944   0.37482   0.00000  Uiso   1.00
H1303  H     0.55489   0.87361   0.66212   0.00000  Uiso   1.00
H1304  H     0.55465   0.90169   0.61636   0.00000  Uiso   1.00
H1305  H     0.51036   0.90580   0.64890   0.00000  Uiso   1.00
H1306  H     0.99363   0.85791   0.59395   0.00000  Uiso   1.00
H1307  H     0.98624   0.82999   0.36025   0.00000  Uiso   1.00
H1308  H     0.99355   0.83085   0.63968   0.00000  Uiso   1.00
H1309  H     0.56891   0.80524   0.62468   0.00000  Uiso   1.00
H1310  H     0.56607   0.83520   0.58128   0.00000  Uiso   1.00
H1311  H     0.88072   0.53567   0.33889   0.00000  Uiso   1.00
H1312  H     0.90791   0.53161   0.38497   0.00000  Uiso   1.00
H1313  H     0.90552   0.98688   0.35285   0.00000  Uiso   1.00
H1314  H     0.85503   0.97880   0.40773   0.00000  Uiso   1.00
H1315  H     0.82912   0.98132   0.36151   0.00000  Uiso   1.00
H1316  H     0.81364   0.55949   0.37412   0.00000  Uiso   1.00
H1317  H     0.84293   0.55429   0.41788   0.00000  Uiso   1.00
H1318  H     0.98266   0.85470   0.40700   0.00000  Uiso   1.00
H1319  H     0.59111   0.97177   0.61283   0.00000  Uiso   1.00
H1320  H     0.61704   0.96481   0.65926   0.00000  Uiso   1.00
H1321  H     0.59433   0.51501   0.64656   0.00000  Uiso   1.00
H1322  H     0.67077   0.51869   0.63934   0.00000  Uiso   1.00
H1323  H     0.64625   0.52296   0.59256   0.00000  Uiso   1.00
H1324  H     0.65643   0.94669   0.58201   0.00000  Uiso   1.00
H1325  H     0.68556   0.94108   0.62588   0.00000  Uiso   1.00
H1326  H     0.78079   0.65831   0.88787   0.00000  Uiso   1.00
H1327  H     0.78779   0.63271   0.84131   0.00000  Uiso   1.00
H1328  H     0.73780   0.65602   0.85380   0.00000  Uiso   1.00
H1329  H     0.55804   0.84043   0.41861   0.00000  Uiso   1.00
H1330  H     0.73303   0.57956   0.86041   0.00000  Uiso   1.00
H1331  H     0.72860   0.60377   0.90732   0.00000  Uiso   1.00
H1332  H     0.80474   0.59248   0.91841   0.00000  Uiso   1.00
H1333  H     0.81022   0.56351   0.87441   0.00000  Uiso   1.00
H1334  H     0.70057   0.87436   0.16211   0.00000  Uiso   1.00
H1335  H     0.70175   0.84631   0.11635   0.00000  Uiso   1.00
H1336  H     0.74633   0.84405   0.14869   0.00000  Uiso   1.00
H1337  H     0.76060   0.89256   0.09354   0.00000  Uiso   1.00
H1338  H     0.76012   0.91950   0.13932   0.00000  Uiso   1.00
H1339  H     0.68377   0.94232   0.12510   0.00000  Uiso   1.00
H1340  H     0.56293   0.81129   0.37468   0.00000  Uiso   1.00
H1341  H     0.68714   0.91252   0.08162   0.00000  Uiso   1.00
H1342  H     0.87439   0.70037   0.83794   0.00000  Uiso   1.00
H1343  H     0.84635   0.70153   0.88371   0.00000  Uiso   1.00
H1344  H     0.84401   0.74608   0.85136   0.00000  Uiso   1.00
H1345  H     0.89253   0.76044   0.90647   0.00000  Uiso   1.00
H1346  H     0.91947   0.75997   0.86069   0.00000  Uiso   1.00
H1347  H     0.94241   0.68368   0.87495   0.00000  Uiso   1.00
H1348  H     0.91259   0.68703   0.91843   0.00000  Uiso   1.00
H1349  H     0.65832   0.78093   0.11205   0.00000  Uiso   1.00
H1350  H     0.63274   0.78794   0.15863   0.00000  Uiso   1.00
H1351  H     0.94601   0.62598   0.66173   0.00000  Uiso   1.00
H1352  H     0.65608   0.73797   0.14616   0.00000  Uiso   1.00
H1353  H     0.57960   0.73315   0.13960   0.00000  Uiso   1.00
H1354  H     0.60380   0.72870   0.09268   0.00000  Uiso   1.00
H1355  H     0.59245   0.80483   0.08155   0.00000  Uiso   1.00
H1356  H     0.56347   0.81029   0.12555   0.00000  Uiso   1.00
H1357  H     0.71918   0.84169   0.88787   0.00000  Uiso   1.00
H1358  H     0.71221   0.86731   0.84131   0.00000  Uiso   1.00
H1359  H     0.76219   0.84398   0.85381   0.00000  Uiso   1.00
H1360  H     0.76697   0.92044   0.86043   0.00000  Uiso   1.00
H1361  H     0.77138   0.89620   0.90734   0.00000  Uiso   1.00
H1362  H     0.94663   0.59821   0.61583   0.00000  Uiso   1.00
H1363  H     0.69525   0.90751   0.91843   0.00000  Uiso   1.00
H1364  H     0.68978   0.93649   0.87443   0.00000  Uiso   1.00
H1365  H     0.79976   0.62624   0.16146   0.00000  Uiso   1.00
H1366  H     0.79772   0.65394   0.11555   0.00000  Uiso   1.00
H1367  H     0.75357   0.65608   0.14839   0.00000  Uiso   1.00
H1368  H     0.73906   0.60707   0.09363   0.00000  Uiso   1.00
H1369  H     0.74016   0.58053   0.13961   0.00000  Uiso   1.00
H1370  H     0.81625   0.55772   0.12503   0.00000  Uiso   1.00
H1371  H     0.81278   0.58750   0.08153   0.00000  Uiso   1.00
H1372  H     0.62566   0.79963   0.83796   0.00000  Uiso   1.00
O1373  O     0.75000   0.50000   0.25000   0.00000  Uiso   1.00
O1374  O     0.75000   0.96539   0.66251   0.00000  Uiso   1.00
O1375  O     0.96538   0.75000   0.33749   0.00000  Uiso   1.00
O1376  O     0.53461   0.75000   0.66251   0.00000  Uiso   1.00
O1377  O     0.50000   0.71538   0.83749   0.00000  Uiso   1.00
O1378  O     0.50000   0.78461   0.16251   0.00000  Uiso   1.00
O1379  O     0.78461   0.50000   0.83749   0.00000  Uiso   1.00
O1380  O     0.71538   0.50000   0.16251   0.00000  Uiso   1.00
O1381  O     0.50000   0.78461   0.83749   0.00000  Uiso   1.00
O1382  O     0.50000   0.71538   0.16251   0.00000  Uiso   1.00
O1383  O     0.71538   0.50000   0.83749   0.00000  Uiso   1.00
O1384  O     0.75000   0.50000   0.75000   0.00000  Uiso   1.00
O1385  O     0.78461   0.50000   0.16251   0.00000  Uiso   1.00
O1386  O     0.70126   0.58332   0.27298   0.00000  Uiso   1.00
O1387  O     0.79873   0.91668   0.72702   0.00000  Uiso   1.00
O1388  O     0.91668   0.70127   0.27298   0.00000  Uiso   1.00
O1389  O     0.58332   0.79874   0.72702   0.00000  Uiso   1.00
O1390  O     0.79873   0.91668   0.27298   0.00000  Uiso   1.00
O1391  O     0.70126   0.58332   0.72702   0.00000  Uiso   1.00
O1392  O     0.58332   0.79874   0.27298   0.00000  Uiso   1.00
O1393  O     0.91668   0.70127   0.72702   0.00000  Uiso   1.00
O1394  O     0.70126   0.91668   0.72702   0.00000  Uiso   1.00
O1395  O     0.50000   0.75000   0.25000   0.00000  Uiso   1.00
O1396  O     0.79873   0.58332   0.27298   0.00000  Uiso   1.00
O1397  O     0.91668   0.79874   0.72702   0.00000  Uiso   1.00
O1398  O     0.58332   0.70127   0.27298   0.00000  Uiso   1.00
O1399  O     0.79873   0.58332   0.72702   0.00000  Uiso   1.00
O1400  O     0.70126   0.91668   0.27298   0.00000  Uiso   1.00
O1401  O     0.58332   0.70127   0.72702   0.00000  Uiso   1.00
O1402  O     0.91668   0.79874   0.27298   0.00000  Uiso   1.00
O1403  O     0.95126   0.83332   0.77298   0.00000  Uiso   1.00
O1404  O     0.54873   0.66668   0.22702   0.00000  Uiso   1.00
O1405  O     0.66668   0.95127   0.77298   0.00000  Uiso   1.00
O1406  O     0.50000   0.75000   0.75000   0.00000  Uiso   1.00
O1407  O     0.83332   0.54874   0.22702   0.00000  Uiso   1.00
O1408  O     0.54873   0.66668   0.77298   0.00000  Uiso   1.00
O1409  O     0.95126   0.83332   0.22702   0.00000  Uiso   1.00
O1410  O     0.83332   0.54874   0.77298   0.00000  Uiso   1.00
O1411  O     0.66668   0.95127   0.22702   0.00000  Uiso   1.00
O1412  O     0.95126   0.66668   0.22702   0.00000  Uiso   1.00
O1413  O     0.54873   0.83332   0.77298   0.00000  Uiso   1.00
O1414  O     0.66668   0.54874   0.22702   0.00000  Uiso   1.00
O1415  O     0.83332   0.95127   0.77298   0.00000  Uiso   1.00
O1416  O     0.54873   0.83332   0.22702   0.00000  Uiso   1.00
O1417  O     0.75000   0.96539   0.33749   0.00000  Uiso   1.00
O1418  O     0.95126   0.66668   0.77298   0.00000  Uiso   1.00
O1419  O     0.83332   0.95127   0.22702   0.00000  Uiso   1.00
O1420  O     0.66668   0.54874   0.77298   0.00000  Uiso   1.00
O1421  O     0.89848   0.69870   0.45868   0.00000  Uiso   1.00
O1422  O     0.60465   0.79218   0.54053   0.00000  Uiso   1.00
O1423  O     0.80815   0.59783   0.45926   0.00000  Uiso   1.00
O1424  O     0.69112   0.90245   0.54099   0.00000  Uiso   1.00
O1425  O     0.60112   0.80213   0.45845   0.00000  Uiso   1.00
O1426  O     0.89539   0.70811   0.54083   0.00000  Uiso   1.00
O1427  O     0.69883   0.89960   0.45874   0.00000  Uiso   1.00
O1428  O     0.75000   0.53462   0.66251   0.00000  Uiso   1.00
O1429  O     0.80186   0.59982   0.54163   0.00000  Uiso   1.00
O1430  O     0.65100   0.94395   0.95855   0.00000  Uiso   1.00
O1431  O     0.85288   0.54618   0.04059   0.00000  Uiso   1.00
O1432  O     0.54605   0.85292   0.95938   0.00000  Uiso   1.00
O1433  O     0.94404   0.65097   0.04149   0.00000  Uiso   1.00
O1434  O     0.84900   0.55603   0.95852   0.00000  Uiso   1.00
O1435  O     0.64711   0.95381   0.04061   0.00000  Uiso   1.00
O1436  O     0.95395   0.64707   0.95943   0.00000  Uiso   1.00
O1437  O     0.55594   0.84904   0.04144   0.00000  Uiso   1.00
O1438  O     0.53461   0.75000   0.33749   0.00000  Uiso   1.00
O1439  O     0.96538   0.75000   0.66251   0.00000  Uiso   1.00
O1440  O     0.75000   0.53462   0.33749   0.00000  Uiso   1.00
Zn1441 Zn    0.70052   0.50000   0.21730   0.00000  Uiso   1.00
Zn1442 Zn    0.54947   0.75000   0.28270   0.00000  Uiso   1.00
Zn1443 Zn    0.75000   0.95053   0.71730   0.00000  Uiso   1.00
Zn1444 Zn    0.75000   0.54948   0.28270   0.00000  Uiso   1.00
Zn1445 Zn    0.54947   0.75000   0.71730   0.00000  Uiso   1.00
Zn1446 Zn    0.95052   0.75000   0.28270   0.00000  Uiso   1.00
Zn1447 Zn    0.75000   0.54948   0.71730   0.00000  Uiso   1.00
Zn1448 Zn    0.75000   0.95053   0.28270   0.00000  Uiso   1.00
Zn1449 Zn    0.79947   0.50000   0.78270   0.00000  Uiso   1.00
Zn1450 Zn    0.50000   0.70052   0.21730   0.00000  Uiso   1.00
Zn1451 Zn    0.50000   0.79947   0.78270   0.00000  Uiso   1.00
Zn1452 Zn    0.79947   0.50000   0.21730   0.00000  Uiso   1.00
Zn1453 Zn    0.70052   0.50000   0.78270   0.00000  Uiso   1.00
Zn1454 Zn    0.50000   0.79947   0.21730   0.00000  Uiso   1.00
Zn1455 Zn    0.50000   0.70052   0.78270   0.00000  Uiso   1.00
Zn1456 Zn    0.95052   0.75000   0.71730   0.00000  Uiso   1.00
loop_
_geom_bond_atom_site_label_1
_geom_bond_atom_site_label_2
_geom_bond_distance
_geom_bond_site_symmetry_2
_ccdc_geom_bond_type
C1     O325    1.270   .     A
C1     C108    1.464   .     S
C1     O1076   1.270   .     S
C2     O295    1.275   .     A
C2     O323    1.275   .     A
C2     C84     1.422   .     S
C3     O341    1.381   .     S
C3     C127    1.415   .     A
C3     C6      1.417   1_554 S
C4     C128    1.415   .     A
C4     O342    1.381   .     S
C4     C151    1.417   1_556 S
C5     O343    1.384   .     S
C5     C129    1.412   .     A
C5     C150    1.417   1_554 S
C6     C130    1.412   .     A
C6     O344    1.384   .     S
C6     C3      1.417   1_556 S
C7     C132    1.415   .     A
C7     O345    1.381   .     S
C7     C152    1.417   1_554 S
C8     H248    1.110   .     S
C8     H237    1.105   .     S
C8     C9      1.540   .     S
C8     C89     1.533   .     S
C9     C10     1.527   .     S
C9     H579    1.107   1_455 S
C9     H590    1.112   1_455 S
C10    H193    1.111   .     S
C10    H153    1.110   .     S
C10    H568    1.110   1_455 S
C11    H186    1.109   .     S
C11    C90     1.534   .     S
C11    H187    1.106   .     S
C11    C12     1.539   .     S
C12    C14     1.527   .     S
C12    H529    1.112   .     S
C12    H540    1.107   .     S
C13    O320    1.275   .     A
C13    O296    1.275   .     A
C13    C83     1.421   .     S
C14    H259    1.111   .     S
C14    H154    1.110   .     S
C14    H270    1.110   .     S
C15    C91     1.533   .     S
C15    H194    1.110   .     S
C15    H195    1.106   .     S
C15    C16     1.539   .     S
C16    C17     1.527   .     S
C16    H919    1.112   .     S
C16    H920    1.108   .     S
C17    H188    1.111   .     S
C17    H189    1.110   .     S
C17    H918    1.110   .     S
C18    H201    1.107   .     S
C18    C92     1.532   .     S
C18    C19     1.539   .     S
C18    H202    1.110   .     S
C19    C20     1.526   .     S
C19    H927    1.108   1_545 S
C19    H928    1.112   1_545 S
C20    H197    1.111   .     S
C20    H196    1.110   .     S
C20    H926    1.110   1_545 S
C21    C22     1.539   .     S
C21    C93     1.533   .     S
C21    H210    1.110   .     S
C21    H209    1.105   .     S
C22    C23     1.527   .     S
C22    H571    1.107   .     S
C22    H572    1.112   .     S
C23    H205    1.111   .     S
C23    H203    1.111   .     S
C23    H570    1.110   .     S
C24    O297    1.275   .     A
C24    O321    1.275   .     A
C24    C82     1.421   .     S
C25    H217    1.109   .     S
C25    H218    1.106   .     S
C25    C26     1.539   .     S
C25    C94     1.534   .     S
C26    C27     1.527   .     S
C26    H578    1.112   1_455 S
C26    H580    1.108   1_455 S
C27    H212    1.110   .     S
C27    H213    1.110   .     S
C27    H211    1.111   .     S
C28    H224    1.110   .     S
C28    H225    1.104   .     S
C28    C95     1.534   .     S
C28    C757    1.540   1_545 S
C29    H222    1.112   .     S
C29    H223    1.107   .     S
C29    C756    1.540   .     S
C29    C758    1.527   .     S
C30    H220    1.110   .     S
C30    H219    1.111   .     S
C30    C757    1.527   1_545 S
C30    H949    1.110   1_545 S
C31    C96     1.533   .     S
C31    H233    1.110   .     S
C31    H232    1.104   .     S
C31    C760    1.540   .     S
C32    H230    1.107   .     S
C32    H231    1.112   .     S
C32    C759    1.540   1_545 S
C32    C761    1.527   1_545 S
C33    H227    1.110   .     S
C33    H228    1.111   .     S
C33    C760    1.527   .     S
C33    H957    1.110   .     S
C34    H240    1.105   .     S
C34    C97     1.533   .     S
C34    H241    1.110   .     S
C34    C36     1.540   .     S
C35    O298    1.275   .     A
C35    O327    1.275   .     A
C35    C81     1.422   .     S
C36    C37     1.527   .     S
C36    H239    1.112   .     S
C36    H238    1.107   .     S
C37    H235    1.111   .     S
C37    H234    1.110   .     S
C37    H236    1.110   .     S
C38    H249    1.106   .     S
C38    C39     1.539   .     S
C38    C99     1.534   .     S
C38    H247    1.109   .     S
C39    C40     1.527   .     S
C39    H246    1.108   .     S
C39    H245    1.112   .     S
C40    H244    1.110   .     S
C40    H243    1.110   .     S
C40    H242    1.111   .     S
C41    H256    1.106   .     S
C41    C100    1.534   .     S
C41    H255    1.109   .     S
C41    C42     1.539   .     S
C42    H254    1.108   .     S
C42    H253    1.112   .     S
C42    C43     1.527   .     S
C43    H251    1.110   .     S
C43    H252    1.110   .     S
C43    H250    1.111   .     S
C44    C101    1.533   .     S
C44    H263    1.105   .     S
C44    C45     1.540   .     S
C44    H264    1.110   .     S
C45    C47     1.527   .     S
C45    H261    1.107   .     S
C45    H262    1.112   .     S
C46    C80     1.422   .     S
C46    O299    1.275   .     A
C46    O328    1.275   .     A
C47    H260    1.110   .     S
C47    H257    1.110   .     S
C47    H258    1.111   .     S
C48    H271    1.105   .     S
C48    H272    1.110   .     S
C48    C102    1.533   .     S
C48    C49     1.540   .     S
C49    H268    1.107   .     S
C49    C50     1.527   .     S
C49    H269    1.112   .     S
C50    H267    1.110   .     S
C50    H265    1.110   .     S
C50    H266    1.111   .     S
C51    C52     1.539   .     S
C51    H279    1.106   .     S
C51    C103    1.534   .     S
C51    H278    1.109   .     S
C52    H277    1.108   .     S
C52    C53     1.527   .     S
C52    H276    1.112   .     S
C53    H274    1.110   .     S
C53    H273    1.111   .     S
C53    H275    1.110   .     S
C54    H159    1.109   .     S
C54    C55     1.539   .     S
C54    C104    1.534   .     S
C54    H160    1.106   .     S
C55    H158    1.108   .     S
C55    C56     1.527   .     S
C55    H157    1.112   .     S
C56    H280    1.111   .     S
C56    H156    1.110   .     S
C56    H155    1.110   .     S
C57    O300    1.275   .     A
C57    O324    1.275   .     A
C57    C88     1.421   .     S
C58    H168    1.110   .     S
C58    C105    1.533   .     S
C58    C59     1.540   .     S
C58    H167    1.105   .     S
C59    H164    1.107   .     S
C59    C60     1.527   .     S
C59    H166    1.112   .     S
C60    H163    1.110   .     S
C60    H162    1.111   .     S
C60    H161    1.110   .     S
C61    O301    1.275   .     A
C61    C86     1.421   .     S
C61    O326    1.275   .     A
C62    C77     1.421   .     S
C62    O313    1.275   .     A
C62    O302    1.275   .     A
C63    O315    1.275   .     A
C63    O304    1.275   .     A
C63    C75     1.421   .     S
C64    O311    1.275   .     A
C64    O305    1.275   .     A
C64    C74     1.422   .     S
C65    C110    1.463   .     S
C65    O336    1.270   .     A
C65    O1010   1.270   1_545 S
C66    O306    1.275   .     A
C66    O312    1.275   .     A
C66    C73     1.422   .     S
C67    O318    1.275   .     A
C67    O307    1.275   .     A
C67    C72     1.421   .     S
C68    O308    1.275   .     A
C68    C71     1.421   .     S
C68    O319    1.275   .     A
C69    O316    1.275   .     A
C69    C79     1.422   .     S
C69    O309    1.275   .     A
C70    O310    1.275   .     A
C70    C78     1.422   .     S
C70    O317    1.275   .     A
C71    C88     1.197   .     T
C72    C86     1.197   .     T
C73    C85     1.198   .     T
C74    C84     1.198   .     T
C75    C83     1.197   .     T
C76    C106    1.462   .     S
C76    O283    1.269   .     A
C76    O710    1.270   .     S
C77    C82     1.197   .     T
C78    C81     1.198   .     T
C79    C80     1.198   .     T
C85    C142    1.422   .     S
C87    C107    1.465   .     S
C87    O284    1.270   .     A
C87    O711    1.271   1_455 S
C89    C119    1.415   .     A
C89    C470    1.416   1_455 S
C90    C121    1.414   .     A
C90    C471    1.418   .     S
C91    C122    1.414   .     A
C91    C108    1.416   .     A
C92    C110    1.415   .     A
C92    C123    1.413   .     A
C93    C106    1.416   .     A
C93    C115    1.415   .     A
C94    C107    1.418   .     A
C94    C116    1.415   .     A
C95    C117    1.417   .     A
C95    C836    1.416   1_545 S
C96    C118    1.417   .     A
C96    C838    1.416   .     S
C97    C128    1.415   .     A
C97    C111    1.416   .     S
C98    C113    1.465   .     S
C98    O285    1.271   .     S
C98    O289    1.271   .     S
C99    C129    1.415   .     A
C99    C112    1.418   .     A
C100   C130    1.415   .     A
C100   C477    1.418   .     S
C101   C132    1.415   .     A
C101   C478    1.416   1_455 S
C102   C839    1.416   .     A
C102   C124    1.415   .     A
C103   C125    1.415   .     A
C103   C840    1.418   1_545 S
C104   C113    1.418   .     A
C104   C126    1.415   .     A
C105   C127    1.415   .     A
C105   C114    1.416   .     A
C106   C453    1.416   .     S
C107   C454    1.418   1_455 S
C108   C823    1.416   .     S
C109   C478    1.462   1_455 S
C109   O286    1.270   .     S
C109   O290    1.270   .     S
C110   C824    1.416   1_545 S
C111   C830    1.416   1_545 A
C111   C120    1.462   .     S
C112   C859    1.465   .     S
C112   C831    1.418   .     S
C113   C464    1.418   1_455 S
C114   C473    1.462   .     S
C114   C465    1.416   .     S
C115   C141    1.415   .     A
C115   C133    1.414   .     A
C116   C143    1.412   .     A
C116   C498    1.412   1_455 S
C117   C135    1.415   .     A
C117   C144    1.416   .     A
C118   C136    1.415   .     A
C118   C145    1.415   .     A
C119   C146    1.415   .     A
C119   C497    1.414   1_455 S
C120   O287    1.270   .     S
C120   O291    1.270   .     S
C121   C147    1.412   .     A
C121   C134    1.412   .     A
C122   C148    1.412   .     A
C122   C863    1.413   .     S
C123   C149    1.411   .     A
C123   C864    1.412   1_545 S
C124   C137    1.414   .     A
C124   C150    1.415   .     A
C125   C151    1.412   .     A
C125   C866    1.413   1_545 S
C126   C152    1.412   .     A
C126   C139    1.413   .     S
C127   C140    1.414   .     A
C128   C865    1.414   1_545 S
C129   C138    1.413   .     A
C130   C503    1.413   .     A
C131   C840    1.465   1_545 S
C131   O288    1.270   .     S
C131   O293    1.270   .     S
C132   C504    1.414   1_455 S
C133   C134    1.407   .     A
C133   C483    1.414   .     S
C134   C480    1.412   .     S
C135   C850    1.413   1_545 S
C135   C864    1.408   1_545 S
C136   C851    1.412   .     S
C136   C863    1.408   .     S
C137   C856    1.414   .     S
C137   C138    1.407   1_556 S
C138   C853    1.413   .     S
C138   C137    1.407   1_554 S
C139   C494    1.413   1_455 A
C139   C504    1.407   1_456 S
C140   C496    1.414   .     S
C140   C503    1.407   1_554 S
C141   C147    1.417   .     A
C141   O329    1.381   .     S
C142   O294    1.275   .     A
C142   O322    1.275   .     A
C143   C146    1.417   .     A
C143   O330    1.384   .     S
C144   O331    1.381   .     S
C144   C149    1.417   .     A
C145   O332    1.381   .     S
C145   C148    1.417   .     A
C146   O333    1.381   .     S
C147   O334    1.384   .     S
C148   O335    1.384   .     S
C149   O337    1.384   .     S
C150   O338    1.381   .     S
C150   C5      1.417   1_556 S
C151   O339    1.384   .     S
C151   C4      1.417   1_554 S
C152   O340    1.384   .     S
C152   C7      1.417   1_556 S
H165   C376    1.112   1_455 S
H169   O329    0.991   .     S
H170   O330    0.990   .     S
H171   O331    0.991   .     S
H172   O332    0.991   .     S
H173   O333    0.991   .     S
H174   O334    0.990   .     S
H175   O335    0.990   .     S
H176   C376    1.107   1_455 S
H177   O337    0.990   .     S
H178   O338    0.991   .     S
H179   O339    0.990   .     S
H180   O340    0.990   .     S
H181   O341    0.991   .     S
H182   O342    0.991   .     S
H183   O343    0.990   .     S
H184   O344    0.990   .     S
H185   O345    0.991   .     S
H190   C745    1.110   1_545 S
H191   C744    1.112   1_545 S
H192   C744    1.108   1_545 S
H198   C748    1.110   .     S
H199   C747    1.108   .     S
H200   C747    1.112   .     S
H204   C374    1.110   .     S
H206   C387    1.110   1_455 S
H207   C386    1.107   1_455 S
H208   C386    1.112   1_455 S
H214   C390    1.112   .     S
H215   C373    1.107   .     S
H216   C390    1.108   .     S
H221   C758    1.110   .     S
H226   C373    1.112   .     S
H229   C761    1.110   1_545 S
O281   Zn352   1.934   .     S
O281   Zn349   1.934   .     S
O281   Zn1084  1.934   1_545 S
O281   Zn360   1.934   .     S
O282   Zn351   1.946   .     S
O282   C793    1.270   .     S
O283   Zn354   1.946   .     S
O284   Zn353   1.946   .     S
O285   Zn363   1.946   .     S
O286   Zn362   1.946   .     S
O287   Zn357   1.946   .     S
O288   Zn349   1.946   .     S
O289   Zn359   1.946   .     S
O290   Zn358   1.946   .     S
O291   Zn361   1.946   .     S
O292   Zn1079  1.934   1_545 S
O292   Zn355   1.934   .     S
O292   Zn357   1.934   .     S
O292   Zn361   1.934   .     S
O293   Zn360   1.946   .     S
O294   Zn352   1.915   .     S
O295   Zn351   1.915   .     S
O296   Zn354   1.913   .     S
O297   Zn353   1.913   .     S
O298   Zn356   1.915   .     S
O299   Zn355   1.915   .     S
O300   Zn350   1.913   .     S
O301   Zn364   1.913   .     S
O302   Zn351   1.913   .     S
O303   Zn358   1.934   .     S
O303   Zn362   1.934   .     S
O303   Zn350   1.934   .     S
O303   Zn718   1.934   1_455 S
O304   Zn352   1.913   .     S
O305   Zn364   1.915   .     S
O306   Zn350   1.915   .     S
O307   Zn355   1.913   .     S
O308   Zn356   1.913   .     S
O309   Zn353   1.915   .     S
O310   Zn354   1.915   .     S
O311   Zn723   1.915   .     S
O312   Zn358   1.915   .     S
O313   Zn1089  1.913   .     S
O314   Zn353   1.934   .     S
O314   Zn359   1.934   .     S
O314   Zn363   1.934   .     S
O314   Zn728   1.934   1_455 S
O315   Zn360   1.913   .     S
O316   Zn363   1.915   .     S
O317   Zn726   1.915   .     S
O318   Zn357   1.913   .     S
O319   Zn1077  1.913   .     S
O320   Zn722   1.913   .     S
O321   Zn359   1.913   .     S
O322   Zn349   1.915   .     S
O323   Zn1085  1.915   .     S
O324   Zn362   1.913   .     S
O325   Zn356   1.946   .     S
O326   Zn727   1.913   .     S
O327   Zn1088  1.915   .     S
O328   Zn361   1.915   .     S
O336   Zn355   1.946   .     S
O346   Zn350   1.946   .     S
O346   C440    1.270   1_455 S
O347   Zn364   1.946   .     S
O347   C451    1.271   .     S
O348   Zn352   1.946   .     S
O348   C729    1.270   1_545 S
Zn349  O1047   1.913   1_545 S
Zn351  O1020   1.934   .     S
Zn354  O667    1.934   .     S
Zn356  O1009   1.934   .     S
Zn357  O1051   1.915   1_545 S
Zn358  O684    1.913   1_455 S
Zn359  O675    1.915   1_455 S
Zn360  O1055   1.915   1_545 S
Zn361  O1041   1.913   1_545 S
Zn362  O681    1.915   1_455 S
Zn363  O690    1.913   1_455 S
Zn364  O678    1.934   .     S
C365   O689    1.270   .     A
C365   C472    1.464   .     S
C365   O1440   1.270   .     S
C366   O659    1.275   .     A
C366   O687    1.275   .     A
C366   C448    1.422   .     S
C367   O705    1.381   .     S
C367   C491    1.415   .     A
C367   C370    1.417   1_554 S
C368   C492    1.415   .     A
C368   O706    1.381   .     S
C368   C515    1.417   1_556 S
C369   O707    1.384   .     S
C369   C493    1.412   .     A
C369   C514    1.417   1_554 S
C370   C494    1.412   .     A
C370   O708    1.384   .     S
C370   C367    1.417   1_556 S
C371   C496    1.415   .     A
C371   O709    1.381   .     S
C371   C516    1.417   1_554 S
C372   H612    1.110   .     S
C372   H601    1.105   .     S
C372   C373    1.540   .     S
C372   C453    1.533   .     S
C373   C374    1.527   .     S
C374   H557    1.111   .     S
C374   H517    1.110   .     S
C375   H550    1.109   .     S
C375   C454    1.534   .     S
C375   H551    1.106   .     S
C375   C376    1.539   .     S
C376   C378    1.527   .     S
C376   H165    1.112   1_655 S
C376   H176    1.107   1_655 S
C377   O684    1.275   .     A
C377   O660    1.275   .     A
C377   C447    1.421   .     S
C378   H623    1.111   .     S
C378   H518    1.110   .     S
C378   H634    1.110   .     S
C379   C455    1.533   .     S
C379   H558    1.110   .     S
C379   H559    1.106   .     S
C379   C380    1.539   .     S
C380   C381    1.527   .     S
C380   H1283   1.112   .     S
C380   H1284   1.108   .     S
C381   H552    1.111   .     S
C381   H553    1.110   .     S
C381   H1282   1.110   .     S
C382   H565    1.107   .     S
C382   C456    1.532   .     S
C382   C383    1.539   .     S
C382   H566    1.110   .     S
C383   C384    1.526   .     S
C383   H1291   1.108   1_545 S
C383   H1292   1.112   1_545 S
C384   H561    1.111   .     S
C384   H560    1.110   .     S
C384   H1290   1.110   1_545 S
C385   C386    1.539   .     S
C385   C457    1.533   .     S
C385   H574    1.110   .     S
C385   H573    1.105   .     S
C386   C387    1.527   .     S
C386   H207    1.107   1_655 S
C386   H208    1.112   1_655 S
C387   H569    1.111   .     S
C387   H567    1.111   .     S
C387   H206    1.110   1_655 S
C388   O661    1.275   .     A
C388   O685    1.275   .     A
C388   C446    1.421   .     S
C389   H581    1.109   .     S
C389   H582    1.106   .     S
C389   C390    1.539   .     S
C389   C458    1.534   .     S
C390   C391    1.527   .     S
C391   H576    1.110   .     S
C391   H577    1.110   .     S
C391   H575    1.111   .     S
C392   H588    1.110   .     S
C392   H589    1.104   .     S
C392   C459    1.534   .     S
C392   C1121   1.540   1_545 S
C393   H586    1.112   .     S
C393   H587    1.107   .     S
C393   C1120   1.540   .     S
C393   C1122   1.527   .     S
C394   H584    1.110   .     S
C394   H583    1.111   .     S
C394   C1121   1.527   1_545 S
C394   H1313   1.110   1_545 S
C395   C460    1.533   .     S
C395   H597    1.110   .     S
C395   H596    1.104   .     S
C395   C1124   1.540   .     S
C396   H594    1.107   .     S
C396   H595    1.112   .     S
C396   C1123   1.540   1_545 S
C396   C1125   1.527   1_545 S
C397   H591    1.110   .     S
C397   H592    1.111   .     S
C397   C1124   1.527   .     S
C397   H1321   1.110   .     S
C398   H604    1.105   .     S
C398   C461    1.533   .     S
C398   H605    1.110   .     S
C398   C400    1.540   .     S
C399   O662    1.275   .     A
C399   O691    1.275   .     A
C399   C445    1.422   .     S
C400   C401    1.527   .     S
C400   H603    1.112   .     S
C400   H602    1.107   .     S
C401   H599    1.111   .     S
C401   H598    1.110   .     S
C401   H600    1.110   .     S
C402   H613    1.106   .     S
C402   C403    1.539   .     S
C402   C463    1.534   .     S
C402   H611    1.109   .     S
C403   C404    1.527   .     S
C403   H610    1.108   .     S
C403   H609    1.112   .     S
C404   H608    1.110   .     S
C404   H607    1.110   .     S
C404   H606    1.111   .     S
C405   H620    1.106   .     S
C405   C464    1.534   .     S
C405   H619    1.109   .     S
C405   C406    1.539   .     S
C406   H618    1.108   .     S
C406   H617    1.112   .     S
C406   C407    1.527   .     S
C407   H615    1.110   .     S
C407   H616    1.110   .     S
C407   H614    1.111   .     S
C408   C465    1.533   .     S
C408   H627    1.105   .     S
C408   C409    1.540   .     S
C408   H628    1.110   .     S
C409   C411    1.527   .     S
C409   H625    1.107   .     S
C409   H626    1.112   .     S
C410   C444    1.422   .     S
C410   O663    1.275   .     A
C410   O692    1.275   .     A
C411   H624    1.110   .     S
C411   H621    1.110   .     S
C411   H622    1.111   .     S
C412   H635    1.105   .     S
C412   H636    1.110   .     S
C412   C466    1.533   .     S
C412   C413    1.540   .     S
C413   H632    1.107   .     S
C413   C414    1.527   .     S
C413   H633    1.112   .     S
C414   H631    1.110   .     S
C414   H629    1.110   .     S
C414   H630    1.111   .     S
C415   C416    1.539   .     S
C415   H643    1.106   .     S
C415   C467    1.534   .     S
C415   H642    1.109   .     S
C416   H641    1.108   .     S
C416   C417    1.527   .     S
C416   H640    1.112   .     S
C417   H638    1.110   .     S
C417   H637    1.111   .     S
C417   H639    1.110   .     S
C418   H523    1.109   .     S
C418   C419    1.539   .     S
C418   C468    1.534   .     S
C418   H524    1.106   .     S
C419   H522    1.108   .     S
C419   C420    1.527   .     S
C419   H521    1.112   .     S
C420   H644    1.111   .     S
C420   H520    1.110   .     S
C420   H519    1.110   .     S
C421   O664    1.275   .     A
C421   O688    1.275   .     A
C421   C452    1.421   .     S
C422   H532    1.110   .     S
C422   C469    1.533   .     S
C422   C423    1.540   .     S
C422   H531    1.105   .     S
C423   H528    1.107   .     S
C423   C424    1.527   .     S
C423   H530    1.112   .     S
C424   H527    1.110   .     S
C424   H526    1.111   .     S
C424   H525    1.110   .     S
C425   O665    1.275   .     A
C425   C450    1.421   .     S
C425   O690    1.275   .     A
C426   C441    1.421   .     S
C426   O677    1.275   .     A
C426   O666    1.275   .     A
C427   O679    1.275   .     A
C427   O668    1.275   .     A
C427   C439    1.421   .     S
C428   O675    1.275   .     A
C428   O669    1.275   .     A
C428   C438    1.422   .     S
C429   C474    1.463   .     S
C429   O700    1.270   .     A
C429   O1374   1.270   1_545 S
C430   O670    1.275   .     A
C430   O676    1.275   .     A
C430   C437    1.422   .     S
C431   O682    1.275   .     A
C431   O671    1.275   .     A
C431   C436    1.421   .     S
C432   O672    1.275   .     A
C432   C435    1.421   .     S
C432   O683    1.275   .     A
C433   O680    1.275   .     A
C433   C443    1.422   .     S
C433   O673    1.275   .     A
C434   O674    1.275   .     A
C434   C442    1.422   .     S
C434   O681    1.275   .     A
C435   C452    1.197   .     T
C436   C450    1.197   .     T
C437   C449    1.198   .     T
C438   C448    1.198   .     T
C439   C447    1.197   .     T
C440   C470    1.462   .     S
C440   O647    1.269   .     A
C440   O346    1.270   1_655 S
C441   C446    1.197   .     T
C442   C445    1.198   .     T
C443   C444    1.198   .     T
C449   C506    1.422   .     S
C451   C471    1.465   .     S
C451   O648    1.270   .     A
C453   C483    1.415   .     A
C454   C485    1.414   .     A
C454   C107    1.418   1_655 S
C455   C486    1.414   .     A
C455   C472    1.416   .     A
C456   C474    1.415   .     A
C456   C487    1.413   .     A
C457   C470    1.416   .     A
C457   C479    1.415   .     A
C458   C471    1.418   .     A
C458   C480    1.415   .     A
C459   C481    1.417   .     A
C459   C1200   1.416   1_545 S
C460   C482    1.417   .     A
C460   C1202   1.416   .     S
C461   C492    1.415   .     A
C461   C475    1.416   .     S
C462   C477    1.465   .     S
C462   O649    1.271   .     S
C462   O653    1.271   .     S
C463   C493    1.415   .     A
C463   C476    1.418   .     A
C464   C494    1.415   .     A
C464   C113    1.418   1_655 S
C465   C496    1.415   .     A
C466   C1203   1.416   .     A
C466   C488    1.415   .     A
C467   C489    1.415   .     A
C467   C1204   1.418   1_545 S
C468   C477    1.418   .     A
C468   C490    1.415   .     A
C469   C491    1.415   .     A
C469   C478    1.416   .     A
C470   C89     1.416   1_655 S
C472   C1187   1.416   .     S
C473   O650    1.270   .     S
C473   O654    1.270   .     S
C474   C1188   1.416   1_545 S
C475   C1194   1.416   1_545 A
C475   C484    1.462   .     S
C476   C1223   1.465   .     S
C476   C1195   1.418   .     S
C478   C109    1.462   1_655 S
C478   C101    1.416   1_655 S
C479   C505    1.415   .     A
C479   C497    1.414   .     A
C480   C507    1.412   .     A
C481   C499    1.415   .     A
C481   C508    1.416   .     A
C482   C500    1.415   .     A
C482   C509    1.415   .     A
C483   C510    1.415   .     A
C484   O651    1.270   .     S
C484   O655    1.270   .     S
C485   C511    1.412   .     A
C485   C498    1.412   .     A
C486   C512    1.412   .     A
C486   C1227   1.413   .     S
C487   C513    1.411   .     A
C487   C1228   1.412   1_545 S
C488   C501    1.414   .     A
C488   C514    1.415   .     A
C489   C515    1.412   .     A
C489   C1230   1.413   1_545 S
C490   C516    1.412   .     A
C490   C503    1.413   .     S
C491   C504    1.414   .     A
C492   C1229   1.414   1_545 S
C493   C502    1.413   .     A
C494   C139    1.413   1_655 A
C495   C1204   1.465   1_545 S
C495   O652    1.270   .     S
C495   O657    1.270   .     S
C497   C498    1.407   .     A
C497   C119    1.414   1_655 S
C498   C116    1.412   1_655 S
C499   C1214   1.413   1_545 S
C499   C1228   1.408   1_545 S
C500   C1215   1.412   .     S
C500   C1227   1.408   .     S
C501   C1220   1.414   .     S
C501   C502    1.407   1_556 S
C502   C1217   1.413   .     S
C502   C501    1.407   1_554 S
C503   C140    1.407   1_556 S
C504   C132    1.414   1_655 S
C504   C139    1.407   1_654 S
C505   C511    1.417   .     A
C505   O693    1.381   .     S
C506   O658    1.275   .     A
C506   O686    1.275   .     A
C507   C510    1.417   .     A
C507   O694    1.384   .     S
C508   O695    1.381   .     S
C508   C513    1.417   .     A
C509   O696    1.381   .     S
C509   C512    1.417   .     A
C510   O697    1.381   .     S
C511   O698    1.384   .     S
C512   O699    1.384   .     S
C513   O701    1.384   .     S
C514   O702    1.381   .     S
C514   C369    1.417   1_556 S
C515   O703    1.384   .     S
C515   C368    1.417   1_554 S
C516   O704    1.384   .     S
C516   C371    1.417   1_556 S
H533   O693    0.991   .     S
H534   O694    0.990   .     S
H535   O695    0.991   .     S
H536   O696    0.991   .     S
H537   O697    0.991   .     S
H538   O698    0.990   .     S
H539   O699    0.990   .     S
H541   O701    0.990   .     S
H542   O702    0.991   .     S
H543   O703    0.990   .     S
H544   O704    0.990   .     S
H545   O705    0.991   .     S
H546   O706    0.991   .     S
H547   O707    0.990   .     S
H548   O708    0.990   .     S
H549   O709    0.991   .     S
H554   C1109   1.110   1_545 S
H555   C1108   1.112   1_545 S
H556   C1108   1.108   1_545 S
H562   C1112   1.110   .     S
H563   C1111   1.108   .     S
H564   C1111   1.112   .     S
H568   C10     1.110   1_655 S
H578   C26     1.112   1_655 S
H579   C9      1.107   1_655 S
H580   C26     1.108   1_655 S
H585   C1122   1.110   .     S
H590   C9      1.112   1_655 S
H593   C1125   1.110   1_545 S
O645   Zn716   1.934   .     S
O645   Zn713   1.934   .     S
O645   Zn1448  1.934   1_545 S
O645   Zn724   1.934   .     S
O646   Zn715   1.946   .     S
O646   C1157   1.270   .     S
O647   Zn718   1.946   .     S
O648   Zn717   1.946   .     S
O649   Zn727   1.946   .     S
O650   Zn726   1.946   .     S
O651   Zn721   1.946   .     S
O652   Zn713   1.946   .     S
O653   Zn723   1.946   .     S
O654   Zn722   1.946   .     S
O655   Zn725   1.946   .     S
O656   Zn1443  1.934   1_545 S
O656   Zn719   1.934   .     S
O656   Zn721   1.934   .     S
O656   Zn725   1.934   .     S
O657   Zn724   1.946   .     S
O658   Zn716   1.915   .     S
O659   Zn715   1.915   .     S
O660   Zn718   1.913   .     S
O661   Zn717   1.913   .     S
O662   Zn720   1.915   .     S
O663   Zn719   1.915   .     S
O664   Zn714   1.913   .     S
O665   Zn728   1.913   .     S
O666   Zn715   1.913   .     S
O667   Zn722   1.934   .     S
O667   Zn726   1.934   .     S
O667   Zn714   1.934   .     S
O668   Zn716   1.913   .     S
O669   Zn728   1.915   .     S
O670   Zn714   1.915   .     S
O671   Zn719   1.913   .     S
O672   Zn720   1.913   .     S
O673   Zn717   1.915   .     S
O674   Zn718   1.915   .     S
O675   Zn359   1.915   1_655 S
O676   Zn722   1.915   .     S
O677   Zn1453  1.913   .     S
O678   Zn717   1.934   .     S
O678   Zn723   1.934   .     S
O678   Zn727   1.934   .     S
O679   Zn724   1.913   .     S
O680   Zn727   1.915   .     S
O681   Zn362   1.915   1_655 S
O682   Zn721   1.913   .     S
O683   Zn1441  1.913   .     S
O684   Zn358   1.913   1_655 S
O685   Zn723   1.913   .     S
O686   Zn713   1.915   .     S
O687   Zn1449  1.915   .     S
O688   Zn726   1.913   .     S
O689   Zn720   1.946   .     S
O690   Zn363   1.913   1_655 S
O691   Zn1452  1.915   .     S
O692   Zn725   1.915   .     S
O700   Zn719   1.946   .     S
O710   Zn714   1.946   .     S
O711   Zn728   1.946   .     S
O711   C87     1.271   1_655 S
O712   Zn716   1.946   .     S
O712   C1093   1.270   1_545 S
Zn713  O1411   1.913   1_545 S
Zn715  O1384   1.934   .     S
Zn718  O303    1.934   1_655 S
Zn720  O1373   1.934   .     S
Zn721  O1415   1.915   1_545 S
Zn724  O1419   1.915   1_545 S
Zn725  O1405   1.913   1_545 S
Zn728  O314    1.934   1_655 S
C729   O1053   1.270   .     A
C729   C836    1.464   .     S
C729   O348    1.270   1_565 S
C730   O1023   1.275   .     A
C730   O1051   1.275   .     A
C730   C812    1.422   .     S
C731   O1069   1.381   .     S
C731   C855    1.415   .     A
C731   C734    1.417   1_554 S
C732   C856    1.415   .     A
C732   O1070   1.381   .     S
C732   C879    1.417   1_556 S
C733   O1071   1.384   .     S
C733   C857    1.412   .     A
C733   C878    1.417   1_554 S
C734   C858    1.412   .     A
C734   O1072   1.384   .     S
C734   C731    1.417   1_556 S
C735   C860    1.415   .     A
C735   O1073   1.381   .     S
C735   C880    1.417   1_554 S
C736   H976    1.110   .     S
C736   H965    1.105   .     S
C736   C737    1.540   .     S
C736   C817    1.533   .     S
C737   C738    1.527   .     S
C737   H1307   1.107   1_455 S
C737   H1318   1.112   1_455 S
C738   H921    1.111   .     S
C738   H881    1.110   .     S
C738   H1296   1.110   1_455 S
C739   H914    1.109   .     S
C739   C818    1.534   .     S
C739   H915    1.106   .     S
C739   C740    1.539   .     S
C740   C742    1.527   .     S
C740   H1257   1.112   .     S
C740   H1268   1.107   .     S
C741   O1048   1.275   .     A
C741   O1024   1.275   .     A
C741   C811    1.421   .     S
C742   H987    1.111   .     S
C742   H882    1.110   .     S
C742   H998    1.110   .     S
C743   C819    1.533   .     S
C743   H922    1.110   .     S
C743   H923    1.106   .     S
C743   C744    1.539   .     S
C744   C745    1.527   .     S
C744   H191    1.112   1_565 S
C744   H192    1.108   1_565 S
C745   H916    1.111   .     S
C745   H917    1.110   .     S
C745   H190    1.110   1_565 S
C746   H929    1.107   .     S
C746   C820    1.532   .     S
C746   C747    1.539   .     S
C746   H930    1.110   .     S
C747   C748    1.526   .     S
C748   H925    1.111   .     S
C748   H924    1.110   .     S
C749   C750    1.539   .     S
C749   C821    1.533   .     S
C749   H938    1.110   .     S
C749   H937    1.105   .     S
C750   C751    1.527   .     S
C750   H1299   1.107   .     S
C750   H1300   1.112   .     S
C751   H933    1.111   .     S
C751   H931    1.111   .     S
C751   H1298   1.110   .     S
C752   O1025   1.275   .     A
C752   O1049   1.275   .     A
C752   C810    1.421   .     S
C753   H945    1.109   .     S
C753   H946    1.106   .     S
C753   C754    1.539   .     S
C753   C822    1.534   .     S
C754   C755    1.527   .     S
C754   H1306   1.112   1_455 S
C754   H1308   1.108   1_455 S
C755   H940    1.110   .     S
C755   H941    1.110   .     S
C755   H939    1.111   .     S
C756   H952    1.110   .     S
C756   H953    1.104   .     S
C756   C823    1.534   .     S
C757   H950    1.112   .     S
C757   H951    1.107   .     S
C757   C28     1.540   1_565 S
C757   C30     1.527   1_565 S
C758   H948    1.110   .     S
C758   H947    1.111   .     S
C759   C824    1.533   .     S
C759   H961    1.110   .     S
C759   H960    1.104   .     S
C759   C32     1.540   1_565 S
C760   H958    1.107   .     S
C760   H959    1.112   .     S
C761   H955    1.110   .     S
C761   H956    1.111   .     S
C761   C32     1.527   1_565 S
C761   H229    1.110   1_565 S
C762   H968    1.105   .     S
C762   C825    1.533   .     S
C762   H969    1.110   .     S
C762   C764    1.540   .     S
C763   O1026   1.275   .     A
C763   O1055   1.275   .     A
C763   C809    1.422   .     S
C764   C765    1.527   .     S
C764   H967    1.112   .     S
C764   H966    1.107   .     S
C765   H963    1.111   .     S
C765   H962    1.110   .     S
C765   H964    1.110   .     S
C766   H977    1.106   .     S
C766   C767    1.539   .     S
C766   C827    1.534   .     S
C766   H975    1.109   .     S
C767   C768    1.527   .     S
C767   H974    1.108   .     S
C767   H973    1.112   .     S
C768   H972    1.110   .     S
C768   H971    1.110   .     S
C768   H970    1.111   .     S
C769   H984    1.106   .     S
C769   C828    1.534   .     S
C769   H983    1.109   .     S
C769   C770    1.539   .     S
C770   H982    1.108   .     S
C770   H981    1.112   .     S
C770   C771    1.527   .     S
C771   H979    1.110   .     S
C771   H980    1.110   .     S
C771   H978    1.111   .     S
C772   C829    1.533   .     S
C772   H991    1.105   .     S
C772   C773    1.540   .     S
C772   H992    1.110   .     S
C773   C775    1.527   .     S
C773   H989    1.107   .     S
C773   H990    1.112   .     S
C774   C808    1.422   .     S
C774   O1027   1.275   .     A
C774   O1056   1.275   .     A
C775   H988    1.110   .     S
C775   H985    1.110   .     S
C775   H986    1.111   .     S
C776   H999    1.105   .     S
C776   H1000   1.110   .     S
C776   C830    1.533   .     S
C776   C777    1.540   .     S
C777   H996    1.107   .     S
C777   C778    1.527   .     S
C777   H997    1.112   .     S
C778   H995    1.110   .     S
C778   H993    1.110   .     S
C778   H994    1.111   .     S
C779   C780    1.539   .     S
C779   H1007   1.106   .     S
C779   C831    1.534   .     S
C779   H1006   1.109   .     S
C780   H1005   1.108   .     S
C780   C781    1.527   .     S
C780   H1004   1.112   .     S
C781   H1002   1.110   .     S
C781   H1001   1.111   .     S
C781   H1003   1.110   .     S
C782   H887    1.109   .     S
C782   C783    1.539   .     S
C782   C832    1.534   .     S
C782   H888    1.106   .     S
C783   H886    1.108   .     S
C783   C784    1.527   .     S
C783   H885    1.112   .     S
C784   H1008   1.111   .     S
C784   H884    1.110   .     S
C784   H883    1.110   .     S
C785   O1028   1.275   .     A
C785   O1052   1.275   .     A
C785   C816    1.421   .     S
C786   H896    1.110   .     S
C786   C833    1.533   .     S
C786   C787    1.540   .     S
C786   H895    1.105   .     S
C787   H892    1.107   .     S
C787   C788    1.527   .     S
C787   H894    1.112   .     S
C788   H891    1.110   .     S
C788   H890    1.111   .     S
C788   H889    1.110   .     S
C789   O1029   1.275   .     A
C789   C814    1.421   .     S
C789   O1054   1.275   .     A
C790   C805    1.421   .     S
C790   O1041   1.275   .     A
C790   O1030   1.275   .     A
C791   O1043   1.275   .     A
C791   O1032   1.275   .     A
C791   C803    1.421   .     S
C792   O1039   1.275   .     A
C792   O1033   1.275   .     A
C792   C802    1.422   .     S
C793   C838    1.463   .     S
C793   O1064   1.270   .     A
C794   O1034   1.275   .     A
C794   O1040   1.275   .     A
C794   C801    1.422   .     S
C795   O1046   1.275   .     A
C795   O1035   1.275   .     A
C795   C800    1.421   .     S
C796   O1036   1.275   .     A
C796   C799    1.421   .     S
C796   O1047   1.275   .     A
C797   O1044   1.275   .     A
C797   C807    1.422   .     S
C797   O1037   1.275   .     A
C798   O1038   1.275   .     A
C798   C806    1.422   .     S
C798   O1045   1.275   .     A
C799   C816    1.197   .     T
C800   C814    1.197   .     T
C801   C813    1.198   .     T
C802   C812    1.198   .     T
C803   C811    1.197   .     T
C804   C834    1.462   .     S
C804   O1011   1.269   .     A
C804   O1438   1.270   .     S
C805   C810    1.197   .     T
C806   C809    1.198   .     T
C807   C808    1.198   .     T
C813   C870    1.422   .     S
C815   C835    1.465   .     S
C815   O1012   1.270   .     A
C815   O1439   1.271   1_455 S
C817   C847    1.415   .     A
C817   C1198   1.416   1_455 S
C818   C849    1.414   .     A
C818   C1199   1.418   .     S
C819   C850    1.414   .     A
C819   C836    1.416   .     A
C820   C838    1.415   .     A
C820   C851    1.413   .     A
C821   C834    1.416   .     A
C821   C843    1.415   .     A
C822   C835    1.418   .     A
C822   C844    1.415   .     A
C823   C845    1.417   .     A
C824   C846    1.417   .     A
C824   C110    1.416   1_565 S
C825   C856    1.415   .     A
C825   C839    1.416   .     S
C826   C841    1.465   .     S
C826   O1013   1.271   .     S
C826   O1017   1.271   .     S
C827   C857    1.415   .     A
C827   C840    1.418   .     A
C828   C858    1.415   .     A
C828   C1205   1.418   .     S
C829   C860    1.415   .     A
C829   C1206   1.416   1_455 S
C830   C111    1.416   1_565 A
C830   C852    1.415   .     A
C831   C853    1.415   .     A
C832   C841    1.418   .     A
C832   C854    1.415   .     A
C833   C855    1.415   .     A
C833   C842    1.416   .     A
C834   C1181   1.416   .     S
C835   C1182   1.418   1_455 S
C836   C95     1.416   1_565 S
C837   C1206   1.462   1_455 S
C837   O1014   1.270   .     S
C837   O1018   1.270   .     S
C839   C848    1.462   .     S
C840   C131    1.465   1_565 S
C840   C103    1.418   1_565 S
C841   C1192   1.418   1_455 S
C842   C1201   1.462   .     S
C842   C1193   1.416   .     S
C843   C869    1.415   .     A
C843   C861    1.414   .     A
C844   C871    1.412   .     A
C844   C1226   1.412   1_455 S
C845   C863    1.415   .     A
C845   C872    1.416   .     A
C846   C864    1.415   .     A
C846   C873    1.415   .     A
C847   C874    1.415   .     A
C847   C1225   1.414   1_455 S
C848   O1015   1.270   .     S
C848   O1019   1.270   .     S
C849   C875    1.412   .     A
C849   C862    1.412   .     A
C850   C876    1.412   .     A
C850   C135    1.413   1_565 S
C851   C877    1.411   .     A
C852   C865    1.414   .     A
C852   C878    1.415   .     A
C853   C879    1.412   .     A
C854   C880    1.412   .     A
C854   C867    1.413   .     S
C855   C868    1.414   .     A
C857   C866    1.413   .     A
C858   C1231   1.413   .     A
C859   O1016   1.270   .     S
C859   O1021   1.270   .     S
C860   C1232   1.414   1_455 S
C861   C862    1.407   .     A
C861   C1211   1.414   .     S
C862   C1208   1.412   .     S
C864   C123    1.412   1_565 S
C864   C135    1.408   1_565 S
C865   C128    1.414   1_565 S
C865   C866    1.407   1_556 S
C866   C125    1.413   1_565 S
C866   C865    1.407   1_554 S
C867   C1222   1.413   1_455 A
C867   C1232   1.407   1_456 S
C868   C1224   1.414   .     S
C868   C1231   1.407   1_554 S
C869   C875    1.417   .     A
C869   O1057   1.381   .     S
C870   O1022   1.275   .     A
C870   O1050   1.275   .     A
C871   C874    1.417   .     A
C871   O1058   1.384   .     S
C872   O1059   1.381   .     S
C872   C877    1.417   .     A
C873   O1060   1.381   .     S
C873   C876    1.417   .     A
C874   O1061   1.381   .     S
C875   O1062   1.384   .     S
C876   O1063   1.384   .     S
C877   O1065   1.384   .     S
C878   O1066   1.381   .     S
C878   C733    1.417   1_556 S
C879   O1067   1.384   .     S
C879   C732    1.417   1_554 S
C880   O1068   1.384   .     S
C880   C735    1.417   1_556 S
H893   C1104   1.112   1_455 S
H897   O1057   0.991   .     S
H898   O1058   0.990   .     S
H899   O1059   0.991   .     S
H900   O1060   0.991   .     S
H901   O1061   0.991   .     S
H902   O1062   0.990   .     S
H903   O1063   0.990   .     S
H904   C1104   1.107   1_455 S
H905   O1065   0.990   .     S
H906   O1066   0.991   .     S
H907   O1067   0.990   .     S
H908   O1068   0.990   .     S
H909   O1069   0.991   .     S
H910   O1070   0.991   .     S
H911   O1071   0.990   .     S
H912   O1072   0.990   .     S
H913   O1073   0.991   .     S
H926   C20     1.110   1_565 S
H927   C19     1.108   1_565 S
H928   C19     1.112   1_565 S
H932   C1102   1.110   .     S
H934   C1115   1.110   1_455 S
H935   C1114   1.107   1_455 S
H936   C1114   1.112   1_455 S
H942   C1118   1.112   .     S
H943   C1101   1.107   .     S
H944   C1118   1.108   .     S
H949   C30     1.110   1_565 S
H954   C1101   1.112   .     S
O1009  Zn1080  1.934   .     S
O1009  Zn1077  1.934   .     S
O1009  Zn1088  1.934   .     S
O1010  Zn1079  1.946   .     S
O1010  C65     1.270   1_565 S
O1011  Zn1082  1.946   .     S
O1012  Zn1081  1.946   .     S
O1013  Zn1091  1.946   .     S
O1014  Zn1090  1.946   .     S
O1015  Zn1085  1.946   .     S
O1016  Zn1077  1.946   .     S
O1017  Zn1087  1.946   .     S
O1018  Zn1086  1.946   .     S
O1019  Zn1089  1.946   .     S
O1020  Zn1083  1.934   .     S
O1020  Zn1085  1.934   .     S
O1020  Zn1089  1.934   .     S
O1021  Zn1088  1.946   .     S
O1022  Zn1080  1.915   .     S
O1023  Zn1079  1.915   .     S
O1024  Zn1082  1.913   .     S
O1025  Zn1081  1.913   .     S
O1026  Zn1084  1.915   .     S
O1027  Zn1083  1.915   .     S
O1028  Zn1078  1.913   .     S
O1029  Zn1092  1.913   .     S
O1030  Zn1079  1.913   .     S
O1031  Zn1086  1.934   .     S
O1031  Zn1090  1.934   .     S
O1031  Zn1078  1.934   .     S
O1031  Zn1446  1.934   1_455 S
O1032  Zn1080  1.913   .     S
O1033  Zn1092  1.915   .     S
O1034  Zn1078  1.915   .     S
O1035  Zn1083  1.913   .     S
O1036  Zn1084  1.913   .     S
O1037  Zn1081  1.915   .     S
O1038  Zn1082  1.915   .     S
O1039  Zn1451  1.915   .     S
O1040  Zn1086  1.915   .     S
O1041  Zn361   1.913   1_565 S
O1042  Zn1081  1.934   .     S
O1042  Zn1087  1.934   .     S
O1042  Zn1091  1.934   .     S
O1042  Zn1456  1.934   1_455 S
O1043  Zn1088  1.913   .     S
O1044  Zn1091  1.915   .     S
O1045  Zn1454  1.915   .     S
O1046  Zn1085  1.913   .     S
O1047  Zn349   1.913   1_565 S
O1048  Zn1450  1.913   .     S
O1049  Zn1087  1.913   .     S
O1050  Zn1077  1.915   .     S
O1051  Zn357   1.915   1_565 S
O1052  Zn1090  1.913   .     S
O1053  Zn1084  1.946   .     S
O1054  Zn1455  1.913   .     S
O1055  Zn360   1.915   1_565 S
O1056  Zn1089  1.915   .     S
O1064  Zn1083  1.946   .     S
O1074  Zn1078  1.946   .     S
O1074  C1168   1.270   1_455 S
O1075  Zn1092  1.946   .     S
O1075  C1179   1.271   .     S
O1076  Zn1080  1.946   .     S
Zn1079 O292    1.934   1_565 S
Zn1082 O1395   1.934   .     S
Zn1084 O281    1.934   1_565 S
Zn1086 O1412   1.913   1_455 S
Zn1087 O1403   1.915   1_455 S
Zn1090 O1409   1.915   1_455 S
Zn1091 O1418   1.913   1_455 S
Zn1092 O1406   1.934   .     S
C1093  O1417   1.270   .     A
C1093  C1200   1.464   .     S
C1093  O712    1.270   1_565 S
C1094  O1387   1.275   .     A
C1094  O1415   1.275   .     A
C1094  C1176   1.422   .     S
C1095  O1433   1.381   .     S
C1095  C1219   1.415   .     A
C1095  C1098   1.417   1_554 S
C1096  C1220   1.415   .     A
C1096  O1434   1.381   .     S
C1096  C1243   1.417   1_556 S
C1097  O1435   1.384   .     S
C1097  C1221   1.412   .     A
C1097  C1242   1.417   1_554 S
C1098  C1222   1.412   .     A
C1098  O1436   1.384   .     S
C1098  C1095   1.417   1_556 S
C1099  C1224   1.415   .     A
C1099  O1437   1.381   .     S
C1099  C1244   1.417   1_554 S
C1100  H1340   1.110   .     S
C1100  H1329   1.105   .     S
C1100  C1101   1.540   .     S
C1100  C1181   1.533   .     S
C1101  C1102   1.527   .     S
C1102  H1285   1.111   .     S
C1102  H1245   1.110   .     S
C1103  H1278   1.109   .     S
C1103  C1182   1.534   .     S
C1103  H1279   1.106   .     S
C1103  C1104   1.539   .     S
C1104  C1106   1.527   .     S
C1104  H893    1.112   1_655 S
C1104  H904    1.107   1_655 S
C1105  O1412   1.275   .     A
C1105  O1388   1.275   .     A
C1105  C1175   1.421   .     S
C1106  H1351   1.111   .     S
C1106  H1246   1.110   .     S
C1106  H1362   1.110   .     S
C1107  C1183   1.533   .     S
C1107  H1286   1.110   .     S
C1107  H1287   1.106   .     S
C1107  C1108   1.539   .     S
C1108  C1109   1.527   .     S
C1108  H555    1.112   1_565 S
C1108  H556    1.108   1_565 S
C1109  H1280   1.111   .     S
C1109  H1281   1.110   .     S
C1109  H554    1.110   1_565 S
C1110  H1293   1.107   .     S
C1110  C1184   1.532   .     S
C1110  C1111   1.539   .     S
C1110  H1294   1.110   .     S
C1111  C1112   1.526   .     S
C1112  H1289   1.111   .     S
C1112  H1288   1.110   .     S
C1113  C1114   1.539   .     S
C1113  C1185   1.533   .     S
C1113  H1302   1.110   .     S
C1113  H1301   1.105   .     S
C1114  C1115   1.527   .     S
C1114  H935    1.107   1_655 S
C1114  H936    1.112   1_655 S
C1115  H1297   1.111   .     S
C1115  H1295   1.111   .     S
C1115  H934    1.110   1_655 S
C1116  O1389   1.275   .     A
C1116  O1413   1.275   .     A
C1116  C1174   1.421   .     S
C1117  H1309   1.109   .     S
C1117  H1310   1.106   .     S
C1117  C1118   1.539   .     S
C1117  C1186   1.534   .     S
C1118  C1119   1.527   .     S
C1119  H1304   1.110   .     S
C1119  H1305   1.110   .     S
C1119  H1303   1.111   .     S
C1120  H1316   1.110   .     S
C1120  H1317   1.104   .     S
C1120  C1187   1.534   .     S
C1121  H1314   1.112   .     S
C1121  H1315   1.107   .     S
C1121  C392    1.540   1_565 S
C1121  C394    1.527   1_565 S
C1122  H1312   1.110   .     S
C1122  H1311   1.111   .     S
C1123  C1188   1.533   .     S
C1123  H1325   1.110   .     S
C1123  H1324   1.104   .     S
C1123  C396    1.540   1_565 S
C1124  H1322   1.107   .     S
C1124  H1323   1.112   .     S
C1125  H1319   1.110   .     S
C1125  H1320   1.111   .     S
C1125  C396    1.527   1_565 S
C1125  H593    1.110   1_565 S
C1126  H1332   1.105   .     S
C1126  C1189   1.533   .     S
C1126  H1333   1.110   .     S
C1126  C1128   1.540   .     S
C1127  O1390   1.275   .     A
C1127  O1419   1.275   .     A
C1127  C1173   1.422   .     S
C1128  C1129   1.527   .     S
C1128  H1331   1.112   .     S
C1128  H1330   1.107   .     S
C1129  H1327   1.111   .     S
C1129  H1326   1.110   .     S
C1129  H1328   1.110   .     S
C1130  H1341   1.106   .     S
C1130  C1131   1.539   .     S
C1130  C1191   1.534   .     S
C1130  H1339   1.109   .     S
C1131  C1132   1.527   .     S
C1131  H1338   1.108   .     S
C1131  H1337   1.112   .     S
C1132  H1336   1.110   .     S
C1132  H1335   1.110   .     S
C1132  H1334   1.111   .     S
C1133  H1348   1.106   .     S
C1133  C1192   1.534   .     S
C1133  H1347   1.109   .     S
C1133  C1134   1.539   .     S
C1134  H1346   1.108   .     S
C1134  H1345   1.112   .     S
C1134  C1135   1.527   .     S
C1135  H1343   1.110   .     S
C1135  H1344   1.110   .     S
C1135  H1342   1.111   .     S
C1136  C1193   1.533   .     S
C1136  H1355   1.105   .     S
C1136  C1137   1.540   .     S
C1136  H1356   1.110   .     S
C1137  C1139   1.527   .     S
C1137  H1353   1.107   .     S
C1137  H1354   1.112   .     S
C1138  C1172   1.422   .     S
C1138  O1391   1.275   .     A
C1138  O1420   1.275   .     A
C1139  H1352   1.110   .     S
C1139  H1349   1.110   .     S
C1139  H1350   1.111   .     S
C1140  H1363   1.105   .     S
C1140  H1364   1.110   .     S
C1140  C1194   1.533   .     S
C1140  C1141   1.540   .     S
C1141  H1360   1.107   .     S
C1141  C1142   1.527   .     S
C1141  H1361   1.112   .     S
C1142  H1359   1.110   .     S
C1142  H1357   1.110   .     S
C1142  H1358   1.111   .     S
C1143  C1144   1.539   .     S
C1143  H1371   1.106   .     S
C1143  C1195   1.534   .     S
C1143  H1370   1.109   .     S
C1144  H1369   1.108   .     S
C1144  C1145   1.527   .     S
C1144  H1368   1.112   .     S
C1145  H1366   1.110   .     S
C1145  H1365   1.111   .     S
C1145  H1367   1.110   .     S
C1146  H1251   1.109   .     S
C1146  C1147   1.539   .     S
C1146  C1196   1.534   .     S
C1146  H1252   1.106   .     S
C1147  H1250   1.108   .     S
C1147  C1148   1.527   .     S
C1147  H1249   1.112   .     S
C1148  H1372   1.111   .     S
C1148  H1248   1.110   .     S
C1148  H1247   1.110   .     S
C1149  O1392   1.275   .     A
C1149  O1416   1.275   .     A
C1149  C1180   1.421   .     S
C1150  H1260   1.110   .     S
C1150  C1197   1.533   .     S
C1150  C1151   1.540   .     S
C1150  H1259   1.105   .     S
C1151  H1256   1.107   .     S
C1151  C1152   1.527   .     S
C1151  H1258   1.112   .     S
C1152  H1255   1.110   .     S
C1152  H1254   1.111   .     S
C1152  H1253   1.110   .     S
C1153  O1393   1.275   .     A
C1153  C1178   1.421   .     S
C1153  O1418   1.275   .     A
C1154  C1169   1.421   .     S
C1154  O1405   1.275   .     A
C1154  O1394   1.275   .     A
C1155  O1407   1.275   .     A
C1155  O1396   1.275   .     A
C1155  C1167   1.421   .     S
C1156  O1403   1.275   .     A
C1156  O1397   1.275   .     A
C1156  C1166   1.422   .     S
C1157  C1202   1.463   .     S
C1157  O1428   1.270   .     A
C1158  O1398   1.275   .     A
C1158  O1404   1.275   .     A
C1158  C1165   1.422   .     S
C1159  O1410   1.275   .     A
C1159  O1399   1.275   .     A
C1159  C1164   1.421   .     S
C1160  O1400   1.275   .     A
C1160  C1163   1.421   .     S
C1160  O1411   1.275   .     A
C1161  O1408   1.275   .     A
C1161  C1171   1.422   .     S
C1161  O1401   1.275   .     A
C1162  O1402   1.275   .     A
C1162  C1170   1.422   .     S
C1162  O1409   1.275   .     A
C1163  C1180   1.197   .     T
C1164  C1178   1.197   .     T
C1165  C1177   1.198   .     T
C1166  C1176   1.198   .     T
C1167  C1175   1.197   .     T
C1168  C1198   1.462   .     S
C1168  O1375   1.269   .     A
C1168  O1074   1.270   1_655 S
C1169  C1174   1.197   .     T
C1170  C1173   1.198   .     T
C1171  C1172   1.198   .     T
C1177  C1234   1.422   .     S
C1179  C1199   1.465   .     S
C1179  O1376   1.270   .     A
C1181  C1211   1.415   .     A
C1182  C1213   1.414   .     A
C1182  C835    1.418   1_655 S
C1183  C1214   1.414   .     A
C1183  C1200   1.416   .     A
C1184  C1202   1.415   .     A
C1184  C1215   1.413   .     A
C1185  C1198   1.416   .     A
C1185  C1207   1.415   .     A
C1186  C1199   1.418   .     A
C1186  C1208   1.415   .     A
C1187  C1209   1.417   .     A
C1188  C1210   1.417   .     A
C1188  C474    1.416   1_565 S
C1189  C1220   1.415   .     A
C1189  C1203   1.416   .     S
C1190  C1205   1.465   .     S
C1190  O1377   1.271   .     S
C1190  O1381   1.271   .     S
C1191  C1221   1.415   .     A
C1191  C1204   1.418   .     A
C1192  C1222   1.415   .     A
C1192  C841    1.418   1_655 S
C1193  C1224   1.415   .     A
C1194  C475    1.416   1_565 A
C1194  C1216   1.415   .     A
C1195  C1217   1.415   .     A
C1196  C1205   1.418   .     A
C1196  C1218   1.415   .     A
C1197  C1219   1.415   .     A
C1197  C1206   1.416   .     A
C1198  C817    1.416   1_655 S
C1200  C459    1.416   1_565 S
C1201  O1378   1.270   .     S
C1201  O1382   1.270   .     S
C1203  C1212   1.462   .     S
C1204  C495    1.465   1_565 S
C1204  C467    1.418   1_565 S
C1206  C837    1.462   1_655 S
C1206  C829    1.416   1_655 S
C1207  C1233   1.415   .     A
C1207  C1225   1.414   .     A
C1208  C1235   1.412   .     A
C1209  C1227   1.415   .     A
C1209  C1236   1.416   .     A
C1210  C1228   1.415   .     A
C1210  C1237   1.415   .     A
C1211  C1238   1.415   .     A
C1212  O1379   1.270   .     S
C1212  O1383   1.270   .     S
C1213  C1239   1.412   .     A
C1213  C1226   1.412   .     A
C1214  C1240   1.412   .     A
C1214  C499    1.413   1_565 S
C1215  C1241   1.411   .     A
C1216  C1229   1.414   .     A
C1216  C1242   1.415   .     A
C1217  C1243   1.412   .     A
C1218  C1244   1.412   .     A
C1218  C1231   1.413   .     S
C1219  C1232   1.414   .     A
C1221  C1230   1.413   .     A
C1222  C867    1.413   1_655 A
C1223  O1380   1.270   .     S
C1223  O1385   1.270   .     S
C1225  C1226   1.407   .     A
C1225  C847    1.414   1_655 S
C1226  C844    1.412   1_655 S
C1228  C487    1.412   1_565 S
C1228  C499    1.408   1_565 S
C1229  C492    1.414   1_565 S
C1229  C1230   1.407   1_556 S
C1230  C489    1.413   1_565 S
C1230  C1229   1.407   1_554 S
C1231  C868    1.407   1_556 S
C1232  C860    1.414   1_655 S
C1232  C867    1.407   1_654 S
C1233  C1239   1.417   .     A
C1233  O1421   1.381   .     S
C1234  O1386   1.275   .     A
C1234  O1414   1.275   .     A
C1235  C1238   1.417   .     A
C1235  O1422   1.384   .     S
C1236  O1423   1.381   .     S
C1236  C1241   1.417   .     A
C1237  O1424   1.381   .     S
C1237  C1240   1.417   .     A
C1238  O1425   1.381   .     S
C1239  O1426   1.384   .     S
C1240  O1427   1.384   .     S
C1241  O1429   1.384   .     S
C1242  O1430   1.381   .     S
C1242  C1097   1.417   1_556 S
C1243  O1431   1.384   .     S
C1243  C1096   1.417   1_554 S
C1244  O1432   1.384   .     S
C1244  C1099   1.417   1_556 S
H1261  O1421   0.991   .     S
H1262  O1422   0.990   .     S
H1263  O1423   0.991   .     S
H1264  O1424   0.991   .     S
H1265  O1425   0.991   .     S
H1266  O1426   0.990   .     S
H1267  O1427   0.990   .     S
H1269  O1429   0.990   .     S
H1270  O1430   0.991   .     S
H1271  O1431   0.990   .     S
H1272  O1432   0.990   .     S
H1273  O1433   0.991   .     S
H1274  O1434   0.991   .     S
H1275  O1435   0.990   .     S
H1276  O1436   0.990   .     S
H1277  O1437   0.991   .     S
H1290  C384    1.110   1_565 S
H1291  C383    1.108   1_565 S
H1292  C383    1.112   1_565 S
H1296  C738    1.110   1_655 S
H1306  C754    1.112   1_655 S
H1307  C737    1.107   1_655 S
H1308  C754    1.108   1_655 S
H1313  C394    1.110   1_565 S
H1318  C737    1.112   1_655 S
O1373  Zn1444  1.934   .     S
O1373  Zn1441  1.934   .     S
O1373  Zn1452  1.934   .     S
O1374  Zn1443  1.946   .     S
O1374  C429    1.270   1_565 S
O1375  Zn1446  1.946   .     S
O1376  Zn1445  1.946   .     S
O1377  Zn1455  1.946   .     S
O1378  Zn1454  1.946   .     S
O1379  Zn1449  1.946   .     S
O1380  Zn1441  1.946   .     S
O1381  Zn1451  1.946   .     S
O1382  Zn1450  1.946   .     S
O1383  Zn1453  1.946   .     S
O1384  Zn1447  1.934   .     S
O1384  Zn1449  1.934   .     S
O1384  Zn1453  1.934   .     S
O1385  Zn1452  1.946   .     S
O1386  Zn1444  1.915   .     S
O1387  Zn1443  1.915   .     S
O1388  Zn1446  1.913   .     S
O1389  Zn1445  1.913   .     S
O1390  Zn1448  1.915   .     S
O1391  Zn1447  1.915   .     S
O1392  Zn1442  1.913   .     S
O1393  Zn1456  1.913   .     S
O1394  Zn1443  1.913   .     S
O1395  Zn1450  1.934   .     S
O1395  Zn1454  1.934   .     S
O1395  Zn1442  1.934   .     S
O1396  Zn1444  1.913   .     S
O1397  Zn1456  1.915   .     S
O1398  Zn1442  1.915   .     S
O1399  Zn1447  1.913   .     S
O1400  Zn1448  1.913   .     S
O1401  Zn1445  1.915   .     S
O1402  Zn1446  1.915   .     S
O1403  Zn1087  1.915   1_655 S
O1404  Zn1450  1.915   .     S
O1405  Zn725   1.913   1_565 S
O1406  Zn1445  1.934   .     S
O1406  Zn1451  1.934   .     S
O1406  Zn1455  1.934   .     S
O1407  Zn1452  1.913   .     S
O1408  Zn1455  1.915   .     S
O1409  Zn1090  1.915   1_655 S
O1410  Zn1449  1.913   .     S
O1411  Zn713   1.913   1_565 S
O1412  Zn1086  1.913   1_655 S
O1413  Zn1451  1.913   .     S
O1414  Zn1441  1.915   .     S
O1415  Zn721   1.915   1_565 S
O1416  Zn1454  1.913   .     S
O1417  Zn1448  1.946   .     S
O1418  Zn1091  1.913   1_655 S
O1419  Zn724   1.915   1_565 S
O1420  Zn1453  1.915   .     S
O1428  Zn1447  1.946   .     S
O1438  Zn1442  1.946   .     S
O1439  Zn1456  1.946   .     S
O1439  C815    1.271   1_655 S
O1440  Zn1444  1.946   .     S
Zn1443 O656    1.934   1_565 S
Zn1446 O1031   1.934   1_655 S
Zn1448 O645    1.934   1_565 S
Zn1456 O1042   1.934   1_655 S
