data_str_m1_o10_o18_pcu_sym.232
_audit_creation_date              2020-01-03
_audit_creation_method            'Materials Studio'
_symmetry_space_group_name_H-M    'P1'
_symmetry_Int_Tables_number       1
_symmetry_cell_setting            triclinic
loop_
_symmetry_equiv_pos_as_xyz
  x,y,z
_cell_length_a                    32.6428
_cell_length_b                    32.7231
_cell_length_c                    35.4147
_cell_angle_alpha                 98.9028
_cell_angle_beta                  73.1192
_cell_angle_gamma                 99.1400
loop_
_atom_site_label
_atom_site_type_symbol
_atom_site_fract_x
_atom_site_fract_y
_atom_site_fract_z
_atom_site_U_iso_or_equiv
_atom_site_adp_type
_atom_site_occupancy
C1     C     0.05254   0.15929   0.25861   0.00000  Uiso   1.00
C2     C     0.18684   0.11898   0.45962   0.00000  Uiso   1.00
C3     C     0.21129   0.10138   0.47812   0.00000  Uiso   1.00
C4     C     0.28094   0.17427   0.24185   0.00000  Uiso   1.00
C5     C     0.20510   0.10966   0.01971   0.00000  Uiso   1.00
C6     C     0.17816   0.14039   0.04100   0.00000  Uiso   1.00
C7     C     0.22350   0.08742   0.04112   0.00000  Uiso   1.00
C8     C     0.21894   0.09955   0.08197   0.00000  Uiso   1.00
C9     C     0.17883   0.15501   0.08025   0.00000  Uiso   1.00
C10    C     0.32616   0.18060   0.24230   0.00000  Uiso   1.00
C11    C     0.00708   0.15424   0.26024   0.00000  Uiso   1.00
C12    C     0.09767   0.21608   0.42321   0.00000  Uiso   1.00
C13    C     0.18255   0.32277   0.24138   0.00000  Uiso   1.00
C14    C     0.15000   0.01230   0.26084   0.00000  Uiso   1.00
C15    C     0.15557   0.05626   0.25876   0.00000  Uiso   1.00
C16    C     0.17702   0.27772   0.24176   0.00000  Uiso   1.00
C17    C     0.18808   0.14507   0.14387   0.00000  Uiso   1.00
C18    C     0.14537   0.18805   0.35650   0.00000  Uiso   1.00
C19    C     0.13326   0.19513   0.40081   0.00000  Uiso   1.00
C20    C     0.19746   0.13414   0.10095   0.00000  Uiso   1.00
C21    C     0.08497   0.21812   0.46495   0.00000  Uiso   1.00
C22    C     0.04844   0.20404   0.05068   0.00000  Uiso   1.00
C23    C     0.15810   0.18042   0.42110   0.00000  Uiso   1.00
C24    C     0.24337   0.04990   0.02299   0.00000  Uiso   1.00
C25    C     0.02052   0.21588   0.22457   0.00000  Uiso   1.00
C26    C     0.32652   0.09679   0.29665   0.00000  Uiso   1.00
C27    C     0.28921   0.06413   0.31334   0.00000  Uiso   1.00
C28    C     0.30214   0.03584   0.33727   0.00000  Uiso   1.00
C29    C     0.22449   0.00898   0.22041   0.00000  Uiso   1.00
C30    C     0.10617   0.32800   0.27885   0.00000  Uiso   1.00
C31    C     0.23618   0.07656   0.10458   0.00000  Uiso   1.00
C32    C     0.28307   0.09644   0.44796   0.00000  Uiso   1.00
C33    C     0.29216   0.12890   0.41869   0.00000  Uiso   1.00
C34    C     0.14088   0.17437   0.46179   0.00000  Uiso   1.00
C35    C     0.00691   0.14400   0.40521   0.00000  Uiso   1.00
C36    C     0.05314   0.24591   0.48655   0.00000  Uiso   1.00
C37    C     0.07459   0.23718   0.40405   0.00000  Uiso   1.00
C38    C     0.22699   0.21273   0.39999   0.00000  Uiso   1.00
C39    C     0.26592   0.20942   0.36358   0.00000  Uiso   1.00
C40    C     0.29637   0.24998   0.36065   0.00000  Uiso   1.00
C41    C     0.07338   0.13135   0.09215   0.00000  Uiso   1.00
C42    C     0.05280   0.13103   0.13680   0.00000  Uiso   1.00
C43    C     0.02857   0.08850   0.14674   0.00000  Uiso   1.00
C44    C     0.15463   0.06915   0.42162   0.00000  Uiso   1.00
C45    C     0.10451   0.19490   0.48459   0.00000  Uiso   1.00
C46    C     0.16066   0.04657   0.37962   0.00000  Uiso   1.00
C47    C     0.12758   0.00813   0.37870   0.00000  Uiso   1.00
C48    C     0.16047   0.15036   0.48072   0.00000  Uiso   1.00
C49    C     0.15144   0.15610   0.02259   0.00000  Uiso   1.00
C50    C     0.11304   0.17320   0.04488   0.00000  Uiso   1.00
C51    C     0.08940   0.19145   0.02606   0.00000  Uiso   1.00
H52    H     0.16423   0.18256   0.09560   0.00000  Uiso   1.00
H53    H     0.29028   0.11150   0.47613   0.00000  Uiso   1.00
H54    H     0.28055   0.11527   0.39245   0.00000  Uiso   1.00
H55    H     0.27465   0.15610   0.43326   0.00000  Uiso   1.00
H56    H     0.01875   0.15798   0.43129   0.00000  Uiso   1.00
H57    H     0.01255   0.16789   0.38460   0.00000  Uiso   1.00
H58    H     0.02538   0.11776   0.38946   0.00000  Uiso   1.00
H59    H     0.23817   0.21972   0.42738   0.00000  Uiso   1.00
H60    H     0.21036   0.23923   0.39779   0.00000  Uiso   1.00
H61    H     0.28371   0.18379   0.36508   0.00000  Uiso   1.00
H62    H     0.25461   0.20205   0.33633   0.00000  Uiso   1.00
H63    H     0.33312   0.11940   0.32175   0.00000  Uiso   1.00
H64    H     0.27992   0.27529   0.35615   0.00000  Uiso   1.00
H65    H     0.32518   0.24589   0.33499   0.00000  Uiso   1.00
H66    H     0.30695   0.25895   0.38820   0.00000  Uiso   1.00
H67    H     0.09520   0.10657   0.08155   0.00000  Uiso   1.00
H68    H     0.04732   0.12457   0.07674   0.00000  Uiso   1.00
H69    H     0.07829   0.13921   0.15270   0.00000  Uiso   1.00
H70    H     0.02994   0.15484   0.14737   0.00000  Uiso   1.00
H71    H     0.00269   0.07981   0.13140   0.00000  Uiso   1.00
H72    H     0.01366   0.08968   0.17929   0.00000  Uiso   1.00
H73    H     0.05109   0.06441   0.13753   0.00000  Uiso   1.00
H74    H     0.02217   0.08083   0.28103   0.00000  Uiso   1.00
H75    H     0.12245   0.08074   0.43182   0.00000  Uiso   1.00
H76    H     0.15600   0.04643   0.44158   0.00000  Uiso   1.00
H77    H     0.15749   0.06811   0.35952   0.00000  Uiso   1.00
H78    H     0.19351   0.03668   0.36864   0.00000  Uiso   1.00
H79    H     0.12995   0.31984   0.39905   0.00000  Uiso   1.00
H80    H     0.13396   0.32485   0.34818   0.00000  Uiso   1.00
H81    H     0.09446   0.01731   0.38766   0.00000  Uiso   1.00
H82    H     0.26157   0.08017   0.33253   0.00000  Uiso   1.00
H83    H     0.27852   0.04454   0.28855   0.00000  Uiso   1.00
H84    H     0.32583   0.01574   0.31726   0.00000  Uiso   1.00
H85    H     0.27317   0.01565   0.35229   0.00000  Uiso   1.00
H86    H     0.31666   0.05441   0.36014   0.00000  Uiso   1.00
H87    H     0.30558   0.07254   0.43540   0.00000  Uiso   1.00
N88    N     0.01574   0.21370   0.07071   0.00000  Uiso   1.00
N89    N     0.25917   0.01991   0.00871   0.00000  Uiso   1.00
N90    N     0.04261   0.24400   0.21042   0.00000  Uiso   1.00
N91    N     0.25791   0.02456   0.20380   0.00000  Uiso   1.00
N92    N     0.07121   0.31401   0.29323   0.00000  Uiso   1.00
N93    N     0.24987   0.05822   0.12263   0.00000  Uiso   1.00
N94    N     0.02790   0.26830   0.00328   0.00000  Uiso   1.00
N95    N     0.05619   0.25408   0.38890   0.00000  Uiso   1.00
O96    O     0.16667   0.16667   0.25000   0.00000  Uiso   1.00
O97    O     0.15693   0.12393   0.16625   0.00000  Uiso   1.00
O98    O     0.12687   0.20646   0.33749   0.00000  Uiso   1.00
O99    O     0.21088   0.17493   0.15877   0.00000  Uiso   1.00
O100   O     0.17198   0.16135   0.33749   0.00000  Uiso   1.00
O101   O     0.31459   0.11671   0.26949   0.00000  Uiso   1.00
O102   O     0.24058   0.07535   0.45426   0.00000  Uiso   1.00
O103   O     0.20033   0.17411   0.40125   0.00000  Uiso   1.00
O104   O     0.09675   0.17099   0.08542   0.00000  Uiso   1.00
O105   O     0.18752   0.10293   0.42096   0.00000  Uiso   1.00
O106   O     0.17849   0.08101   0.27821   0.00000  Uiso   1.00
O107   O     0.14581   0.26136   0.26767   0.00000  Uiso   1.00
O108   O     0.07452   0.13251   0.23607   0.00000  Uiso   1.00
O109   O     0.26785   0.19179   0.21806   0.00000  Uiso   1.00
O110   O     0.06990   0.18960   0.27820   0.00000  Uiso   1.00
O111   O     0.25440   0.15277   0.26768   0.00000  Uiso   1.00
O112   O     0.13800   0.06903   0.23607   0.00000  Uiso   1.00
O113   O     0.20437   0.25527   0.21806   0.00000  Uiso   1.00
Zn114  Zn    0.19244   0.14090   0.28278   0.00000  Uiso   1.00
Zn115  Zn    0.13459   0.12378   0.22258   0.00000  Uiso   1.00
Zn116  Zn    0.21166   0.19664   0.21188   0.00000  Uiso   1.00
Zn117  Zn    0.12798   0.20535   0.28277   0.00000  Uiso   1.00
C118   C     0.38587   0.15929   0.25861   0.00000  Uiso   1.00
C119   C     0.52017   0.11898   0.45962   0.00000  Uiso   1.00
C120   C     0.54462   0.10138   0.47812   0.00000  Uiso   1.00
C121   C     0.61427   0.17427   0.24185   0.00000  Uiso   1.00
C122   C     0.53844   0.10966   0.01971   0.00000  Uiso   1.00
C123   C     0.51149   0.14039   0.04100   0.00000  Uiso   1.00
C124   C     0.55683   0.08742   0.04112   0.00000  Uiso   1.00
C125   C     0.55227   0.09955   0.08197   0.00000  Uiso   1.00
C126   C     0.51216   0.15501   0.08025   0.00000  Uiso   1.00
C127   C     0.65950   0.18060   0.24230   0.00000  Uiso   1.00
C128   C     0.34041   0.15424   0.26024   0.00000  Uiso   1.00
C129   C     0.43101   0.21608   0.42321   0.00000  Uiso   1.00
C130   C     0.51589   0.32277   0.24138   0.00000  Uiso   1.00
C131   C     0.48333   0.01230   0.26084   0.00000  Uiso   1.00
C132   C     0.48890   0.05626   0.25876   0.00000  Uiso   1.00
C133   C     0.51036   0.27772   0.24176   0.00000  Uiso   1.00
C134   C     0.52141   0.14507   0.14387   0.00000  Uiso   1.00
C135   C     0.47870   0.18805   0.35650   0.00000  Uiso   1.00
C136   C     0.46660   0.19513   0.40081   0.00000  Uiso   1.00
C137   C     0.53079   0.13414   0.10095   0.00000  Uiso   1.00
C138   C     0.41830   0.21812   0.46495   0.00000  Uiso   1.00
C139   C     0.38177   0.20404   0.05068   0.00000  Uiso   1.00
C140   C     0.49143   0.18042   0.42110   0.00000  Uiso   1.00
C141   C     0.57670   0.04990   0.02299   0.00000  Uiso   1.00
C142   C     0.35385   0.21588   0.22457   0.00000  Uiso   1.00
C143   C     0.65985   0.09679   0.29665   0.00000  Uiso   1.00
C144   C     0.62255   0.06413   0.31334   0.00000  Uiso   1.00
C145   C     0.63547   0.03584   0.33727   0.00000  Uiso   1.00
C146   C     0.55782   0.00898   0.22041   0.00000  Uiso   1.00
C147   C     0.43950   0.32800   0.27885   0.00000  Uiso   1.00
C148   C     0.56952   0.07656   0.10458   0.00000  Uiso   1.00
C149   C     0.61641   0.09644   0.44796   0.00000  Uiso   1.00
C150   C     0.62550   0.12890   0.41869   0.00000  Uiso   1.00
C151   C     0.47422   0.17437   0.46179   0.00000  Uiso   1.00
C152   C     0.34024   0.14400   0.40521   0.00000  Uiso   1.00
C153   C     0.38648   0.24591   0.48655   0.00000  Uiso   1.00
C154   C     0.40792   0.23718   0.40405   0.00000  Uiso   1.00
C155   C     0.56032   0.21273   0.39999   0.00000  Uiso   1.00
C156   C     0.59926   0.20942   0.36358   0.00000  Uiso   1.00
C157   C     0.62971   0.24998   0.36065   0.00000  Uiso   1.00
C158   C     0.40671   0.13135   0.09215   0.00000  Uiso   1.00
C159   C     0.38613   0.13103   0.13680   0.00000  Uiso   1.00
C160   C     0.36190   0.08850   0.14674   0.00000  Uiso   1.00
C161   C     0.48796   0.06915   0.42162   0.00000  Uiso   1.00
C162   C     0.43784   0.19490   0.48459   0.00000  Uiso   1.00
C163   C     0.49400   0.04657   0.37962   0.00000  Uiso   1.00
C164   C     0.46091   0.00813   0.37870   0.00000  Uiso   1.00
C165   C     0.49380   0.15036   0.48072   0.00000  Uiso   1.00
C166   C     0.48478   0.15610   0.02259   0.00000  Uiso   1.00
C167   C     0.44637   0.17320   0.04488   0.00000  Uiso   1.00
C168   C     0.42273   0.19145   0.02606   0.00000  Uiso   1.00
H169   H     0.49757   0.18256   0.09560   0.00000  Uiso   1.00
H170   H     0.62362   0.11150   0.47613   0.00000  Uiso   1.00
H171   H     0.61388   0.11527   0.39245   0.00000  Uiso   1.00
H172   H     0.60798   0.15610   0.43326   0.00000  Uiso   1.00
H173   H     0.35208   0.15798   0.43129   0.00000  Uiso   1.00
H174   H     0.34588   0.16789   0.38460   0.00000  Uiso   1.00
H175   H     0.35871   0.11776   0.38946   0.00000  Uiso   1.00
H176   H     0.57150   0.21972   0.42738   0.00000  Uiso   1.00
H177   H     0.54369   0.23923   0.39779   0.00000  Uiso   1.00
H178   H     0.61704   0.18379   0.36508   0.00000  Uiso   1.00
H179   H     0.58795   0.20205   0.33633   0.00000  Uiso   1.00
H180   H     0.66646   0.11940   0.32175   0.00000  Uiso   1.00
H181   H     0.61325   0.27529   0.35615   0.00000  Uiso   1.00
H182   H     0.65851   0.24589   0.33499   0.00000  Uiso   1.00
H183   H     0.64028   0.25895   0.38820   0.00000  Uiso   1.00
H184   H     0.42853   0.10657   0.08155   0.00000  Uiso   1.00
H185   H     0.38065   0.12457   0.07674   0.00000  Uiso   1.00
H186   H     0.41162   0.13921   0.15270   0.00000  Uiso   1.00
H187   H     0.36328   0.15484   0.14737   0.00000  Uiso   1.00
H188   H     0.33602   0.07981   0.13140   0.00000  Uiso   1.00
H189   H     0.34700   0.08968   0.17929   0.00000  Uiso   1.00
H190   H     0.38442   0.06441   0.13753   0.00000  Uiso   1.00
H191   H     0.35550   0.08083   0.28103   0.00000  Uiso   1.00
H192   H     0.45579   0.08074   0.43182   0.00000  Uiso   1.00
H193   H     0.48933   0.04643   0.44158   0.00000  Uiso   1.00
H194   H     0.49082   0.06811   0.35952   0.00000  Uiso   1.00
H195   H     0.52685   0.03668   0.36864   0.00000  Uiso   1.00
H196   H     0.46328   0.31984   0.39905   0.00000  Uiso   1.00
H197   H     0.46729   0.32485   0.34818   0.00000  Uiso   1.00
H198   H     0.42780   0.01731   0.38766   0.00000  Uiso   1.00
H199   H     0.59490   0.08017   0.33253   0.00000  Uiso   1.00
H200   H     0.61186   0.04454   0.28855   0.00000  Uiso   1.00
H201   H     0.65916   0.01574   0.31726   0.00000  Uiso   1.00
H202   H     0.60650   0.01565   0.35229   0.00000  Uiso   1.00
H203   H     0.64999   0.05441   0.36014   0.00000  Uiso   1.00
H204   H     0.63892   0.07254   0.43540   0.00000  Uiso   1.00
N205   N     0.34907   0.21370   0.07071   0.00000  Uiso   1.00
N206   N     0.59250   0.01991   0.00871   0.00000  Uiso   1.00
N207   N     0.37595   0.24400   0.21042   0.00000  Uiso   1.00
N208   N     0.59124   0.02456   0.20380   0.00000  Uiso   1.00
N209   N     0.40454   0.31401   0.29323   0.00000  Uiso   1.00
N210   N     0.58320   0.05822   0.12263   0.00000  Uiso   1.00
N211   N     0.36124   0.26830   0.00328   0.00000  Uiso   1.00
N212   N     0.38952   0.25408   0.38890   0.00000  Uiso   1.00
O213   O     0.50000   0.16667   0.25000   0.00000  Uiso   1.00
O214   O     0.49027   0.12393   0.16625   0.00000  Uiso   1.00
O215   O     0.46020   0.20646   0.33749   0.00000  Uiso   1.00
O216   O     0.54421   0.17493   0.15877   0.00000  Uiso   1.00
O217   O     0.50532   0.16135   0.33749   0.00000  Uiso   1.00
O218   O     0.64793   0.11671   0.26949   0.00000  Uiso   1.00
O219   O     0.57391   0.07535   0.45426   0.00000  Uiso   1.00
O220   O     0.53367   0.17411   0.40125   0.00000  Uiso   1.00
O221   O     0.43008   0.17099   0.08542   0.00000  Uiso   1.00
O222   O     0.52085   0.10293   0.42096   0.00000  Uiso   1.00
O223   O     0.51182   0.08101   0.27821   0.00000  Uiso   1.00
O224   O     0.47914   0.26136   0.26767   0.00000  Uiso   1.00
O225   O     0.40785   0.13251   0.23607   0.00000  Uiso   1.00
O226   O     0.60119   0.19179   0.21806   0.00000  Uiso   1.00
O227   O     0.40323   0.18960   0.27820   0.00000  Uiso   1.00
O228   O     0.58773   0.15277   0.26768   0.00000  Uiso   1.00
O229   O     0.47133   0.06903   0.23607   0.00000  Uiso   1.00
O230   O     0.53771   0.25527   0.21806   0.00000  Uiso   1.00
Zn231  Zn    0.52577   0.14090   0.28278   0.00000  Uiso   1.00
Zn232  Zn    0.46792   0.12378   0.22258   0.00000  Uiso   1.00
Zn233  Zn    0.54500   0.19664   0.21188   0.00000  Uiso   1.00
Zn234  Zn    0.46131   0.20535   0.28277   0.00000  Uiso   1.00
C235   C     0.71921   0.15929   0.25861   0.00000  Uiso   1.00
C236   C     0.85350   0.11898   0.45962   0.00000  Uiso   1.00
C237   C     0.87796   0.10138   0.47812   0.00000  Uiso   1.00
C238   C     0.94761   0.17427   0.24185   0.00000  Uiso   1.00
C239   C     0.87177   0.10966   0.01971   0.00000  Uiso   1.00
C240   C     0.84482   0.14039   0.04100   0.00000  Uiso   1.00
C241   C     0.89016   0.08742   0.04112   0.00000  Uiso   1.00
C242   C     0.88561   0.09955   0.08197   0.00000  Uiso   1.00
C243   C     0.84550   0.15501   0.08025   0.00000  Uiso   1.00
C244   C     0.99283   0.18060   0.24230   0.00000  Uiso   1.00
C245   C     0.67375   0.15424   0.26024   0.00000  Uiso   1.00
C246   C     0.76434   0.21608   0.42321   0.00000  Uiso   1.00
C247   C     0.84922   0.32277   0.24138   0.00000  Uiso   1.00
C248   C     0.81667   0.01230   0.26084   0.00000  Uiso   1.00
C249   C     0.82224   0.05626   0.25876   0.00000  Uiso   1.00
C250   C     0.84369   0.27772   0.24176   0.00000  Uiso   1.00
C251   C     0.85474   0.14507   0.14387   0.00000  Uiso   1.00
C252   C     0.81203   0.18805   0.35650   0.00000  Uiso   1.00
C253   C     0.79993   0.19513   0.40081   0.00000  Uiso   1.00
C254   C     0.86413   0.13414   0.10095   0.00000  Uiso   1.00
C255   C     0.75163   0.21812   0.46495   0.00000  Uiso   1.00
C256   C     0.71510   0.20404   0.05068   0.00000  Uiso   1.00
C257   C     0.82476   0.18042   0.42110   0.00000  Uiso   1.00
C258   C     0.91004   0.04990   0.02299   0.00000  Uiso   1.00
C259   C     0.68718   0.21588   0.22457   0.00000  Uiso   1.00
C260   C     0.99319   0.09679   0.29665   0.00000  Uiso   1.00
C261   C     0.95588   0.06413   0.31334   0.00000  Uiso   1.00
C262   C     0.96881   0.03584   0.33727   0.00000  Uiso   1.00
C263   C     0.89115   0.00898   0.22041   0.00000  Uiso   1.00
C264   C     0.77283   0.32800   0.27885   0.00000  Uiso   1.00
C265   C     0.90285   0.07656   0.10458   0.00000  Uiso   1.00
C266   C     0.94974   0.09644   0.44796   0.00000  Uiso   1.00
C267   C     0.95883   0.12890   0.41869   0.00000  Uiso   1.00
C268   C     0.80755   0.17437   0.46179   0.00000  Uiso   1.00
C269   C     0.67357   0.14400   0.40521   0.00000  Uiso   1.00
C270   C     0.71981   0.24591   0.48655   0.00000  Uiso   1.00
C271   C     0.74126   0.23718   0.40405   0.00000  Uiso   1.00
C272   C     0.89366   0.21273   0.39999   0.00000  Uiso   1.00
C273   C     0.93259   0.20942   0.36358   0.00000  Uiso   1.00
C274   C     0.96304   0.24998   0.36065   0.00000  Uiso   1.00
C275   C     0.74005   0.13135   0.09215   0.00000  Uiso   1.00
C276   C     0.71947   0.13103   0.13680   0.00000  Uiso   1.00
C277   C     0.69524   0.08850   0.14674   0.00000  Uiso   1.00
C278   C     0.82129   0.06915   0.42162   0.00000  Uiso   1.00
C279   C     0.77118   0.19490   0.48459   0.00000  Uiso   1.00
C280   C     0.82733   0.04657   0.37962   0.00000  Uiso   1.00
C281   C     0.79425   0.00813   0.37870   0.00000  Uiso   1.00
C282   C     0.82714   0.15036   0.48072   0.00000  Uiso   1.00
C283   C     0.81811   0.15610   0.02259   0.00000  Uiso   1.00
C284   C     0.77970   0.17320   0.04488   0.00000  Uiso   1.00
C285   C     0.75607   0.19145   0.02606   0.00000  Uiso   1.00
H286   H     0.83090   0.18256   0.09560   0.00000  Uiso   1.00
H287   H     0.95695   0.11150   0.47613   0.00000  Uiso   1.00
H288   H     0.94722   0.11527   0.39245   0.00000  Uiso   1.00
H289   H     0.94132   0.15610   0.43326   0.00000  Uiso   1.00
H290   H     0.68542   0.15798   0.43129   0.00000  Uiso   1.00
H291   H     0.67922   0.16789   0.38460   0.00000  Uiso   1.00
H292   H     0.69205   0.11776   0.38946   0.00000  Uiso   1.00
H293   H     0.90484   0.21972   0.42738   0.00000  Uiso   1.00
H294   H     0.87703   0.23923   0.39779   0.00000  Uiso   1.00
H295   H     0.95038   0.18379   0.36508   0.00000  Uiso   1.00
H296   H     0.92128   0.20205   0.33633   0.00000  Uiso   1.00
H297   H     0.99979   0.11940   0.32175   0.00000  Uiso   1.00
H298   H     0.94658   0.27529   0.35615   0.00000  Uiso   1.00
H299   H     0.99185   0.24589   0.33499   0.00000  Uiso   1.00
H300   H     0.97361   0.25895   0.38820   0.00000  Uiso   1.00
H301   H     0.76186   0.10657   0.08155   0.00000  Uiso   1.00
H302   H     0.71399   0.12457   0.07674   0.00000  Uiso   1.00
H303   H     0.74496   0.13921   0.15270   0.00000  Uiso   1.00
H304   H     0.69661   0.15484   0.14737   0.00000  Uiso   1.00
H305   H     0.66935   0.07981   0.13140   0.00000  Uiso   1.00
H306   H     0.68033   0.08968   0.17929   0.00000  Uiso   1.00
H307   H     0.71775   0.06441   0.13753   0.00000  Uiso   1.00
H308   H     0.68883   0.08083   0.28103   0.00000  Uiso   1.00
H309   H     0.78912   0.08074   0.43182   0.00000  Uiso   1.00
H310   H     0.82266   0.04643   0.44158   0.00000  Uiso   1.00
H311   H     0.82416   0.06811   0.35952   0.00000  Uiso   1.00
H312   H     0.86018   0.03668   0.36864   0.00000  Uiso   1.00
H313   H     0.79661   0.31984   0.39905   0.00000  Uiso   1.00
H314   H     0.80062   0.32485   0.34818   0.00000  Uiso   1.00
H315   H     0.76113   0.01731   0.38766   0.00000  Uiso   1.00
H316   H     0.92824   0.08017   0.33253   0.00000  Uiso   1.00
H317   H     0.94519   0.04454   0.28855   0.00000  Uiso   1.00
H318   H     0.99250   0.01574   0.31726   0.00000  Uiso   1.00
H319   H     0.93983   0.01565   0.35229   0.00000  Uiso   1.00
H320   H     0.98332   0.05441   0.36014   0.00000  Uiso   1.00
H321   H     0.97225   0.07254   0.43540   0.00000  Uiso   1.00
N322   N     0.68240   0.21370   0.07071   0.00000  Uiso   1.00
N323   N     0.92583   0.01991   0.00871   0.00000  Uiso   1.00
N324   N     0.70928   0.24400   0.21042   0.00000  Uiso   1.00
N325   N     0.92457   0.02456   0.20380   0.00000  Uiso   1.00
N326   N     0.73788   0.31401   0.29323   0.00000  Uiso   1.00
N327   N     0.91653   0.05822   0.12263   0.00000  Uiso   1.00
N328   N     0.69457   0.26830   0.00328   0.00000  Uiso   1.00
N329   N     0.72285   0.25408   0.38890   0.00000  Uiso   1.00
O330   O     0.83333   0.16667   0.25000   0.00000  Uiso   1.00
O331   O     0.82360   0.12393   0.16625   0.00000  Uiso   1.00
O332   O     0.79354   0.20646   0.33749   0.00000  Uiso   1.00
O333   O     0.87755   0.17493   0.15877   0.00000  Uiso   1.00
O334   O     0.83865   0.16135   0.33749   0.00000  Uiso   1.00
O335   O     0.98126   0.11671   0.26949   0.00000  Uiso   1.00
O336   O     0.90724   0.07535   0.45426   0.00000  Uiso   1.00
O337   O     0.86700   0.17411   0.40125   0.00000  Uiso   1.00
O338   O     0.76341   0.17099   0.08542   0.00000  Uiso   1.00
O339   O     0.85419   0.10293   0.42096   0.00000  Uiso   1.00
O340   O     0.84515   0.08101   0.27821   0.00000  Uiso   1.00
O341   O     0.81247   0.26136   0.26767   0.00000  Uiso   1.00
O342   O     0.74119   0.13251   0.23607   0.00000  Uiso   1.00
O343   O     0.93452   0.19179   0.21806   0.00000  Uiso   1.00
O344   O     0.73656   0.18960   0.27820   0.00000  Uiso   1.00
O345   O     0.92106   0.15277   0.26768   0.00000  Uiso   1.00
O346   O     0.80467   0.06903   0.23607   0.00000  Uiso   1.00
O347   O     0.87104   0.25527   0.21806   0.00000  Uiso   1.00
Zn348  Zn    0.85910   0.14090   0.28278   0.00000  Uiso   1.00
Zn349  Zn    0.80125   0.12378   0.22258   0.00000  Uiso   1.00
Zn350  Zn    0.87833   0.19664   0.21188   0.00000  Uiso   1.00
Zn351  Zn    0.79465   0.20535   0.28277   0.00000  Uiso   1.00
C352   C     0.05254   0.49262   0.25861   0.00000  Uiso   1.00
C353   C     0.18684   0.45232   0.45962   0.00000  Uiso   1.00
C354   C     0.21129   0.43471   0.47812   0.00000  Uiso   1.00
C355   C     0.28094   0.50760   0.24185   0.00000  Uiso   1.00
C356   C     0.20510   0.44299   0.01971   0.00000  Uiso   1.00
C357   C     0.17816   0.47372   0.04100   0.00000  Uiso   1.00
C358   C     0.22350   0.42076   0.04112   0.00000  Uiso   1.00
C359   C     0.21894   0.43288   0.08197   0.00000  Uiso   1.00
C360   C     0.17883   0.48835   0.08025   0.00000  Uiso   1.00
C361   C     0.32616   0.51393   0.24230   0.00000  Uiso   1.00
C362   C     0.00708   0.48757   0.26024   0.00000  Uiso   1.00
C363   C     0.09767   0.54942   0.42321   0.00000  Uiso   1.00
C364   C     0.18255   0.65610   0.24138   0.00000  Uiso   1.00
C365   C     0.15000   0.34563   0.26084   0.00000  Uiso   1.00
C366   C     0.15557   0.38959   0.25876   0.00000  Uiso   1.00
C367   C     0.17702   0.61106   0.24176   0.00000  Uiso   1.00
C368   C     0.18808   0.47840   0.14387   0.00000  Uiso   1.00
C369   C     0.14537   0.52138   0.35650   0.00000  Uiso   1.00
C370   C     0.13326   0.52846   0.40081   0.00000  Uiso   1.00
C371   C     0.19746   0.46747   0.10095   0.00000  Uiso   1.00
C372   C     0.08497   0.55146   0.46495   0.00000  Uiso   1.00
C373   C     0.04844   0.53737   0.05068   0.00000  Uiso   1.00
C374   C     0.15810   0.51375   0.42110   0.00000  Uiso   1.00
C375   C     0.24337   0.38323   0.02299   0.00000  Uiso   1.00
C376   C     0.02052   0.54922   0.22457   0.00000  Uiso   1.00
C377   C     0.32652   0.43012   0.29665   0.00000  Uiso   1.00
C378   C     0.28921   0.39747   0.31334   0.00000  Uiso   1.00
C379   C     0.30214   0.36917   0.33727   0.00000  Uiso   1.00
C380   C     0.22449   0.34231   0.22041   0.00000  Uiso   1.00
C381   C     0.10617   0.66133   0.27885   0.00000  Uiso   1.00
C382   C     0.23618   0.40990   0.10458   0.00000  Uiso   1.00
C383   C     0.28307   0.42977   0.44796   0.00000  Uiso   1.00
C384   C     0.29216   0.46223   0.41869   0.00000  Uiso   1.00
C385   C     0.14088   0.50770   0.46179   0.00000  Uiso   1.00
C386   C     0.00691   0.47734   0.40521   0.00000  Uiso   1.00
C387   C     0.05314   0.57924   0.48655   0.00000  Uiso   1.00
C388   C     0.07459   0.57051   0.40405   0.00000  Uiso   1.00
C389   C     0.22699   0.54606   0.39999   0.00000  Uiso   1.00
C390   C     0.26592   0.54275   0.36358   0.00000  Uiso   1.00
C391   C     0.29637   0.58331   0.36065   0.00000  Uiso   1.00
C392   C     0.07338   0.46468   0.09215   0.00000  Uiso   1.00
C393   C     0.05280   0.46436   0.13680   0.00000  Uiso   1.00
C394   C     0.02857   0.42184   0.14674   0.00000  Uiso   1.00
C395   C     0.15463   0.40248   0.42162   0.00000  Uiso   1.00
C396   C     0.10451   0.52823   0.48459   0.00000  Uiso   1.00
C397   C     0.16066   0.37990   0.37962   0.00000  Uiso   1.00
C398   C     0.12758   0.34146   0.37870   0.00000  Uiso   1.00
C399   C     0.16047   0.48369   0.48072   0.00000  Uiso   1.00
C400   C     0.15144   0.48943   0.02259   0.00000  Uiso   1.00
C401   C     0.11304   0.50653   0.04488   0.00000  Uiso   1.00
C402   C     0.08940   0.52478   0.02606   0.00000  Uiso   1.00
H403   H     0.16423   0.51589   0.09560   0.00000  Uiso   1.00
H404   H     0.29028   0.44483   0.47613   0.00000  Uiso   1.00
H405   H     0.28055   0.44860   0.39245   0.00000  Uiso   1.00
H406   H     0.27465   0.48944   0.43326   0.00000  Uiso   1.00
H407   H     0.01875   0.49132   0.43129   0.00000  Uiso   1.00
H408   H     0.01255   0.50122   0.38460   0.00000  Uiso   1.00
H409   H     0.02538   0.45109   0.38946   0.00000  Uiso   1.00
H410   H     0.23817   0.55305   0.42738   0.00000  Uiso   1.00
H411   H     0.21036   0.57257   0.39779   0.00000  Uiso   1.00
H412   H     0.28371   0.51712   0.36508   0.00000  Uiso   1.00
H413   H     0.25461   0.53538   0.33633   0.00000  Uiso   1.00
H414   H     0.33312   0.45273   0.32175   0.00000  Uiso   1.00
H415   H     0.27992   0.60862   0.35615   0.00000  Uiso   1.00
H416   H     0.32518   0.57922   0.33499   0.00000  Uiso   1.00
H417   H     0.30695   0.59228   0.38820   0.00000  Uiso   1.00
H418   H     0.09520   0.43990   0.08155   0.00000  Uiso   1.00
H419   H     0.04732   0.45790   0.07674   0.00000  Uiso   1.00
H420   H     0.07829   0.47255   0.15270   0.00000  Uiso   1.00
H421   H     0.02994   0.48817   0.14737   0.00000  Uiso   1.00
H422   H     0.00269   0.41314   0.13140   0.00000  Uiso   1.00
H423   H     0.01366   0.42302   0.17929   0.00000  Uiso   1.00
H424   H     0.05109   0.39774   0.13753   0.00000  Uiso   1.00
H425   H     0.02217   0.41416   0.28103   0.00000  Uiso   1.00
H426   H     0.12245   0.41408   0.43182   0.00000  Uiso   1.00
H427   H     0.15600   0.37976   0.44158   0.00000  Uiso   1.00
H428   H     0.15749   0.40144   0.35952   0.00000  Uiso   1.00
H429   H     0.19351   0.37001   0.36864   0.00000  Uiso   1.00
H430   H     0.12995   0.65318   0.39905   0.00000  Uiso   1.00
H431   H     0.13396   0.65818   0.34818   0.00000  Uiso   1.00
H432   H     0.09446   0.35064   0.38766   0.00000  Uiso   1.00
H433   H     0.26157   0.41350   0.33253   0.00000  Uiso   1.00
H434   H     0.27852   0.37787   0.28855   0.00000  Uiso   1.00
H435   H     0.32583   0.34907   0.31726   0.00000  Uiso   1.00
H436   H     0.27317   0.34899   0.35229   0.00000  Uiso   1.00
H437   H     0.31666   0.38774   0.36014   0.00000  Uiso   1.00
H438   H     0.30558   0.40588   0.43540   0.00000  Uiso   1.00
N439   N     0.01574   0.54703   0.07071   0.00000  Uiso   1.00
N440   N     0.25917   0.35324   0.00871   0.00000  Uiso   1.00
N441   N     0.04261   0.57733   0.21042   0.00000  Uiso   1.00
N442   N     0.25791   0.35790   0.20380   0.00000  Uiso   1.00
N443   N     0.07121   0.64735   0.29323   0.00000  Uiso   1.00
N444   N     0.24987   0.39155   0.12263   0.00000  Uiso   1.00
N445   N     0.02790   0.60163   0.00328   0.00000  Uiso   1.00
N446   N     0.05619   0.58741   0.38890   0.00000  Uiso   1.00
O447   O     0.16667   0.50000   0.25000   0.00000  Uiso   1.00
O448   O     0.15693   0.45726   0.16625   0.00000  Uiso   1.00
O449   O     0.12687   0.53979   0.33749   0.00000  Uiso   1.00
O450   O     0.21088   0.50826   0.15877   0.00000  Uiso   1.00
O451   O     0.17198   0.49468   0.33749   0.00000  Uiso   1.00
O452   O     0.31459   0.45004   0.26949   0.00000  Uiso   1.00
O453   O     0.24058   0.40869   0.45426   0.00000  Uiso   1.00
O454   O     0.20033   0.50745   0.40125   0.00000  Uiso   1.00
O455   O     0.09675   0.50432   0.08542   0.00000  Uiso   1.00
O456   O     0.18752   0.43627   0.42096   0.00000  Uiso   1.00
O457   O     0.17849   0.41434   0.27821   0.00000  Uiso   1.00
O458   O     0.14581   0.59469   0.26767   0.00000  Uiso   1.00
O459   O     0.07452   0.46584   0.23607   0.00000  Uiso   1.00
O460   O     0.26785   0.52512   0.21806   0.00000  Uiso   1.00
O461   O     0.06990   0.52293   0.27820   0.00000  Uiso   1.00
O462   O     0.25440   0.48610   0.26768   0.00000  Uiso   1.00
O463   O     0.13800   0.40236   0.23607   0.00000  Uiso   1.00
O464   O     0.20437   0.58860   0.21806   0.00000  Uiso   1.00
Zn465  Zn    0.19244   0.47423   0.28278   0.00000  Uiso   1.00
Zn466  Zn    0.13459   0.45711   0.22258   0.00000  Uiso   1.00
Zn467  Zn    0.21166   0.52997   0.21188   0.00000  Uiso   1.00
Zn468  Zn    0.12798   0.53868   0.28277   0.00000  Uiso   1.00
C469   C     0.38587   0.49262   0.25861   0.00000  Uiso   1.00
C470   C     0.52017   0.45232   0.45962   0.00000  Uiso   1.00
C471   C     0.54462   0.43471   0.47812   0.00000  Uiso   1.00
C472   C     0.61427   0.50760   0.24185   0.00000  Uiso   1.00
C473   C     0.53844   0.44299   0.01971   0.00000  Uiso   1.00
C474   C     0.51149   0.47372   0.04100   0.00000  Uiso   1.00
C475   C     0.55683   0.42076   0.04112   0.00000  Uiso   1.00
C476   C     0.55227   0.43288   0.08197   0.00000  Uiso   1.00
C477   C     0.51216   0.48835   0.08025   0.00000  Uiso   1.00
C478   C     0.65950   0.51393   0.24230   0.00000  Uiso   1.00
C479   C     0.34041   0.48757   0.26024   0.00000  Uiso   1.00
C480   C     0.43101   0.54942   0.42321   0.00000  Uiso   1.00
C481   C     0.51589   0.65610   0.24138   0.00000  Uiso   1.00
C482   C     0.48333   0.34563   0.26084   0.00000  Uiso   1.00
C483   C     0.48890   0.38959   0.25876   0.00000  Uiso   1.00
C484   C     0.51036   0.61106   0.24176   0.00000  Uiso   1.00
C485   C     0.52141   0.47840   0.14387   0.00000  Uiso   1.00
C486   C     0.47870   0.52138   0.35650   0.00000  Uiso   1.00
C487   C     0.46660   0.52846   0.40081   0.00000  Uiso   1.00
C488   C     0.53079   0.46747   0.10095   0.00000  Uiso   1.00
C489   C     0.41830   0.55146   0.46495   0.00000  Uiso   1.00
C490   C     0.38177   0.53737   0.05068   0.00000  Uiso   1.00
C491   C     0.49143   0.51375   0.42110   0.00000  Uiso   1.00
C492   C     0.57670   0.38323   0.02299   0.00000  Uiso   1.00
C493   C     0.35385   0.54922   0.22457   0.00000  Uiso   1.00
C494   C     0.65985   0.43012   0.29665   0.00000  Uiso   1.00
C495   C     0.62255   0.39747   0.31334   0.00000  Uiso   1.00
C496   C     0.63547   0.36917   0.33727   0.00000  Uiso   1.00
C497   C     0.55782   0.34231   0.22041   0.00000  Uiso   1.00
C498   C     0.43950   0.66133   0.27885   0.00000  Uiso   1.00
C499   C     0.56952   0.40990   0.10458   0.00000  Uiso   1.00
C500   C     0.61641   0.42977   0.44796   0.00000  Uiso   1.00
C501   C     0.62550   0.46223   0.41869   0.00000  Uiso   1.00
C502   C     0.47422   0.50770   0.46179   0.00000  Uiso   1.00
C503   C     0.34024   0.47734   0.40521   0.00000  Uiso   1.00
C504   C     0.38648   0.57924   0.48655   0.00000  Uiso   1.00
C505   C     0.40792   0.57051   0.40405   0.00000  Uiso   1.00
C506   C     0.56032   0.54606   0.39999   0.00000  Uiso   1.00
C507   C     0.59926   0.54275   0.36358   0.00000  Uiso   1.00
C508   C     0.62971   0.58331   0.36065   0.00000  Uiso   1.00
C509   C     0.40671   0.46468   0.09215   0.00000  Uiso   1.00
C510   C     0.38613   0.46436   0.13680   0.00000  Uiso   1.00
C511   C     0.36190   0.42184   0.14674   0.00000  Uiso   1.00
C512   C     0.48796   0.40248   0.42162   0.00000  Uiso   1.00
C513   C     0.43784   0.52823   0.48459   0.00000  Uiso   1.00
C514   C     0.49400   0.37990   0.37962   0.00000  Uiso   1.00
C515   C     0.46091   0.34146   0.37870   0.00000  Uiso   1.00
C516   C     0.49380   0.48369   0.48072   0.00000  Uiso   1.00
C517   C     0.48478   0.48943   0.02259   0.00000  Uiso   1.00
C518   C     0.44637   0.50653   0.04488   0.00000  Uiso   1.00
C519   C     0.42273   0.52478   0.02606   0.00000  Uiso   1.00
H520   H     0.49757   0.51589   0.09560   0.00000  Uiso   1.00
H521   H     0.62362   0.44483   0.47613   0.00000  Uiso   1.00
H522   H     0.61388   0.44860   0.39245   0.00000  Uiso   1.00
H523   H     0.60798   0.48944   0.43326   0.00000  Uiso   1.00
H524   H     0.35208   0.49132   0.43129   0.00000  Uiso   1.00
H525   H     0.34588   0.50122   0.38460   0.00000  Uiso   1.00
H526   H     0.35871   0.45109   0.38946   0.00000  Uiso   1.00
H527   H     0.57150   0.55305   0.42738   0.00000  Uiso   1.00
H528   H     0.54369   0.57257   0.39779   0.00000  Uiso   1.00
H529   H     0.61704   0.51712   0.36508   0.00000  Uiso   1.00
H530   H     0.58795   0.53538   0.33633   0.00000  Uiso   1.00
H531   H     0.66646   0.45273   0.32175   0.00000  Uiso   1.00
H532   H     0.61325   0.60862   0.35615   0.00000  Uiso   1.00
H533   H     0.65851   0.57922   0.33499   0.00000  Uiso   1.00
H534   H     0.64028   0.59228   0.38820   0.00000  Uiso   1.00
H535   H     0.42853   0.43990   0.08155   0.00000  Uiso   1.00
H536   H     0.38065   0.45790   0.07674   0.00000  Uiso   1.00
H537   H     0.41162   0.47255   0.15270   0.00000  Uiso   1.00
H538   H     0.36328   0.48817   0.14737   0.00000  Uiso   1.00
H539   H     0.33602   0.41314   0.13140   0.00000  Uiso   1.00
H540   H     0.34700   0.42302   0.17929   0.00000  Uiso   1.00
H541   H     0.38442   0.39774   0.13753   0.00000  Uiso   1.00
H542   H     0.35550   0.41416   0.28103   0.00000  Uiso   1.00
H543   H     0.45579   0.41408   0.43182   0.00000  Uiso   1.00
H544   H     0.48933   0.37976   0.44158   0.00000  Uiso   1.00
H545   H     0.49082   0.40144   0.35952   0.00000  Uiso   1.00
H546   H     0.52685   0.37001   0.36864   0.00000  Uiso   1.00
H547   H     0.46328   0.65318   0.39905   0.00000  Uiso   1.00
H548   H     0.46729   0.65818   0.34818   0.00000  Uiso   1.00
H549   H     0.42780   0.35064   0.38766   0.00000  Uiso   1.00
H550   H     0.59490   0.41350   0.33253   0.00000  Uiso   1.00
H551   H     0.61186   0.37787   0.28855   0.00000  Uiso   1.00
H552   H     0.65916   0.34907   0.31726   0.00000  Uiso   1.00
H553   H     0.60650   0.34899   0.35229   0.00000  Uiso   1.00
H554   H     0.64999   0.38774   0.36014   0.00000  Uiso   1.00
H555   H     0.63892   0.40588   0.43540   0.00000  Uiso   1.00
N556   N     0.34907   0.54703   0.07071   0.00000  Uiso   1.00
N557   N     0.59250   0.35324   0.00871   0.00000  Uiso   1.00
N558   N     0.37595   0.57733   0.21042   0.00000  Uiso   1.00
N559   N     0.59124   0.35790   0.20380   0.00000  Uiso   1.00
N560   N     0.40454   0.64735   0.29323   0.00000  Uiso   1.00
N561   N     0.58320   0.39155   0.12263   0.00000  Uiso   1.00
N562   N     0.36124   0.60163   0.00328   0.00000  Uiso   1.00
N563   N     0.38952   0.58741   0.38890   0.00000  Uiso   1.00
O564   O     0.50000   0.50000   0.25000   0.00000  Uiso   1.00
O565   O     0.49027   0.45726   0.16625   0.00000  Uiso   1.00
O566   O     0.46020   0.53979   0.33749   0.00000  Uiso   1.00
O567   O     0.54421   0.50826   0.15877   0.00000  Uiso   1.00
O568   O     0.50532   0.49468   0.33749   0.00000  Uiso   1.00
O569   O     0.64793   0.45004   0.26949   0.00000  Uiso   1.00
O570   O     0.57391   0.40869   0.45426   0.00000  Uiso   1.00
O571   O     0.53367   0.50745   0.40125   0.00000  Uiso   1.00
O572   O     0.43008   0.50432   0.08542   0.00000  Uiso   1.00
O573   O     0.52085   0.43627   0.42096   0.00000  Uiso   1.00
O574   O     0.51182   0.41434   0.27821   0.00000  Uiso   1.00
O575   O     0.47914   0.59469   0.26767   0.00000  Uiso   1.00
O576   O     0.40785   0.46584   0.23607   0.00000  Uiso   1.00
O577   O     0.60119   0.52512   0.21806   0.00000  Uiso   1.00
O578   O     0.40323   0.52293   0.27820   0.00000  Uiso   1.00
O579   O     0.58773   0.48610   0.26768   0.00000  Uiso   1.00
O580   O     0.47133   0.40236   0.23607   0.00000  Uiso   1.00
O581   O     0.53771   0.58860   0.21806   0.00000  Uiso   1.00
Zn582  Zn    0.52577   0.47423   0.28278   0.00000  Uiso   1.00
Zn583  Zn    0.46792   0.45711   0.22258   0.00000  Uiso   1.00
Zn584  Zn    0.54500   0.52997   0.21188   0.00000  Uiso   1.00
Zn585  Zn    0.46131   0.53868   0.28277   0.00000  Uiso   1.00
C586   C     0.71921   0.49262   0.25861   0.00000  Uiso   1.00
C587   C     0.85350   0.45232   0.45962   0.00000  Uiso   1.00
C588   C     0.87796   0.43471   0.47812   0.00000  Uiso   1.00
C589   C     0.94761   0.50760   0.24185   0.00000  Uiso   1.00
C590   C     0.87177   0.44299   0.01971   0.00000  Uiso   1.00
C591   C     0.84482   0.47372   0.04100   0.00000  Uiso   1.00
C592   C     0.89016   0.42076   0.04112   0.00000  Uiso   1.00
C593   C     0.88561   0.43288   0.08197   0.00000  Uiso   1.00
C594   C     0.84550   0.48835   0.08025   0.00000  Uiso   1.00
C595   C     0.99283   0.51393   0.24230   0.00000  Uiso   1.00
C596   C     0.67375   0.48757   0.26024   0.00000  Uiso   1.00
C597   C     0.76434   0.54942   0.42321   0.00000  Uiso   1.00
C598   C     0.84922   0.65610   0.24138   0.00000  Uiso   1.00
C599   C     0.81667   0.34563   0.26084   0.00000  Uiso   1.00
C600   C     0.82224   0.38959   0.25876   0.00000  Uiso   1.00
C601   C     0.84369   0.61106   0.24176   0.00000  Uiso   1.00
C602   C     0.85474   0.47840   0.14387   0.00000  Uiso   1.00
C603   C     0.81203   0.52138   0.35650   0.00000  Uiso   1.00
C604   C     0.79993   0.52846   0.40081   0.00000  Uiso   1.00
C605   C     0.86413   0.46747   0.10095   0.00000  Uiso   1.00
C606   C     0.75163   0.55146   0.46495   0.00000  Uiso   1.00
C607   C     0.71510   0.53737   0.05068   0.00000  Uiso   1.00
C608   C     0.82476   0.51375   0.42110   0.00000  Uiso   1.00
C609   C     0.91004   0.38323   0.02299   0.00000  Uiso   1.00
C610   C     0.68718   0.54922   0.22457   0.00000  Uiso   1.00
C611   C     0.99319   0.43012   0.29665   0.00000  Uiso   1.00
C612   C     0.95588   0.39747   0.31334   0.00000  Uiso   1.00
C613   C     0.96881   0.36917   0.33727   0.00000  Uiso   1.00
C614   C     0.89115   0.34231   0.22041   0.00000  Uiso   1.00
C615   C     0.77283   0.66133   0.27885   0.00000  Uiso   1.00
C616   C     0.90285   0.40990   0.10458   0.00000  Uiso   1.00
C617   C     0.94974   0.42977   0.44796   0.00000  Uiso   1.00
C618   C     0.95883   0.46223   0.41869   0.00000  Uiso   1.00
C619   C     0.80755   0.50770   0.46179   0.00000  Uiso   1.00
C620   C     0.67357   0.47734   0.40521   0.00000  Uiso   1.00
C621   C     0.71981   0.57924   0.48655   0.00000  Uiso   1.00
C622   C     0.74126   0.57051   0.40405   0.00000  Uiso   1.00
C623   C     0.89366   0.54606   0.39999   0.00000  Uiso   1.00
C624   C     0.93259   0.54275   0.36358   0.00000  Uiso   1.00
C625   C     0.96304   0.58331   0.36065   0.00000  Uiso   1.00
C626   C     0.74005   0.46468   0.09215   0.00000  Uiso   1.00
C627   C     0.71947   0.46436   0.13680   0.00000  Uiso   1.00
C628   C     0.69524   0.42184   0.14674   0.00000  Uiso   1.00
C629   C     0.82129   0.40248   0.42162   0.00000  Uiso   1.00
C630   C     0.77118   0.52823   0.48459   0.00000  Uiso   1.00
C631   C     0.82733   0.37990   0.37962   0.00000  Uiso   1.00
C632   C     0.79425   0.34146   0.37870   0.00000  Uiso   1.00
C633   C     0.82714   0.48369   0.48072   0.00000  Uiso   1.00
C634   C     0.81811   0.48943   0.02259   0.00000  Uiso   1.00
C635   C     0.77970   0.50653   0.04488   0.00000  Uiso   1.00
C636   C     0.75607   0.52478   0.02606   0.00000  Uiso   1.00
H637   H     0.83090   0.51589   0.09560   0.00000  Uiso   1.00
H638   H     0.95695   0.44483   0.47613   0.00000  Uiso   1.00
H639   H     0.94722   0.44860   0.39245   0.00000  Uiso   1.00
H640   H     0.94132   0.48944   0.43326   0.00000  Uiso   1.00
H641   H     0.68542   0.49132   0.43129   0.00000  Uiso   1.00
H642   H     0.67922   0.50122   0.38460   0.00000  Uiso   1.00
H643   H     0.69205   0.45109   0.38946   0.00000  Uiso   1.00
H644   H     0.90484   0.55305   0.42738   0.00000  Uiso   1.00
H645   H     0.87703   0.57257   0.39779   0.00000  Uiso   1.00
H646   H     0.95038   0.51712   0.36508   0.00000  Uiso   1.00
H647   H     0.92128   0.53538   0.33633   0.00000  Uiso   1.00
H648   H     0.99979   0.45273   0.32175   0.00000  Uiso   1.00
H649   H     0.94658   0.60862   0.35615   0.00000  Uiso   1.00
H650   H     0.99185   0.57922   0.33499   0.00000  Uiso   1.00
H651   H     0.97361   0.59228   0.38820   0.00000  Uiso   1.00
H652   H     0.76186   0.43990   0.08155   0.00000  Uiso   1.00
H653   H     0.71399   0.45790   0.07674   0.00000  Uiso   1.00
H654   H     0.74496   0.47255   0.15270   0.00000  Uiso   1.00
H655   H     0.69661   0.48817   0.14737   0.00000  Uiso   1.00
H656   H     0.66935   0.41314   0.13140   0.00000  Uiso   1.00
H657   H     0.68033   0.42302   0.17929   0.00000  Uiso   1.00
H658   H     0.71775   0.39774   0.13753   0.00000  Uiso   1.00
H659   H     0.68883   0.41416   0.28103   0.00000  Uiso   1.00
H660   H     0.78912   0.41408   0.43182   0.00000  Uiso   1.00
H661   H     0.82266   0.37976   0.44158   0.00000  Uiso   1.00
H662   H     0.82416   0.40144   0.35952   0.00000  Uiso   1.00
H663   H     0.86018   0.37001   0.36864   0.00000  Uiso   1.00
H664   H     0.79661   0.65318   0.39905   0.00000  Uiso   1.00
H665   H     0.80062   0.65818   0.34818   0.00000  Uiso   1.00
H666   H     0.76113   0.35064   0.38766   0.00000  Uiso   1.00
H667   H     0.92824   0.41350   0.33253   0.00000  Uiso   1.00
H668   H     0.94519   0.37787   0.28855   0.00000  Uiso   1.00
H669   H     0.99250   0.34907   0.31726   0.00000  Uiso   1.00
H670   H     0.93983   0.34899   0.35229   0.00000  Uiso   1.00
H671   H     0.98332   0.38774   0.36014   0.00000  Uiso   1.00
H672   H     0.97225   0.40588   0.43540   0.00000  Uiso   1.00
N673   N     0.68240   0.54703   0.07071   0.00000  Uiso   1.00
N674   N     0.92583   0.35324   0.00871   0.00000  Uiso   1.00
N675   N     0.70928   0.57733   0.21042   0.00000  Uiso   1.00
N676   N     0.92457   0.35790   0.20380   0.00000  Uiso   1.00
N677   N     0.73788   0.64735   0.29323   0.00000  Uiso   1.00
N678   N     0.91653   0.39155   0.12263   0.00000  Uiso   1.00
N679   N     0.69457   0.60163   0.00328   0.00000  Uiso   1.00
N680   N     0.72285   0.58741   0.38890   0.00000  Uiso   1.00
O681   O     0.83333   0.50000   0.25000   0.00000  Uiso   1.00
O682   O     0.82360   0.45726   0.16625   0.00000  Uiso   1.00
O683   O     0.79354   0.53979   0.33749   0.00000  Uiso   1.00
O684   O     0.87755   0.50826   0.15877   0.00000  Uiso   1.00
O685   O     0.83865   0.49468   0.33749   0.00000  Uiso   1.00
O686   O     0.98126   0.45004   0.26949   0.00000  Uiso   1.00
O687   O     0.90724   0.40869   0.45426   0.00000  Uiso   1.00
O688   O     0.86700   0.50745   0.40125   0.00000  Uiso   1.00
O689   O     0.76341   0.50432   0.08542   0.00000  Uiso   1.00
O690   O     0.85419   0.43627   0.42096   0.00000  Uiso   1.00
O691   O     0.84515   0.41434   0.27821   0.00000  Uiso   1.00
O692   O     0.81247   0.59469   0.26767   0.00000  Uiso   1.00
O693   O     0.74119   0.46584   0.23607   0.00000  Uiso   1.00
O694   O     0.93452   0.52512   0.21806   0.00000  Uiso   1.00
O695   O     0.73656   0.52293   0.27820   0.00000  Uiso   1.00
O696   O     0.92106   0.48610   0.26768   0.00000  Uiso   1.00
O697   O     0.80467   0.40236   0.23607   0.00000  Uiso   1.00
O698   O     0.87104   0.58860   0.21806   0.00000  Uiso   1.00
Zn699  Zn    0.85910   0.47423   0.28278   0.00000  Uiso   1.00
Zn700  Zn    0.80125   0.45711   0.22258   0.00000  Uiso   1.00
Zn701  Zn    0.87833   0.52997   0.21188   0.00000  Uiso   1.00
Zn702  Zn    0.79465   0.53868   0.28277   0.00000  Uiso   1.00
C703   C     0.05254   0.82596   0.25861   0.00000  Uiso   1.00
C704   C     0.18684   0.78565   0.45962   0.00000  Uiso   1.00
C705   C     0.21129   0.76804   0.47812   0.00000  Uiso   1.00
C706   C     0.28094   0.84093   0.24185   0.00000  Uiso   1.00
C707   C     0.20510   0.77632   0.01971   0.00000  Uiso   1.00
C708   C     0.17816   0.80706   0.04100   0.00000  Uiso   1.00
C709   C     0.22350   0.75409   0.04112   0.00000  Uiso   1.00
C710   C     0.21894   0.76621   0.08197   0.00000  Uiso   1.00
C711   C     0.17883   0.82168   0.08025   0.00000  Uiso   1.00
C712   C     0.32616   0.84727   0.24230   0.00000  Uiso   1.00
C713   C     0.00708   0.82091   0.26024   0.00000  Uiso   1.00
C714   C     0.09767   0.88275   0.42321   0.00000  Uiso   1.00
C715   C     0.18255   0.98944   0.24138   0.00000  Uiso   1.00
C716   C     0.15000   0.67896   0.26084   0.00000  Uiso   1.00
C717   C     0.15557   0.72292   0.25876   0.00000  Uiso   1.00
C718   C     0.17702   0.94439   0.24176   0.00000  Uiso   1.00
C719   C     0.18808   0.81173   0.14387   0.00000  Uiso   1.00
C720   C     0.14537   0.85471   0.35650   0.00000  Uiso   1.00
C721   C     0.13326   0.86180   0.40081   0.00000  Uiso   1.00
C722   C     0.19746   0.80081   0.10095   0.00000  Uiso   1.00
C723   C     0.08497   0.88479   0.46495   0.00000  Uiso   1.00
C724   C     0.04844   0.87070   0.05068   0.00000  Uiso   1.00
C725   C     0.15810   0.84709   0.42110   0.00000  Uiso   1.00
C726   C     0.24337   0.71656   0.02299   0.00000  Uiso   1.00
C727   C     0.02052   0.88255   0.22457   0.00000  Uiso   1.00
C728   C     0.32652   0.76346   0.29665   0.00000  Uiso   1.00
C729   C     0.28921   0.73080   0.31334   0.00000  Uiso   1.00
C730   C     0.30214   0.70251   0.33727   0.00000  Uiso   1.00
C731   C     0.22449   0.67564   0.22041   0.00000  Uiso   1.00
C732   C     0.10617   0.99466   0.27885   0.00000  Uiso   1.00
C733   C     0.23618   0.74323   0.10458   0.00000  Uiso   1.00
C734   C     0.28307   0.76310   0.44796   0.00000  Uiso   1.00
C735   C     0.29216   0.79557   0.41869   0.00000  Uiso   1.00
C736   C     0.14088   0.84103   0.46179   0.00000  Uiso   1.00
C737   C     0.00691   0.81067   0.40521   0.00000  Uiso   1.00
C738   C     0.05314   0.91257   0.48655   0.00000  Uiso   1.00
C739   C     0.07459   0.90385   0.40405   0.00000  Uiso   1.00
C740   C     0.22699   0.87939   0.39999   0.00000  Uiso   1.00
C741   C     0.26592   0.87609   0.36358   0.00000  Uiso   1.00
C742   C     0.29637   0.91665   0.36065   0.00000  Uiso   1.00
C743   C     0.07338   0.79802   0.09215   0.00000  Uiso   1.00
C744   C     0.05280   0.79770   0.13680   0.00000  Uiso   1.00
C745   C     0.02857   0.75517   0.14674   0.00000  Uiso   1.00
C746   C     0.15463   0.73582   0.42162   0.00000  Uiso   1.00
C747   C     0.10451   0.86157   0.48459   0.00000  Uiso   1.00
C748   C     0.16066   0.71323   0.37962   0.00000  Uiso   1.00
C749   C     0.12758   0.67480   0.37870   0.00000  Uiso   1.00
C750   C     0.16047   0.81702   0.48072   0.00000  Uiso   1.00
C751   C     0.15144   0.82276   0.02259   0.00000  Uiso   1.00
C752   C     0.11304   0.83987   0.04488   0.00000  Uiso   1.00
C753   C     0.08940   0.85811   0.02606   0.00000  Uiso   1.00
H754   H     0.16423   0.84922   0.09560   0.00000  Uiso   1.00
H755   H     0.29028   0.77816   0.47613   0.00000  Uiso   1.00
H756   H     0.28055   0.78193   0.39245   0.00000  Uiso   1.00
H757   H     0.27465   0.82277   0.43326   0.00000  Uiso   1.00
H758   H     0.01875   0.82465   0.43129   0.00000  Uiso   1.00
H759   H     0.01255   0.83455   0.38460   0.00000  Uiso   1.00
H760   H     0.02538   0.78442   0.38946   0.00000  Uiso   1.00
H761   H     0.23817   0.88639   0.42738   0.00000  Uiso   1.00
H762   H     0.21036   0.90590   0.39779   0.00000  Uiso   1.00
H763   H     0.28371   0.85045   0.36508   0.00000  Uiso   1.00
H764   H     0.25461   0.86871   0.33633   0.00000  Uiso   1.00
H765   H     0.33312   0.78606   0.32175   0.00000  Uiso   1.00
H766   H     0.27992   0.94196   0.35615   0.00000  Uiso   1.00
H767   H     0.32518   0.91256   0.33499   0.00000  Uiso   1.00
H768   H     0.30695   0.92561   0.38820   0.00000  Uiso   1.00
H769   H     0.09520   0.77323   0.08155   0.00000  Uiso   1.00
H770   H     0.04732   0.79123   0.07674   0.00000  Uiso   1.00
H771   H     0.07829   0.80588   0.15270   0.00000  Uiso   1.00
H772   H     0.02994   0.82150   0.14737   0.00000  Uiso   1.00
H773   H     0.00269   0.74647   0.13140   0.00000  Uiso   1.00
H774   H     0.01366   0.75635   0.17929   0.00000  Uiso   1.00
H775   H     0.05109   0.73107   0.13753   0.00000  Uiso   1.00
H776   H     0.02217   0.74750   0.28103   0.00000  Uiso   1.00
H777   H     0.12245   0.74741   0.43182   0.00000  Uiso   1.00
H778   H     0.15600   0.71310   0.44158   0.00000  Uiso   1.00
H779   H     0.15749   0.73477   0.35952   0.00000  Uiso   1.00
H780   H     0.19351   0.70334   0.36864   0.00000  Uiso   1.00
H781   H     0.12995   0.98651   0.39905   0.00000  Uiso   1.00
H782   H     0.13396   0.99151   0.34818   0.00000  Uiso   1.00
H783   H     0.09446   0.68397   0.38766   0.00000  Uiso   1.00
H784   H     0.26157   0.74683   0.33253   0.00000  Uiso   1.00
H785   H     0.27852   0.71121   0.28855   0.00000  Uiso   1.00
H786   H     0.32583   0.68240   0.31726   0.00000  Uiso   1.00
H787   H     0.27317   0.68232   0.35229   0.00000  Uiso   1.00
H788   H     0.31666   0.72108   0.36014   0.00000  Uiso   1.00
H789   H     0.30558   0.73921   0.43540   0.00000  Uiso   1.00
N790   N     0.01574   0.88036   0.07071   0.00000  Uiso   1.00
N791   N     0.25917   0.68658   0.00871   0.00000  Uiso   1.00
N792   N     0.04261   0.91066   0.21042   0.00000  Uiso   1.00
N793   N     0.25791   0.69123   0.20380   0.00000  Uiso   1.00
N794   N     0.07121   0.98068   0.29323   0.00000  Uiso   1.00
N795   N     0.24987   0.72488   0.12263   0.00000  Uiso   1.00
N796   N     0.02790   0.93496   0.00328   0.00000  Uiso   1.00
N797   N     0.05619   0.92074   0.38890   0.00000  Uiso   1.00
O798   O     0.16667   0.83333   0.25000   0.00000  Uiso   1.00
O799   O     0.15693   0.79060   0.16625   0.00000  Uiso   1.00
O800   O     0.12687   0.87313   0.33749   0.00000  Uiso   1.00
O801   O     0.21088   0.84159   0.15877   0.00000  Uiso   1.00
O802   O     0.17198   0.82802   0.33749   0.00000  Uiso   1.00
O803   O     0.31459   0.78338   0.26949   0.00000  Uiso   1.00
O804   O     0.24058   0.74202   0.45426   0.00000  Uiso   1.00
O805   O     0.20033   0.84078   0.40125   0.00000  Uiso   1.00
O806   O     0.09675   0.83765   0.08542   0.00000  Uiso   1.00
O807   O     0.18752   0.76960   0.42096   0.00000  Uiso   1.00
O808   O     0.17849   0.74768   0.27821   0.00000  Uiso   1.00
O809   O     0.14581   0.92803   0.26767   0.00000  Uiso   1.00
O810   O     0.07452   0.79917   0.23607   0.00000  Uiso   1.00
O811   O     0.26785   0.85845   0.21806   0.00000  Uiso   1.00
O812   O     0.06990   0.85627   0.27820   0.00000  Uiso   1.00
O813   O     0.25440   0.81944   0.26768   0.00000  Uiso   1.00
O814   O     0.13800   0.73570   0.23607   0.00000  Uiso   1.00
O815   O     0.20437   0.92193   0.21806   0.00000  Uiso   1.00
Zn816  Zn    0.19244   0.80756   0.28278   0.00000  Uiso   1.00
Zn817  Zn    0.13459   0.79044   0.22258   0.00000  Uiso   1.00
Zn818  Zn    0.21166   0.86331   0.21188   0.00000  Uiso   1.00
Zn819  Zn    0.12798   0.87202   0.28277   0.00000  Uiso   1.00
C820   C     0.38587   0.82596   0.25861   0.00000  Uiso   1.00
C821   C     0.52017   0.78565   0.45962   0.00000  Uiso   1.00
C822   C     0.54462   0.76804   0.47812   0.00000  Uiso   1.00
C823   C     0.61427   0.84093   0.24185   0.00000  Uiso   1.00
C824   C     0.53844   0.77632   0.01971   0.00000  Uiso   1.00
C825   C     0.51149   0.80706   0.04100   0.00000  Uiso   1.00
C826   C     0.55683   0.75409   0.04112   0.00000  Uiso   1.00
C827   C     0.55227   0.76621   0.08197   0.00000  Uiso   1.00
C828   C     0.51216   0.82168   0.08025   0.00000  Uiso   1.00
C829   C     0.65950   0.84727   0.24230   0.00000  Uiso   1.00
C830   C     0.34041   0.82091   0.26024   0.00000  Uiso   1.00
C831   C     0.43101   0.88275   0.42321   0.00000  Uiso   1.00
C832   C     0.51589   0.98944   0.24138   0.00000  Uiso   1.00
C833   C     0.48333   0.67896   0.26084   0.00000  Uiso   1.00
C834   C     0.48890   0.72292   0.25876   0.00000  Uiso   1.00
C835   C     0.51036   0.94439   0.24176   0.00000  Uiso   1.00
C836   C     0.52141   0.81173   0.14387   0.00000  Uiso   1.00
C837   C     0.47870   0.85471   0.35650   0.00000  Uiso   1.00
C838   C     0.46660   0.86180   0.40081   0.00000  Uiso   1.00
C839   C     0.53079   0.80081   0.10095   0.00000  Uiso   1.00
C840   C     0.41830   0.88479   0.46495   0.00000  Uiso   1.00
C841   C     0.38177   0.87070   0.05068   0.00000  Uiso   1.00
C842   C     0.49143   0.84709   0.42110   0.00000  Uiso   1.00
C843   C     0.57670   0.71656   0.02299   0.00000  Uiso   1.00
C844   C     0.35385   0.88255   0.22457   0.00000  Uiso   1.00
C845   C     0.65985   0.76346   0.29665   0.00000  Uiso   1.00
C846   C     0.62255   0.73080   0.31334   0.00000  Uiso   1.00
C847   C     0.63547   0.70251   0.33727   0.00000  Uiso   1.00
C848   C     0.55782   0.67564   0.22041   0.00000  Uiso   1.00
C849   C     0.43950   0.99466   0.27885   0.00000  Uiso   1.00
C850   C     0.56952   0.74323   0.10458   0.00000  Uiso   1.00
C851   C     0.61641   0.76310   0.44796   0.00000  Uiso   1.00
C852   C     0.62550   0.79557   0.41869   0.00000  Uiso   1.00
C853   C     0.47422   0.84103   0.46179   0.00000  Uiso   1.00
C854   C     0.34024   0.81067   0.40521   0.00000  Uiso   1.00
C855   C     0.38648   0.91257   0.48655   0.00000  Uiso   1.00
C856   C     0.40792   0.90385   0.40405   0.00000  Uiso   1.00
C857   C     0.56032   0.87939   0.39999   0.00000  Uiso   1.00
C858   C     0.59926   0.87609   0.36358   0.00000  Uiso   1.00
C859   C     0.62971   0.91665   0.36065   0.00000  Uiso   1.00
C860   C     0.40671   0.79802   0.09215   0.00000  Uiso   1.00
C861   C     0.38613   0.79770   0.13680   0.00000  Uiso   1.00
C862   C     0.36190   0.75517   0.14674   0.00000  Uiso   1.00
C863   C     0.48796   0.73582   0.42162   0.00000  Uiso   1.00
C864   C     0.43784   0.86157   0.48459   0.00000  Uiso   1.00
C865   C     0.49400   0.71323   0.37962   0.00000  Uiso   1.00
C866   C     0.46091   0.67480   0.37870   0.00000  Uiso   1.00
C867   C     0.49380   0.81702   0.48072   0.00000  Uiso   1.00
C868   C     0.48478   0.82276   0.02259   0.00000  Uiso   1.00
C869   C     0.44637   0.83987   0.04488   0.00000  Uiso   1.00
C870   C     0.42273   0.85811   0.02606   0.00000  Uiso   1.00
H871   H     0.49757   0.84922   0.09560   0.00000  Uiso   1.00
H872   H     0.62362   0.77816   0.47613   0.00000  Uiso   1.00
H873   H     0.61388   0.78193   0.39245   0.00000  Uiso   1.00
H874   H     0.60798   0.82277   0.43326   0.00000  Uiso   1.00
H875   H     0.35208   0.82465   0.43129   0.00000  Uiso   1.00
H876   H     0.34588   0.83455   0.38460   0.00000  Uiso   1.00
H877   H     0.35871   0.78442   0.38946   0.00000  Uiso   1.00
H878   H     0.57150   0.88639   0.42738   0.00000  Uiso   1.00
H879   H     0.54369   0.90590   0.39779   0.00000  Uiso   1.00
H880   H     0.61704   0.85045   0.36508   0.00000  Uiso   1.00
H881   H     0.58795   0.86871   0.33633   0.00000  Uiso   1.00
H882   H     0.66646   0.78606   0.32175   0.00000  Uiso   1.00
H883   H     0.61325   0.94196   0.35615   0.00000  Uiso   1.00
H884   H     0.65851   0.91256   0.33499   0.00000  Uiso   1.00
H885   H     0.64028   0.92561   0.38820   0.00000  Uiso   1.00
H886   H     0.42853   0.77323   0.08155   0.00000  Uiso   1.00
H887   H     0.38065   0.79123   0.07674   0.00000  Uiso   1.00
H888   H     0.41162   0.80588   0.15270   0.00000  Uiso   1.00
H889   H     0.36328   0.82150   0.14737   0.00000  Uiso   1.00
H890   H     0.33602   0.74647   0.13140   0.00000  Uiso   1.00
H891   H     0.34700   0.75635   0.17929   0.00000  Uiso   1.00
H892   H     0.38442   0.73107   0.13753   0.00000  Uiso   1.00
H893   H     0.35550   0.74750   0.28103   0.00000  Uiso   1.00
H894   H     0.45579   0.74741   0.43182   0.00000  Uiso   1.00
H895   H     0.48933   0.71310   0.44158   0.00000  Uiso   1.00
H896   H     0.49082   0.73477   0.35952   0.00000  Uiso   1.00
H897   H     0.52685   0.70334   0.36864   0.00000  Uiso   1.00
H898   H     0.46328   0.98651   0.39905   0.00000  Uiso   1.00
H899   H     0.46729   0.99151   0.34818   0.00000  Uiso   1.00
H900   H     0.42780   0.68397   0.38766   0.00000  Uiso   1.00
H901   H     0.59490   0.74683   0.33253   0.00000  Uiso   1.00
H902   H     0.61186   0.71121   0.28855   0.00000  Uiso   1.00
H903   H     0.65916   0.68240   0.31726   0.00000  Uiso   1.00
H904   H     0.60650   0.68232   0.35229   0.00000  Uiso   1.00
H905   H     0.64999   0.72108   0.36014   0.00000  Uiso   1.00
H906   H     0.63892   0.73921   0.43540   0.00000  Uiso   1.00
N907   N     0.34907   0.88036   0.07071   0.00000  Uiso   1.00
N908   N     0.59250   0.68658   0.00871   0.00000  Uiso   1.00
N909   N     0.37595   0.91066   0.21042   0.00000  Uiso   1.00
N910   N     0.59124   0.69123   0.20380   0.00000  Uiso   1.00
N911   N     0.40454   0.98068   0.29323   0.00000  Uiso   1.00
N912   N     0.58320   0.72488   0.12263   0.00000  Uiso   1.00
N913   N     0.36124   0.93496   0.00328   0.00000  Uiso   1.00
N914   N     0.38952   0.92074   0.38890   0.00000  Uiso   1.00
O915   O     0.50000   0.83333   0.25000   0.00000  Uiso   1.00
O916   O     0.49027   0.79060   0.16625   0.00000  Uiso   1.00
O917   O     0.46020   0.87313   0.33749   0.00000  Uiso   1.00
O918   O     0.54421   0.84159   0.15877   0.00000  Uiso   1.00
O919   O     0.50532   0.82802   0.33749   0.00000  Uiso   1.00
O920   O     0.64793   0.78338   0.26949   0.00000  Uiso   1.00
O921   O     0.57391   0.74202   0.45426   0.00000  Uiso   1.00
O922   O     0.53367   0.84078   0.40125   0.00000  Uiso   1.00
O923   O     0.43008   0.83765   0.08542   0.00000  Uiso   1.00
O924   O     0.52085   0.76960   0.42096   0.00000  Uiso   1.00
O925   O     0.51182   0.74768   0.27821   0.00000  Uiso   1.00
O926   O     0.47914   0.92803   0.26767   0.00000  Uiso   1.00
O927   O     0.40785   0.79917   0.23607   0.00000  Uiso   1.00
O928   O     0.60119   0.85845   0.21806   0.00000  Uiso   1.00
O929   O     0.40323   0.85627   0.27820   0.00000  Uiso   1.00
O930   O     0.58773   0.81944   0.26768   0.00000  Uiso   1.00
O931   O     0.47133   0.73570   0.23607   0.00000  Uiso   1.00
O932   O     0.53771   0.92193   0.21806   0.00000  Uiso   1.00
Zn933  Zn    0.52577   0.80756   0.28278   0.00000  Uiso   1.00
Zn934  Zn    0.46792   0.79044   0.22258   0.00000  Uiso   1.00
Zn935  Zn    0.54500   0.86331   0.21188   0.00000  Uiso   1.00
Zn936  Zn    0.46131   0.87202   0.28277   0.00000  Uiso   1.00
C937   C     0.71921   0.82596   0.25861   0.00000  Uiso   1.00
C938   C     0.85350   0.78565   0.45962   0.00000  Uiso   1.00
C939   C     0.87796   0.76804   0.47812   0.00000  Uiso   1.00
C940   C     0.94761   0.84093   0.24185   0.00000  Uiso   1.00
C941   C     0.87177   0.77632   0.01971   0.00000  Uiso   1.00
C942   C     0.84482   0.80706   0.04100   0.00000  Uiso   1.00
C943   C     0.89016   0.75409   0.04112   0.00000  Uiso   1.00
C944   C     0.88561   0.76621   0.08197   0.00000  Uiso   1.00
C945   C     0.84550   0.82168   0.08025   0.00000  Uiso   1.00
C946   C     0.99283   0.84727   0.24230   0.00000  Uiso   1.00
C947   C     0.67375   0.82091   0.26024   0.00000  Uiso   1.00
C948   C     0.76434   0.88275   0.42321   0.00000  Uiso   1.00
C949   C     0.84922   0.98944   0.24138   0.00000  Uiso   1.00
C950   C     0.81667   0.67896   0.26084   0.00000  Uiso   1.00
C951   C     0.82224   0.72292   0.25876   0.00000  Uiso   1.00
C952   C     0.84369   0.94439   0.24176   0.00000  Uiso   1.00
C953   C     0.85474   0.81173   0.14387   0.00000  Uiso   1.00
C954   C     0.81203   0.85471   0.35650   0.00000  Uiso   1.00
C955   C     0.79993   0.86180   0.40081   0.00000  Uiso   1.00
C956   C     0.86413   0.80081   0.10095   0.00000  Uiso   1.00
C957   C     0.75163   0.88479   0.46495   0.00000  Uiso   1.00
C958   C     0.71510   0.87070   0.05068   0.00000  Uiso   1.00
C959   C     0.82476   0.84709   0.42110   0.00000  Uiso   1.00
C960   C     0.91004   0.71656   0.02299   0.00000  Uiso   1.00
C961   C     0.68718   0.88255   0.22457   0.00000  Uiso   1.00
C962   C     0.99319   0.76346   0.29665   0.00000  Uiso   1.00
C963   C     0.95588   0.73080   0.31334   0.00000  Uiso   1.00
C964   C     0.96881   0.70251   0.33727   0.00000  Uiso   1.00
C965   C     0.89115   0.67564   0.22041   0.00000  Uiso   1.00
C966   C     0.77283   0.99466   0.27885   0.00000  Uiso   1.00
C967   C     0.90285   0.74323   0.10458   0.00000  Uiso   1.00
C968   C     0.94974   0.76310   0.44796   0.00000  Uiso   1.00
C969   C     0.95883   0.79557   0.41869   0.00000  Uiso   1.00
C970   C     0.80755   0.84103   0.46179   0.00000  Uiso   1.00
C971   C     0.67357   0.81067   0.40521   0.00000  Uiso   1.00
C972   C     0.71981   0.91257   0.48655   0.00000  Uiso   1.00
C973   C     0.74126   0.90385   0.40405   0.00000  Uiso   1.00
C974   C     0.89366   0.87939   0.39999   0.00000  Uiso   1.00
C975   C     0.93259   0.87609   0.36358   0.00000  Uiso   1.00
C976   C     0.96304   0.91665   0.36065   0.00000  Uiso   1.00
C977   C     0.74005   0.79802   0.09215   0.00000  Uiso   1.00
C978   C     0.71947   0.79770   0.13680   0.00000  Uiso   1.00
C979   C     0.69524   0.75517   0.14674   0.00000  Uiso   1.00
C980   C     0.82129   0.73582   0.42162   0.00000  Uiso   1.00
C981   C     0.77118   0.86157   0.48459   0.00000  Uiso   1.00
C982   C     0.82733   0.71323   0.37962   0.00000  Uiso   1.00
C983   C     0.79425   0.67480   0.37870   0.00000  Uiso   1.00
C984   C     0.82714   0.81702   0.48072   0.00000  Uiso   1.00
C985   C     0.81811   0.82276   0.02259   0.00000  Uiso   1.00
C986   C     0.77970   0.83987   0.04488   0.00000  Uiso   1.00
C987   C     0.75607   0.85811   0.02606   0.00000  Uiso   1.00
H988   H     0.83090   0.84922   0.09560   0.00000  Uiso   1.00
H989   H     0.95695   0.77816   0.47613   0.00000  Uiso   1.00
H990   H     0.94722   0.78193   0.39245   0.00000  Uiso   1.00
H991   H     0.94132   0.82277   0.43326   0.00000  Uiso   1.00
H992   H     0.68542   0.82465   0.43129   0.00000  Uiso   1.00
H993   H     0.67922   0.83455   0.38460   0.00000  Uiso   1.00
H994   H     0.69205   0.78442   0.38946   0.00000  Uiso   1.00
H995   H     0.90484   0.88639   0.42738   0.00000  Uiso   1.00
H996   H     0.87703   0.90590   0.39779   0.00000  Uiso   1.00
H997   H     0.95038   0.85045   0.36508   0.00000  Uiso   1.00
H998   H     0.92128   0.86871   0.33633   0.00000  Uiso   1.00
H999   H     0.99979   0.78606   0.32175   0.00000  Uiso   1.00
H1000  H     0.94658   0.94196   0.35615   0.00000  Uiso   1.00
H1001  H     0.99185   0.91256   0.33499   0.00000  Uiso   1.00
H1002  H     0.97361   0.92561   0.38820   0.00000  Uiso   1.00
H1003  H     0.76186   0.77323   0.08155   0.00000  Uiso   1.00
H1004  H     0.71399   0.79123   0.07674   0.00000  Uiso   1.00
H1005  H     0.74496   0.80588   0.15270   0.00000  Uiso   1.00
H1006  H     0.69661   0.82150   0.14737   0.00000  Uiso   1.00
H1007  H     0.66935   0.74647   0.13140   0.00000  Uiso   1.00
H1008  H     0.68033   0.75635   0.17929   0.00000  Uiso   1.00
H1009  H     0.71775   0.73107   0.13753   0.00000  Uiso   1.00
H1010  H     0.68883   0.74750   0.28103   0.00000  Uiso   1.00
H1011  H     0.78912   0.74741   0.43182   0.00000  Uiso   1.00
H1012  H     0.82266   0.71310   0.44158   0.00000  Uiso   1.00
H1013  H     0.82416   0.73477   0.35952   0.00000  Uiso   1.00
H1014  H     0.86018   0.70334   0.36864   0.00000  Uiso   1.00
H1015  H     0.79661   0.98651   0.39905   0.00000  Uiso   1.00
H1016  H     0.80062   0.99151   0.34818   0.00000  Uiso   1.00
H1017  H     0.76113   0.68397   0.38766   0.00000  Uiso   1.00
H1018  H     0.92824   0.74683   0.33253   0.00000  Uiso   1.00
H1019  H     0.94519   0.71121   0.28855   0.00000  Uiso   1.00
H1020  H     0.99250   0.68240   0.31726   0.00000  Uiso   1.00
H1021  H     0.93983   0.68232   0.35229   0.00000  Uiso   1.00
H1022  H     0.98332   0.72108   0.36014   0.00000  Uiso   1.00
H1023  H     0.97225   0.73921   0.43540   0.00000  Uiso   1.00
N1024  N     0.68240   0.88036   0.07071   0.00000  Uiso   1.00
N1025  N     0.92583   0.68658   0.00871   0.00000  Uiso   1.00
N1026  N     0.70928   0.91066   0.21042   0.00000  Uiso   1.00
N1027  N     0.92457   0.69123   0.20380   0.00000  Uiso   1.00
N1028  N     0.73788   0.98068   0.29323   0.00000  Uiso   1.00
N1029  N     0.91653   0.72488   0.12263   0.00000  Uiso   1.00
N1030  N     0.69457   0.93496   0.00328   0.00000  Uiso   1.00
N1031  N     0.72285   0.92074   0.38890   0.00000  Uiso   1.00
O1032  O     0.83333   0.83333   0.25000   0.00000  Uiso   1.00
O1033  O     0.82360   0.79060   0.16625   0.00000  Uiso   1.00
O1034  O     0.79354   0.87313   0.33749   0.00000  Uiso   1.00
O1035  O     0.87755   0.84159   0.15877   0.00000  Uiso   1.00
O1036  O     0.83865   0.82802   0.33749   0.00000  Uiso   1.00
O1037  O     0.98126   0.78338   0.26949   0.00000  Uiso   1.00
O1038  O     0.90724   0.74202   0.45426   0.00000  Uiso   1.00
O1039  O     0.86700   0.84078   0.40125   0.00000  Uiso   1.00
O1040  O     0.76341   0.83765   0.08542   0.00000  Uiso   1.00
O1041  O     0.85419   0.76960   0.42096   0.00000  Uiso   1.00
O1042  O     0.84515   0.74768   0.27821   0.00000  Uiso   1.00
O1043  O     0.81247   0.92803   0.26767   0.00000  Uiso   1.00
O1044  O     0.74119   0.79917   0.23607   0.00000  Uiso   1.00
O1045  O     0.93452   0.85845   0.21806   0.00000  Uiso   1.00
O1046  O     0.73656   0.85627   0.27820   0.00000  Uiso   1.00
O1047  O     0.92106   0.81944   0.26768   0.00000  Uiso   1.00
O1048  O     0.80467   0.73570   0.23607   0.00000  Uiso   1.00
O1049  O     0.87104   0.92193   0.21806   0.00000  Uiso   1.00
Zn1050 Zn    0.85910   0.80756   0.28278   0.00000  Uiso   1.00
Zn1051 Zn    0.80125   0.79044   0.22258   0.00000  Uiso   1.00
Zn1052 Zn    0.87833   0.86331   0.21188   0.00000  Uiso   1.00
Zn1053 Zn    0.79465   0.87202   0.28277   0.00000  Uiso   1.00
C1054  C     0.05254   0.15929   0.75861   0.00000  Uiso   1.00
C1055  C     0.18684   0.11898   0.95962   0.00000  Uiso   1.00
C1056  C     0.21129   0.10138   0.97812   0.00000  Uiso   1.00
C1057  C     0.28094   0.17427   0.74185   0.00000  Uiso   1.00
C1058  C     0.20510   0.10966   0.51971   0.00000  Uiso   1.00
C1059  C     0.17816   0.14039   0.54100   0.00000  Uiso   1.00
C1060  C     0.22350   0.08742   0.54112   0.00000  Uiso   1.00
C1061  C     0.21894   0.09955   0.58197   0.00000  Uiso   1.00
C1062  C     0.17883   0.15501   0.58025   0.00000  Uiso   1.00
C1063  C     0.32616   0.18060   0.74230   0.00000  Uiso   1.00
C1064  C     0.00708   0.15424   0.76024   0.00000  Uiso   1.00
C1065  C     0.09767   0.21608   0.92321   0.00000  Uiso   1.00
C1066  C     0.18255   0.32277   0.74138   0.00000  Uiso   1.00
C1067  C     0.15000   0.01230   0.76084   0.00000  Uiso   1.00
C1068  C     0.15557   0.05626   0.75876   0.00000  Uiso   1.00
C1069  C     0.17702   0.27772   0.74176   0.00000  Uiso   1.00
C1070  C     0.18808   0.14507   0.64387   0.00000  Uiso   1.00
C1071  C     0.14537   0.18805   0.85650   0.00000  Uiso   1.00
C1072  C     0.13326   0.19513   0.90081   0.00000  Uiso   1.00
C1073  C     0.19746   0.13414   0.60095   0.00000  Uiso   1.00
C1074  C     0.08497   0.21812   0.96495   0.00000  Uiso   1.00
C1075  C     0.04844   0.20404   0.55068   0.00000  Uiso   1.00
C1076  C     0.15810   0.18042   0.92110   0.00000  Uiso   1.00
C1077  C     0.24337   0.04990   0.52299   0.00000  Uiso   1.00
C1078  C     0.02052   0.21588   0.72457   0.00000  Uiso   1.00
C1079  C     0.32652   0.09679   0.79665   0.00000  Uiso   1.00
C1080  C     0.28921   0.06413   0.81334   0.00000  Uiso   1.00
C1081  C     0.30214   0.03584   0.83727   0.00000  Uiso   1.00
C1082  C     0.22449   0.00898   0.72041   0.00000  Uiso   1.00
C1083  C     0.10617   0.32800   0.77885   0.00000  Uiso   1.00
C1084  C     0.23618   0.07656   0.60458   0.00000  Uiso   1.00
C1085  C     0.28307   0.09644   0.94796   0.00000  Uiso   1.00
C1086  C     0.29216   0.12890   0.91869   0.00000  Uiso   1.00
C1087  C     0.14088   0.17437   0.96179   0.00000  Uiso   1.00
C1088  C     0.00691   0.14400   0.90521   0.00000  Uiso   1.00
C1089  C     0.05314   0.24591   0.98655   0.00000  Uiso   1.00
C1090  C     0.07459   0.23718   0.90405   0.00000  Uiso   1.00
C1091  C     0.22699   0.21273   0.89999   0.00000  Uiso   1.00
C1092  C     0.26592   0.20942   0.86358   0.00000  Uiso   1.00
C1093  C     0.29637   0.24998   0.86065   0.00000  Uiso   1.00
C1094  C     0.07338   0.13135   0.59215   0.00000  Uiso   1.00
C1095  C     0.05280   0.13103   0.63680   0.00000  Uiso   1.00
C1096  C     0.02857   0.08850   0.64674   0.00000  Uiso   1.00
C1097  C     0.15463   0.06915   0.92162   0.00000  Uiso   1.00
C1098  C     0.10451   0.19490   0.98459   0.00000  Uiso   1.00
C1099  C     0.16066   0.04657   0.87962   0.00000  Uiso   1.00
C1100  C     0.12758   0.00813   0.87870   0.00000  Uiso   1.00
C1101  C     0.16047   0.15036   0.98072   0.00000  Uiso   1.00
C1102  C     0.15144   0.15610   0.52259   0.00000  Uiso   1.00
C1103  C     0.11304   0.17320   0.54488   0.00000  Uiso   1.00
C1104  C     0.08940   0.19145   0.52606   0.00000  Uiso   1.00
H1105  H     0.16423   0.18256   0.59560   0.00000  Uiso   1.00
H1106  H     0.29028   0.11150   0.97613   0.00000  Uiso   1.00
H1107  H     0.28055   0.11527   0.89245   0.00000  Uiso   1.00
H1108  H     0.27465   0.15610   0.93326   0.00000  Uiso   1.00
H1109  H     0.01875   0.15798   0.93129   0.00000  Uiso   1.00
H1110  H     0.01255   0.16789   0.88460   0.00000  Uiso   1.00
H1111  H     0.02538   0.11776   0.88946   0.00000  Uiso   1.00
H1112  H     0.23817   0.21972   0.92738   0.00000  Uiso   1.00
H1113  H     0.21036   0.23923   0.89779   0.00000  Uiso   1.00
H1114  H     0.28371   0.18379   0.86508   0.00000  Uiso   1.00
H1115  H     0.25461   0.20205   0.83633   0.00000  Uiso   1.00
H1116  H     0.33312   0.11940   0.82175   0.00000  Uiso   1.00
H1117  H     0.27992   0.27529   0.85615   0.00000  Uiso   1.00
H1118  H     0.32518   0.24589   0.83499   0.00000  Uiso   1.00
H1119  H     0.30695   0.25895   0.88820   0.00000  Uiso   1.00
H1120  H     0.09520   0.10657   0.58155   0.00000  Uiso   1.00
H1121  H     0.04732   0.12457   0.57674   0.00000  Uiso   1.00
H1122  H     0.07829   0.13921   0.65270   0.00000  Uiso   1.00
H1123  H     0.02994   0.15484   0.64737   0.00000  Uiso   1.00
H1124  H     0.00269   0.07981   0.63140   0.00000  Uiso   1.00
H1125  H     0.01366   0.08968   0.67929   0.00000  Uiso   1.00
H1126  H     0.05109   0.06441   0.63753   0.00000  Uiso   1.00
H1127  H     0.02217   0.08083   0.78103   0.00000  Uiso   1.00
H1128  H     0.12245   0.08074   0.93182   0.00000  Uiso   1.00
H1129  H     0.15600   0.04643   0.94158   0.00000  Uiso   1.00
H1130  H     0.15749   0.06811   0.85952   0.00000  Uiso   1.00
H1131  H     0.19351   0.03668   0.86864   0.00000  Uiso   1.00
H1132  H     0.12995   0.31984   0.89905   0.00000  Uiso   1.00
H1133  H     0.13396   0.32485   0.84818   0.00000  Uiso   1.00
H1134  H     0.09446   0.01731   0.88766   0.00000  Uiso   1.00
H1135  H     0.26157   0.08017   0.83253   0.00000  Uiso   1.00
H1136  H     0.27852   0.04454   0.78855   0.00000  Uiso   1.00
H1137  H     0.32583   0.01574   0.81726   0.00000  Uiso   1.00
H1138  H     0.27317   0.01565   0.85229   0.00000  Uiso   1.00
H1139  H     0.31666   0.05441   0.86014   0.00000  Uiso   1.00
H1140  H     0.30558   0.07254   0.93540   0.00000  Uiso   1.00
N1141  N     0.01574   0.21370   0.57071   0.00000  Uiso   1.00
N1142  N     0.25917   0.01991   0.50871   0.00000  Uiso   1.00
N1143  N     0.04261   0.24400   0.71042   0.00000  Uiso   1.00
N1144  N     0.25791   0.02456   0.70380   0.00000  Uiso   1.00
N1145  N     0.07121   0.31401   0.79323   0.00000  Uiso   1.00
N1146  N     0.24987   0.05822   0.62263   0.00000  Uiso   1.00
N1147  N     0.02790   0.26830   0.50328   0.00000  Uiso   1.00
N1148  N     0.05619   0.25408   0.88890   0.00000  Uiso   1.00
O1149  O     0.16667   0.16667   0.75000   0.00000  Uiso   1.00
O1150  O     0.15693   0.12393   0.66625   0.00000  Uiso   1.00
O1151  O     0.12687   0.20646   0.83749   0.00000  Uiso   1.00
O1152  O     0.21088   0.17493   0.65877   0.00000  Uiso   1.00
O1153  O     0.17198   0.16135   0.83749   0.00000  Uiso   1.00
O1154  O     0.31459   0.11671   0.76949   0.00000  Uiso   1.00
O1155  O     0.24058   0.07535   0.95426   0.00000  Uiso   1.00
O1156  O     0.20033   0.17411   0.90125   0.00000  Uiso   1.00
O1157  O     0.09675   0.17099   0.58542   0.00000  Uiso   1.00
O1158  O     0.18752   0.10293   0.92096   0.00000  Uiso   1.00
O1159  O     0.17849   0.08101   0.77821   0.00000  Uiso   1.00
O1160  O     0.14581   0.26136   0.76767   0.00000  Uiso   1.00
O1161  O     0.07452   0.13251   0.73607   0.00000  Uiso   1.00
O1162  O     0.26785   0.19179   0.71806   0.00000  Uiso   1.00
O1163  O     0.06990   0.18960   0.77820   0.00000  Uiso   1.00
O1164  O     0.25440   0.15277   0.76768   0.00000  Uiso   1.00
O1165  O     0.13800   0.06903   0.73607   0.00000  Uiso   1.00
O1166  O     0.20437   0.25527   0.71806   0.00000  Uiso   1.00
Zn1167 Zn    0.19244   0.14090   0.78278   0.00000  Uiso   1.00
Zn1168 Zn    0.13459   0.12378   0.72258   0.00000  Uiso   1.00
Zn1169 Zn    0.21166   0.19664   0.71188   0.00000  Uiso   1.00
Zn1170 Zn    0.12798   0.20535   0.78277   0.00000  Uiso   1.00
C1171  C     0.38587   0.15929   0.75861   0.00000  Uiso   1.00
C1172  C     0.52017   0.11898   0.95962   0.00000  Uiso   1.00
C1173  C     0.54462   0.10138   0.97812   0.00000  Uiso   1.00
C1174  C     0.61427   0.17427   0.74185   0.00000  Uiso   1.00
C1175  C     0.53844   0.10966   0.51971   0.00000  Uiso   1.00
C1176  C     0.51149   0.14039   0.54100   0.00000  Uiso   1.00
C1177  C     0.55683   0.08742   0.54112   0.00000  Uiso   1.00
C1178  C     0.55227   0.09955   0.58197   0.00000  Uiso   1.00
C1179  C     0.51216   0.15501   0.58025   0.00000  Uiso   1.00
C1180  C     0.65950   0.18060   0.74230   0.00000  Uiso   1.00
C1181  C     0.34041   0.15424   0.76024   0.00000  Uiso   1.00
C1182  C     0.43101   0.21608   0.92321   0.00000  Uiso   1.00
C1183  C     0.51589   0.32277   0.74138   0.00000  Uiso   1.00
C1184  C     0.48333   0.01230   0.76084   0.00000  Uiso   1.00
C1185  C     0.48890   0.05626   0.75876   0.00000  Uiso   1.00
C1186  C     0.51036   0.27772   0.74176   0.00000  Uiso   1.00
C1187  C     0.52141   0.14507   0.64387   0.00000  Uiso   1.00
C1188  C     0.47870   0.18805   0.85650   0.00000  Uiso   1.00
C1189  C     0.46660   0.19513   0.90081   0.00000  Uiso   1.00
C1190  C     0.53079   0.13414   0.60095   0.00000  Uiso   1.00
C1191  C     0.41830   0.21812   0.96495   0.00000  Uiso   1.00
C1192  C     0.38177   0.20404   0.55068   0.00000  Uiso   1.00
C1193  C     0.49143   0.18042   0.92110   0.00000  Uiso   1.00
C1194  C     0.57670   0.04990   0.52299   0.00000  Uiso   1.00
C1195  C     0.35385   0.21588   0.72457   0.00000  Uiso   1.00
C1196  C     0.65985   0.09679   0.79665   0.00000  Uiso   1.00
C1197  C     0.62255   0.06413   0.81334   0.00000  Uiso   1.00
C1198  C     0.63547   0.03584   0.83727   0.00000  Uiso   1.00
C1199  C     0.55782   0.00898   0.72041   0.00000  Uiso   1.00
C1200  C     0.43950   0.32800   0.77885   0.00000  Uiso   1.00
C1201  C     0.56952   0.07656   0.60458   0.00000  Uiso   1.00
C1202  C     0.61641   0.09644   0.94796   0.00000  Uiso   1.00
C1203  C     0.62550   0.12890   0.91869   0.00000  Uiso   1.00
C1204  C     0.47422   0.17437   0.96179   0.00000  Uiso   1.00
C1205  C     0.34024   0.14400   0.90521   0.00000  Uiso   1.00
C1206  C     0.38648   0.24591   0.98655   0.00000  Uiso   1.00
C1207  C     0.40792   0.23718   0.90405   0.00000  Uiso   1.00
C1208  C     0.56032   0.21273   0.89999   0.00000  Uiso   1.00
C1209  C     0.59926   0.20942   0.86358   0.00000  Uiso   1.00
C1210  C     0.62971   0.24998   0.86065   0.00000  Uiso   1.00
C1211  C     0.40671   0.13135   0.59215   0.00000  Uiso   1.00
C1212  C     0.38613   0.13103   0.63680   0.00000  Uiso   1.00
C1213  C     0.36190   0.08850   0.64674   0.00000  Uiso   1.00
C1214  C     0.48796   0.06915   0.92162   0.00000  Uiso   1.00
C1215  C     0.43784   0.19490   0.98459   0.00000  Uiso   1.00
C1216  C     0.49400   0.04657   0.87962   0.00000  Uiso   1.00
C1217  C     0.46091   0.00813   0.87870   0.00000  Uiso   1.00
C1218  C     0.49380   0.15036   0.98072   0.00000  Uiso   1.00
C1219  C     0.48478   0.15610   0.52259   0.00000  Uiso   1.00
C1220  C     0.44637   0.17320   0.54488   0.00000  Uiso   1.00
C1221  C     0.42273   0.19145   0.52606   0.00000  Uiso   1.00
H1222  H     0.49757   0.18256   0.59560   0.00000  Uiso   1.00
H1223  H     0.62362   0.11150   0.97613   0.00000  Uiso   1.00
H1224  H     0.61388   0.11527   0.89245   0.00000  Uiso   1.00
H1225  H     0.60798   0.15610   0.93326   0.00000  Uiso   1.00
H1226  H     0.35208   0.15798   0.93129   0.00000  Uiso   1.00
H1227  H     0.34588   0.16789   0.88460   0.00000  Uiso   1.00
H1228  H     0.35871   0.11776   0.88946   0.00000  Uiso   1.00
H1229  H     0.57150   0.21972   0.92738   0.00000  Uiso   1.00
H1230  H     0.54369   0.23923   0.89779   0.00000  Uiso   1.00
H1231  H     0.61704   0.18379   0.86508   0.00000  Uiso   1.00
H1232  H     0.58795   0.20205   0.83633   0.00000  Uiso   1.00
H1233  H     0.66646   0.11940   0.82175   0.00000  Uiso   1.00
H1234  H     0.61325   0.27529   0.85615   0.00000  Uiso   1.00
H1235  H     0.65851   0.24589   0.83499   0.00000  Uiso   1.00
H1236  H     0.64028   0.25895   0.88820   0.00000  Uiso   1.00
H1237  H     0.42853   0.10657   0.58155   0.00000  Uiso   1.00
H1238  H     0.38065   0.12457   0.57674   0.00000  Uiso   1.00
H1239  H     0.41162   0.13921   0.65270   0.00000  Uiso   1.00
H1240  H     0.36328   0.15484   0.64737   0.00000  Uiso   1.00
H1241  H     0.33602   0.07981   0.63140   0.00000  Uiso   1.00
H1242  H     0.34700   0.08968   0.67929   0.00000  Uiso   1.00
H1243  H     0.38442   0.06441   0.63753   0.00000  Uiso   1.00
H1244  H     0.35550   0.08083   0.78103   0.00000  Uiso   1.00
H1245  H     0.45579   0.08074   0.93182   0.00000  Uiso   1.00
H1246  H     0.48933   0.04643   0.94158   0.00000  Uiso   1.00
H1247  H     0.49082   0.06811   0.85952   0.00000  Uiso   1.00
H1248  H     0.52685   0.03668   0.86864   0.00000  Uiso   1.00
H1249  H     0.46328   0.31984   0.89905   0.00000  Uiso   1.00
H1250  H     0.46729   0.32485   0.84818   0.00000  Uiso   1.00
H1251  H     0.42780   0.01731   0.88766   0.00000  Uiso   1.00
H1252  H     0.59490   0.08017   0.83253   0.00000  Uiso   1.00
H1253  H     0.61186   0.04454   0.78855   0.00000  Uiso   1.00
H1254  H     0.65916   0.01574   0.81726   0.00000  Uiso   1.00
H1255  H     0.60650   0.01565   0.85229   0.00000  Uiso   1.00
H1256  H     0.64999   0.05441   0.86014   0.00000  Uiso   1.00
H1257  H     0.63892   0.07254   0.93540   0.00000  Uiso   1.00
N1258  N     0.34907   0.21370   0.57071   0.00000  Uiso   1.00
N1259  N     0.59250   0.01991   0.50871   0.00000  Uiso   1.00
N1260  N     0.37595   0.24400   0.71042   0.00000  Uiso   1.00
N1261  N     0.59124   0.02456   0.70380   0.00000  Uiso   1.00
N1262  N     0.40454   0.31401   0.79323   0.00000  Uiso   1.00
N1263  N     0.58320   0.05822   0.62263   0.00000  Uiso   1.00
N1264  N     0.36124   0.26830   0.50328   0.00000  Uiso   1.00
N1265  N     0.38952   0.25408   0.88890   0.00000  Uiso   1.00
O1266  O     0.50000   0.16667   0.75000   0.00000  Uiso   1.00
O1267  O     0.49027   0.12393   0.66625   0.00000  Uiso   1.00
O1268  O     0.46020   0.20646   0.83749   0.00000  Uiso   1.00
O1269  O     0.54421   0.17493   0.65877   0.00000  Uiso   1.00
O1270  O     0.50532   0.16135   0.83749   0.00000  Uiso   1.00
O1271  O     0.64793   0.11671   0.76949   0.00000  Uiso   1.00
O1272  O     0.57391   0.07535   0.95426   0.00000  Uiso   1.00
O1273  O     0.53367   0.17411   0.90125   0.00000  Uiso   1.00
O1274  O     0.43008   0.17099   0.58542   0.00000  Uiso   1.00
O1275  O     0.52085   0.10293   0.92096   0.00000  Uiso   1.00
O1276  O     0.51182   0.08101   0.77821   0.00000  Uiso   1.00
O1277  O     0.47914   0.26136   0.76767   0.00000  Uiso   1.00
O1278  O     0.40785   0.13251   0.73607   0.00000  Uiso   1.00
O1279  O     0.60119   0.19179   0.71806   0.00000  Uiso   1.00
O1280  O     0.40323   0.18960   0.77820   0.00000  Uiso   1.00
O1281  O     0.58773   0.15277   0.76768   0.00000  Uiso   1.00
O1282  O     0.47133   0.06903   0.73607   0.00000  Uiso   1.00
O1283  O     0.53771   0.25527   0.71806   0.00000  Uiso   1.00
Zn1284 Zn    0.52577   0.14090   0.78278   0.00000  Uiso   1.00
Zn1285 Zn    0.46792   0.12378   0.72258   0.00000  Uiso   1.00
Zn1286 Zn    0.54500   0.19664   0.71188   0.00000  Uiso   1.00
Zn1287 Zn    0.46131   0.20535   0.78277   0.00000  Uiso   1.00
C1288  C     0.71921   0.15929   0.75861   0.00000  Uiso   1.00
C1289  C     0.85350   0.11898   0.95962   0.00000  Uiso   1.00
C1290  C     0.87796   0.10138   0.97812   0.00000  Uiso   1.00
C1291  C     0.94761   0.17427   0.74185   0.00000  Uiso   1.00
C1292  C     0.87177   0.10966   0.51971   0.00000  Uiso   1.00
C1293  C     0.84482   0.14039   0.54100   0.00000  Uiso   1.00
C1294  C     0.89016   0.08742   0.54112   0.00000  Uiso   1.00
C1295  C     0.88561   0.09955   0.58197   0.00000  Uiso   1.00
C1296  C     0.84550   0.15501   0.58025   0.00000  Uiso   1.00
C1297  C     0.99283   0.18060   0.74230   0.00000  Uiso   1.00
C1298  C     0.67375   0.15424   0.76024   0.00000  Uiso   1.00
C1299  C     0.76434   0.21608   0.92321   0.00000  Uiso   1.00
C1300  C     0.84922   0.32277   0.74138   0.00000  Uiso   1.00
C1301  C     0.81667   0.01230   0.76084   0.00000  Uiso   1.00
C1302  C     0.82224   0.05626   0.75876   0.00000  Uiso   1.00
C1303  C     0.84369   0.27772   0.74176   0.00000  Uiso   1.00
C1304  C     0.85474   0.14507   0.64387   0.00000  Uiso   1.00
C1305  C     0.81203   0.18805   0.85650   0.00000  Uiso   1.00
C1306  C     0.79993   0.19513   0.90081   0.00000  Uiso   1.00
C1307  C     0.86413   0.13414   0.60095   0.00000  Uiso   1.00
C1308  C     0.75163   0.21812   0.96495   0.00000  Uiso   1.00
C1309  C     0.71510   0.20404   0.55068   0.00000  Uiso   1.00
C1310  C     0.82476   0.18042   0.92110   0.00000  Uiso   1.00
C1311  C     0.91004   0.04990   0.52299   0.00000  Uiso   1.00
C1312  C     0.68718   0.21588   0.72457   0.00000  Uiso   1.00
C1313  C     0.99319   0.09679   0.79665   0.00000  Uiso   1.00
C1314  C     0.95588   0.06413   0.81334   0.00000  Uiso   1.00
C1315  C     0.96881   0.03584   0.83727   0.00000  Uiso   1.00
C1316  C     0.89115   0.00898   0.72041   0.00000  Uiso   1.00
C1317  C     0.77283   0.32800   0.77885   0.00000  Uiso   1.00
C1318  C     0.90285   0.07656   0.60458   0.00000  Uiso   1.00
C1319  C     0.94974   0.09644   0.94796   0.00000  Uiso   1.00
C1320  C     0.95883   0.12890   0.91869   0.00000  Uiso   1.00
C1321  C     0.80755   0.17437   0.96179   0.00000  Uiso   1.00
C1322  C     0.67357   0.14400   0.90521   0.00000  Uiso   1.00
C1323  C     0.71981   0.24591   0.98655   0.00000  Uiso   1.00
C1324  C     0.74126   0.23718   0.90405   0.00000  Uiso   1.00
C1325  C     0.89366   0.21273   0.89999   0.00000  Uiso   1.00
C1326  C     0.93259   0.20942   0.86358   0.00000  Uiso   1.00
C1327  C     0.96304   0.24998   0.86065   0.00000  Uiso   1.00
C1328  C     0.74005   0.13135   0.59215   0.00000  Uiso   1.00
C1329  C     0.71947   0.13103   0.63680   0.00000  Uiso   1.00
C1330  C     0.69524   0.08850   0.64674   0.00000  Uiso   1.00
C1331  C     0.82129   0.06915   0.92162   0.00000  Uiso   1.00
C1332  C     0.77118   0.19490   0.98459   0.00000  Uiso   1.00
C1333  C     0.82733   0.04657   0.87962   0.00000  Uiso   1.00
C1334  C     0.79425   0.00813   0.87870   0.00000  Uiso   1.00
C1335  C     0.82714   0.15036   0.98072   0.00000  Uiso   1.00
C1336  C     0.81811   0.15610   0.52259   0.00000  Uiso   1.00
C1337  C     0.77970   0.17320   0.54488   0.00000  Uiso   1.00
C1338  C     0.75607   0.19145   0.52606   0.00000  Uiso   1.00
H1339  H     0.83090   0.18256   0.59560   0.00000  Uiso   1.00
H1340  H     0.95695   0.11150   0.97613   0.00000  Uiso   1.00
H1341  H     0.94722   0.11527   0.89245   0.00000  Uiso   1.00
H1342  H     0.94132   0.15610   0.93326   0.00000  Uiso   1.00
H1343  H     0.68542   0.15798   0.93129   0.00000  Uiso   1.00
H1344  H     0.67922   0.16789   0.88460   0.00000  Uiso   1.00
H1345  H     0.69205   0.11776   0.88946   0.00000  Uiso   1.00
H1346  H     0.90484   0.21972   0.92738   0.00000  Uiso   1.00
H1347  H     0.87703   0.23923   0.89779   0.00000  Uiso   1.00
H1348  H     0.95038   0.18379   0.86508   0.00000  Uiso   1.00
H1349  H     0.92128   0.20205   0.83633   0.00000  Uiso   1.00
H1350  H     0.99979   0.11940   0.82175   0.00000  Uiso   1.00
H1351  H     0.94658   0.27529   0.85615   0.00000  Uiso   1.00
H1352  H     0.99185   0.24589   0.83499   0.00000  Uiso   1.00
H1353  H     0.97361   0.25895   0.88820   0.00000  Uiso   1.00
H1354  H     0.76186   0.10657   0.58155   0.00000  Uiso   1.00
H1355  H     0.71399   0.12457   0.57674   0.00000  Uiso   1.00
H1356  H     0.74496   0.13921   0.65270   0.00000  Uiso   1.00
H1357  H     0.69661   0.15484   0.64737   0.00000  Uiso   1.00
H1358  H     0.66935   0.07981   0.63140   0.00000  Uiso   1.00
H1359  H     0.68033   0.08968   0.67929   0.00000  Uiso   1.00
H1360  H     0.71775   0.06441   0.63753   0.00000  Uiso   1.00
H1361  H     0.68883   0.08083   0.78103   0.00000  Uiso   1.00
H1362  H     0.78912   0.08074   0.93182   0.00000  Uiso   1.00
H1363  H     0.82266   0.04643   0.94158   0.00000  Uiso   1.00
H1364  H     0.82416   0.06811   0.85952   0.00000  Uiso   1.00
H1365  H     0.86018   0.03668   0.86864   0.00000  Uiso   1.00
H1366  H     0.79661   0.31984   0.89905   0.00000  Uiso   1.00
H1367  H     0.80062   0.32485   0.84818   0.00000  Uiso   1.00
H1368  H     0.76113   0.01731   0.88766   0.00000  Uiso   1.00
H1369  H     0.92824   0.08017   0.83253   0.00000  Uiso   1.00
H1370  H     0.94519   0.04454   0.78855   0.00000  Uiso   1.00
H1371  H     0.99250   0.01574   0.81726   0.00000  Uiso   1.00
H1372  H     0.93983   0.01565   0.85229   0.00000  Uiso   1.00
H1373  H     0.98332   0.05441   0.86014   0.00000  Uiso   1.00
H1374  H     0.97225   0.07254   0.93540   0.00000  Uiso   1.00
N1375  N     0.68240   0.21370   0.57071   0.00000  Uiso   1.00
N1376  N     0.92583   0.01991   0.50871   0.00000  Uiso   1.00
N1377  N     0.70928   0.24400   0.71042   0.00000  Uiso   1.00
N1378  N     0.92457   0.02456   0.70380   0.00000  Uiso   1.00
N1379  N     0.73788   0.31401   0.79323   0.00000  Uiso   1.00
N1380  N     0.91653   0.05822   0.62263   0.00000  Uiso   1.00
N1381  N     0.69457   0.26830   0.50328   0.00000  Uiso   1.00
N1382  N     0.72285   0.25408   0.88890   0.00000  Uiso   1.00
O1383  O     0.83333   0.16667   0.75000   0.00000  Uiso   1.00
O1384  O     0.82360   0.12393   0.66625   0.00000  Uiso   1.00
O1385  O     0.79354   0.20646   0.83749   0.00000  Uiso   1.00
O1386  O     0.87755   0.17493   0.65877   0.00000  Uiso   1.00
O1387  O     0.83865   0.16135   0.83749   0.00000  Uiso   1.00
O1388  O     0.98126   0.11671   0.76949   0.00000  Uiso   1.00
O1389  O     0.90724   0.07535   0.95426   0.00000  Uiso   1.00
O1390  O     0.86700   0.17411   0.90125   0.00000  Uiso   1.00
O1391  O     0.76341   0.17099   0.58542   0.00000  Uiso   1.00
O1392  O     0.85419   0.10293   0.92096   0.00000  Uiso   1.00
O1393  O     0.84515   0.08101   0.77821   0.00000  Uiso   1.00
O1394  O     0.81247   0.26136   0.76767   0.00000  Uiso   1.00
O1395  O     0.74119   0.13251   0.73607   0.00000  Uiso   1.00
O1396  O     0.93452   0.19179   0.71806   0.00000  Uiso   1.00
O1397  O     0.73656   0.18960   0.77820   0.00000  Uiso   1.00
O1398  O     0.92106   0.15277   0.76768   0.00000  Uiso   1.00
O1399  O     0.80467   0.06903   0.73607   0.00000  Uiso   1.00
O1400  O     0.87104   0.25527   0.71806   0.00000  Uiso   1.00
Zn1401 Zn    0.85910   0.14090   0.78278   0.00000  Uiso   1.00
Zn1402 Zn    0.80125   0.12378   0.72258   0.00000  Uiso   1.00
Zn1403 Zn    0.87833   0.19664   0.71188   0.00000  Uiso   1.00
Zn1404 Zn    0.79465   0.20535   0.78277   0.00000  Uiso   1.00
C1405  C     0.05254   0.49262   0.75861   0.00000  Uiso   1.00
C1406  C     0.18684   0.45232   0.95962   0.00000  Uiso   1.00
C1407  C     0.21129   0.43471   0.97812   0.00000  Uiso   1.00
C1408  C     0.28094   0.50760   0.74185   0.00000  Uiso   1.00
C1409  C     0.20510   0.44299   0.51971   0.00000  Uiso   1.00
C1410  C     0.17816   0.47372   0.54100   0.00000  Uiso   1.00
C1411  C     0.22350   0.42076   0.54112   0.00000  Uiso   1.00
C1412  C     0.21894   0.43288   0.58197   0.00000  Uiso   1.00
C1413  C     0.17883   0.48835   0.58025   0.00000  Uiso   1.00
C1414  C     0.32616   0.51393   0.74230   0.00000  Uiso   1.00
C1415  C     0.00708   0.48757   0.76024   0.00000  Uiso   1.00
C1416  C     0.09767   0.54942   0.92321   0.00000  Uiso   1.00
C1417  C     0.18255   0.65610   0.74138   0.00000  Uiso   1.00
C1418  C     0.15000   0.34563   0.76084   0.00000  Uiso   1.00
C1419  C     0.15557   0.38959   0.75876   0.00000  Uiso   1.00
C1420  C     0.17702   0.61106   0.74176   0.00000  Uiso   1.00
C1421  C     0.18808   0.47840   0.64387   0.00000  Uiso   1.00
C1422  C     0.14537   0.52138   0.85650   0.00000  Uiso   1.00
C1423  C     0.13326   0.52846   0.90081   0.00000  Uiso   1.00
C1424  C     0.19746   0.46747   0.60095   0.00000  Uiso   1.00
C1425  C     0.08497   0.55146   0.96495   0.00000  Uiso   1.00
C1426  C     0.04844   0.53737   0.55068   0.00000  Uiso   1.00
C1427  C     0.15810   0.51375   0.92110   0.00000  Uiso   1.00
C1428  C     0.24337   0.38323   0.52299   0.00000  Uiso   1.00
C1429  C     0.02052   0.54922   0.72457   0.00000  Uiso   1.00
C1430  C     0.32652   0.43012   0.79665   0.00000  Uiso   1.00
C1431  C     0.28921   0.39747   0.81334   0.00000  Uiso   1.00
C1432  C     0.30214   0.36917   0.83727   0.00000  Uiso   1.00
C1433  C     0.22449   0.34231   0.72041   0.00000  Uiso   1.00
C1434  C     0.10617   0.66133   0.77885   0.00000  Uiso   1.00
C1435  C     0.23618   0.40990   0.60458   0.00000  Uiso   1.00
C1436  C     0.28307   0.42977   0.94796   0.00000  Uiso   1.00
C1437  C     0.29216   0.46223   0.91869   0.00000  Uiso   1.00
C1438  C     0.14088   0.50770   0.96179   0.00000  Uiso   1.00
C1439  C     0.00691   0.47734   0.90521   0.00000  Uiso   1.00
C1440  C     0.05314   0.57924   0.98655   0.00000  Uiso   1.00
C1441  C     0.07459   0.57051   0.90405   0.00000  Uiso   1.00
C1442  C     0.22699   0.54606   0.89999   0.00000  Uiso   1.00
C1443  C     0.26592   0.54275   0.86358   0.00000  Uiso   1.00
C1444  C     0.29637   0.58331   0.86065   0.00000  Uiso   1.00
C1445  C     0.07338   0.46468   0.59215   0.00000  Uiso   1.00
C1446  C     0.05280   0.46436   0.63680   0.00000  Uiso   1.00
C1447  C     0.02857   0.42184   0.64674   0.00000  Uiso   1.00
C1448  C     0.15463   0.40248   0.92162   0.00000  Uiso   1.00
C1449  C     0.10451   0.52823   0.98459   0.00000  Uiso   1.00
C1450  C     0.16066   0.37990   0.87962   0.00000  Uiso   1.00
C1451  C     0.12758   0.34146   0.87870   0.00000  Uiso   1.00
C1452  C     0.16047   0.48369   0.98072   0.00000  Uiso   1.00
C1453  C     0.15144   0.48943   0.52259   0.00000  Uiso   1.00
C1454  C     0.11304   0.50653   0.54488   0.00000  Uiso   1.00
C1455  C     0.08940   0.52478   0.52606   0.00000  Uiso   1.00
H1456  H     0.16423   0.51589   0.59560   0.00000  Uiso   1.00
H1457  H     0.29028   0.44483   0.97613   0.00000  Uiso   1.00
H1458  H     0.28055   0.44860   0.89245   0.00000  Uiso   1.00
H1459  H     0.27465   0.48944   0.93326   0.00000  Uiso   1.00
H1460  H     0.01875   0.49132   0.93129   0.00000  Uiso   1.00
H1461  H     0.01255   0.50122   0.88460   0.00000  Uiso   1.00
H1462  H     0.02538   0.45109   0.88946   0.00000  Uiso   1.00
H1463  H     0.23817   0.55305   0.92738   0.00000  Uiso   1.00
H1464  H     0.21036   0.57257   0.89779   0.00000  Uiso   1.00
H1465  H     0.28371   0.51712   0.86508   0.00000  Uiso   1.00
H1466  H     0.25461   0.53538   0.83633   0.00000  Uiso   1.00
H1467  H     0.33312   0.45273   0.82175   0.00000  Uiso   1.00
H1468  H     0.27992   0.60862   0.85615   0.00000  Uiso   1.00
H1469  H     0.32518   0.57922   0.83499   0.00000  Uiso   1.00
H1470  H     0.30695   0.59228   0.88820   0.00000  Uiso   1.00
H1471  H     0.09520   0.43990   0.58155   0.00000  Uiso   1.00
H1472  H     0.04732   0.45790   0.57674   0.00000  Uiso   1.00
H1473  H     0.07829   0.47255   0.65270   0.00000  Uiso   1.00
H1474  H     0.02994   0.48817   0.64737   0.00000  Uiso   1.00
H1475  H     0.00269   0.41314   0.63140   0.00000  Uiso   1.00
H1476  H     0.01366   0.42302   0.67929   0.00000  Uiso   1.00
H1477  H     0.05109   0.39774   0.63753   0.00000  Uiso   1.00
H1478  H     0.02217   0.41416   0.78103   0.00000  Uiso   1.00
H1479  H     0.12245   0.41408   0.93182   0.00000  Uiso   1.00
H1480  H     0.15600   0.37976   0.94158   0.00000  Uiso   1.00
H1481  H     0.15749   0.40144   0.85952   0.00000  Uiso   1.00
H1482  H     0.19351   0.37001   0.86864   0.00000  Uiso   1.00
H1483  H     0.12995   0.65318   0.89905   0.00000  Uiso   1.00
H1484  H     0.13396   0.65818   0.84818   0.00000  Uiso   1.00
H1485  H     0.09446   0.35064   0.88766   0.00000  Uiso   1.00
H1486  H     0.26157   0.41350   0.83253   0.00000  Uiso   1.00
H1487  H     0.27852   0.37787   0.78855   0.00000  Uiso   1.00
H1488  H     0.32583   0.34907   0.81726   0.00000  Uiso   1.00
H1489  H     0.27317   0.34899   0.85229   0.00000  Uiso   1.00
H1490  H     0.31666   0.38774   0.86014   0.00000  Uiso   1.00
H1491  H     0.30558   0.40588   0.93540   0.00000  Uiso   1.00
N1492  N     0.01574   0.54703   0.57071   0.00000  Uiso   1.00
N1493  N     0.25917   0.35324   0.50871   0.00000  Uiso   1.00
N1494  N     0.04261   0.57733   0.71042   0.00000  Uiso   1.00
N1495  N     0.25791   0.35790   0.70380   0.00000  Uiso   1.00
N1496  N     0.07121   0.64735   0.79323   0.00000  Uiso   1.00
N1497  N     0.24987   0.39155   0.62263   0.00000  Uiso   1.00
N1498  N     0.02790   0.60163   0.50328   0.00000  Uiso   1.00
N1499  N     0.05619   0.58741   0.88890   0.00000  Uiso   1.00
O1500  O     0.16667   0.50000   0.75000   0.00000  Uiso   1.00
O1501  O     0.15693   0.45726   0.66625   0.00000  Uiso   1.00
O1502  O     0.12687   0.53979   0.83749   0.00000  Uiso   1.00
O1503  O     0.21088   0.50826   0.65877   0.00000  Uiso   1.00
O1504  O     0.17198   0.49468   0.83749   0.00000  Uiso   1.00
O1505  O     0.31459   0.45004   0.76949   0.00000  Uiso   1.00
O1506  O     0.24058   0.40869   0.95426   0.00000  Uiso   1.00
O1507  O     0.20033   0.50745   0.90125   0.00000  Uiso   1.00
O1508  O     0.09675   0.50432   0.58542   0.00000  Uiso   1.00
O1509  O     0.18752   0.43627   0.92096   0.00000  Uiso   1.00
O1510  O     0.17849   0.41434   0.77821   0.00000  Uiso   1.00
O1511  O     0.14581   0.59469   0.76767   0.00000  Uiso   1.00
O1512  O     0.07452   0.46584   0.73607   0.00000  Uiso   1.00
O1513  O     0.26785   0.52512   0.71806   0.00000  Uiso   1.00
O1514  O     0.06990   0.52293   0.77820   0.00000  Uiso   1.00
O1515  O     0.25440   0.48610   0.76768   0.00000  Uiso   1.00
O1516  O     0.13800   0.40236   0.73607   0.00000  Uiso   1.00
O1517  O     0.20437   0.58860   0.71806   0.00000  Uiso   1.00
Zn1518 Zn    0.19244   0.47423   0.78278   0.00000  Uiso   1.00
Zn1519 Zn    0.13459   0.45711   0.72258   0.00000  Uiso   1.00
Zn1520 Zn    0.21166   0.52997   0.71188   0.00000  Uiso   1.00
Zn1521 Zn    0.12798   0.53868   0.78277   0.00000  Uiso   1.00
C1522  C     0.38587   0.49262   0.75861   0.00000  Uiso   1.00
C1523  C     0.52017   0.45232   0.95962   0.00000  Uiso   1.00
C1524  C     0.54462   0.43471   0.97812   0.00000  Uiso   1.00
C1525  C     0.61427   0.50760   0.74185   0.00000  Uiso   1.00
C1526  C     0.53844   0.44299   0.51971   0.00000  Uiso   1.00
C1527  C     0.51149   0.47372   0.54100   0.00000  Uiso   1.00
C1528  C     0.55683   0.42076   0.54112   0.00000  Uiso   1.00
C1529  C     0.55227   0.43288   0.58197   0.00000  Uiso   1.00
C1530  C     0.51216   0.48835   0.58025   0.00000  Uiso   1.00
C1531  C     0.65950   0.51393   0.74230   0.00000  Uiso   1.00
C1532  C     0.34041   0.48757   0.76024   0.00000  Uiso   1.00
C1533  C     0.43101   0.54942   0.92321   0.00000  Uiso   1.00
C1534  C     0.51589   0.65610   0.74138   0.00000  Uiso   1.00
C1535  C     0.48333   0.34563   0.76084   0.00000  Uiso   1.00
C1536  C     0.48890   0.38959   0.75876   0.00000  Uiso   1.00
C1537  C     0.51036   0.61106   0.74176   0.00000  Uiso   1.00
C1538  C     0.52141   0.47840   0.64387   0.00000  Uiso   1.00
C1539  C     0.47870   0.52138   0.85650   0.00000  Uiso   1.00
C1540  C     0.46660   0.52846   0.90081   0.00000  Uiso   1.00
C1541  C     0.53079   0.46747   0.60095   0.00000  Uiso   1.00
C1542  C     0.41830   0.55146   0.96495   0.00000  Uiso   1.00
C1543  C     0.38177   0.53737   0.55068   0.00000  Uiso   1.00
C1544  C     0.49143   0.51375   0.92110   0.00000  Uiso   1.00
C1545  C     0.57670   0.38323   0.52299   0.00000  Uiso   1.00
C1546  C     0.35385   0.54922   0.72457   0.00000  Uiso   1.00
C1547  C     0.65985   0.43012   0.79665   0.00000  Uiso   1.00
C1548  C     0.62255   0.39747   0.81334   0.00000  Uiso   1.00
C1549  C     0.63547   0.36917   0.83727   0.00000  Uiso   1.00
C1550  C     0.55782   0.34231   0.72041   0.00000  Uiso   1.00
C1551  C     0.43950   0.66133   0.77885   0.00000  Uiso   1.00
C1552  C     0.56952   0.40990   0.60458   0.00000  Uiso   1.00
C1553  C     0.61641   0.42977   0.94796   0.00000  Uiso   1.00
C1554  C     0.62550   0.46223   0.91869   0.00000  Uiso   1.00
C1555  C     0.47422   0.50770   0.96179   0.00000  Uiso   1.00
C1556  C     0.34024   0.47734   0.90521   0.00000  Uiso   1.00
C1557  C     0.38648   0.57924   0.98655   0.00000  Uiso   1.00
C1558  C     0.40792   0.57051   0.90405   0.00000  Uiso   1.00
C1559  C     0.56032   0.54606   0.89999   0.00000  Uiso   1.00
C1560  C     0.59926   0.54275   0.86358   0.00000  Uiso   1.00
C1561  C     0.62971   0.58331   0.86065   0.00000  Uiso   1.00
C1562  C     0.40671   0.46468   0.59215   0.00000  Uiso   1.00
C1563  C     0.38613   0.46436   0.63680   0.00000  Uiso   1.00
C1564  C     0.36190   0.42184   0.64674   0.00000  Uiso   1.00
C1565  C     0.48796   0.40248   0.92162   0.00000  Uiso   1.00
C1566  C     0.43784   0.52823   0.98459   0.00000  Uiso   1.00
C1567  C     0.49400   0.37990   0.87962   0.00000  Uiso   1.00
C1568  C     0.46091   0.34146   0.87870   0.00000  Uiso   1.00
C1569  C     0.49380   0.48369   0.98072   0.00000  Uiso   1.00
C1570  C     0.48478   0.48943   0.52259   0.00000  Uiso   1.00
C1571  C     0.44637   0.50653   0.54488   0.00000  Uiso   1.00
C1572  C     0.42273   0.52478   0.52606   0.00000  Uiso   1.00
H1573  H     0.49757   0.51589   0.59560   0.00000  Uiso   1.00
H1574  H     0.62362   0.44483   0.97613   0.00000  Uiso   1.00
H1575  H     0.61388   0.44860   0.89245   0.00000  Uiso   1.00
H1576  H     0.60798   0.48944   0.93326   0.00000  Uiso   1.00
H1577  H     0.35208   0.49132   0.93129   0.00000  Uiso   1.00
H1578  H     0.34588   0.50122   0.88460   0.00000  Uiso   1.00
H1579  H     0.35871   0.45109   0.88946   0.00000  Uiso   1.00
H1580  H     0.57150   0.55305   0.92738   0.00000  Uiso   1.00
H1581  H     0.54369   0.57257   0.89779   0.00000  Uiso   1.00
H1582  H     0.61704   0.51712   0.86508   0.00000  Uiso   1.00
H1583  H     0.58795   0.53538   0.83633   0.00000  Uiso   1.00
H1584  H     0.66646   0.45273   0.82175   0.00000  Uiso   1.00
H1585  H     0.61325   0.60862   0.85615   0.00000  Uiso   1.00
H1586  H     0.65851   0.57922   0.83499   0.00000  Uiso   1.00
H1587  H     0.64028   0.59228   0.88820   0.00000  Uiso   1.00
H1588  H     0.42853   0.43990   0.58155   0.00000  Uiso   1.00
H1589  H     0.38065   0.45790   0.57674   0.00000  Uiso   1.00
H1590  H     0.41162   0.47255   0.65270   0.00000  Uiso   1.00
H1591  H     0.36328   0.48817   0.64737   0.00000  Uiso   1.00
H1592  H     0.33602   0.41314   0.63140   0.00000  Uiso   1.00
H1593  H     0.34700   0.42302   0.67929   0.00000  Uiso   1.00
H1594  H     0.38442   0.39774   0.63753   0.00000  Uiso   1.00
H1595  H     0.35550   0.41416   0.78103   0.00000  Uiso   1.00
H1596  H     0.45579   0.41408   0.93182   0.00000  Uiso   1.00
H1597  H     0.48933   0.37976   0.94158   0.00000  Uiso   1.00
H1598  H     0.49082   0.40144   0.85952   0.00000  Uiso   1.00
H1599  H     0.52685   0.37001   0.86864   0.00000  Uiso   1.00
H1600  H     0.46328   0.65318   0.89905   0.00000  Uiso   1.00
H1601  H     0.46729   0.65818   0.84818   0.00000  Uiso   1.00
H1602  H     0.42780   0.35064   0.88766   0.00000  Uiso   1.00
H1603  H     0.59490   0.41350   0.83253   0.00000  Uiso   1.00
H1604  H     0.61186   0.37787   0.78855   0.00000  Uiso   1.00
H1605  H     0.65916   0.34907   0.81726   0.00000  Uiso   1.00
H1606  H     0.60650   0.34899   0.85229   0.00000  Uiso   1.00
H1607  H     0.64999   0.38774   0.86014   0.00000  Uiso   1.00
H1608  H     0.63892   0.40588   0.93540   0.00000  Uiso   1.00
N1609  N     0.34907   0.54703   0.57071   0.00000  Uiso   1.00
N1610  N     0.59250   0.35324   0.50871   0.00000  Uiso   1.00
N1611  N     0.37595   0.57733   0.71042   0.00000  Uiso   1.00
N1612  N     0.59124   0.35790   0.70380   0.00000  Uiso   1.00
N1613  N     0.40454   0.64735   0.79323   0.00000  Uiso   1.00
N1614  N     0.58320   0.39155   0.62263   0.00000  Uiso   1.00
N1615  N     0.36124   0.60163   0.50328   0.00000  Uiso   1.00
N1616  N     0.38952   0.58741   0.88890   0.00000  Uiso   1.00
O1617  O     0.50000   0.50000   0.75000   0.00000  Uiso   1.00
O1618  O     0.49027   0.45726   0.66625   0.00000  Uiso   1.00
O1619  O     0.46020   0.53979   0.83749   0.00000  Uiso   1.00
O1620  O     0.54421   0.50826   0.65877   0.00000  Uiso   1.00
O1621  O     0.50532   0.49468   0.83749   0.00000  Uiso   1.00
O1622  O     0.64793   0.45004   0.76949   0.00000  Uiso   1.00
O1623  O     0.57391   0.40869   0.95426   0.00000  Uiso   1.00
O1624  O     0.53367   0.50745   0.90125   0.00000  Uiso   1.00
O1625  O     0.43008   0.50432   0.58542   0.00000  Uiso   1.00
O1626  O     0.52085   0.43627   0.92096   0.00000  Uiso   1.00
O1627  O     0.51182   0.41434   0.77821   0.00000  Uiso   1.00
O1628  O     0.47914   0.59469   0.76767   0.00000  Uiso   1.00
O1629  O     0.40785   0.46584   0.73607   0.00000  Uiso   1.00
O1630  O     0.60119   0.52512   0.71806   0.00000  Uiso   1.00
O1631  O     0.40323   0.52293   0.77820   0.00000  Uiso   1.00
O1632  O     0.58773   0.48610   0.76768   0.00000  Uiso   1.00
O1633  O     0.47133   0.40236   0.73607   0.00000  Uiso   1.00
O1634  O     0.53771   0.58860   0.71806   0.00000  Uiso   1.00
Zn1635 Zn    0.52577   0.47423   0.78278   0.00000  Uiso   1.00
Zn1636 Zn    0.46792   0.45711   0.72258   0.00000  Uiso   1.00
Zn1637 Zn    0.54500   0.52997   0.71188   0.00000  Uiso   1.00
Zn1638 Zn    0.46131   0.53868   0.78277   0.00000  Uiso   1.00
C1639  C     0.71921   0.49262   0.75861   0.00000  Uiso   1.00
C1640  C     0.85350   0.45232   0.95962   0.00000  Uiso   1.00
C1641  C     0.87796   0.43471   0.97812   0.00000  Uiso   1.00
C1642  C     0.94761   0.50760   0.74185   0.00000  Uiso   1.00
C1643  C     0.87177   0.44299   0.51971   0.00000  Uiso   1.00
C1644  C     0.84482   0.47372   0.54100   0.00000  Uiso   1.00
C1645  C     0.89016   0.42076   0.54112   0.00000  Uiso   1.00
C1646  C     0.88561   0.43288   0.58197   0.00000  Uiso   1.00
C1647  C     0.84550   0.48835   0.58025   0.00000  Uiso   1.00
C1648  C     0.99283   0.51393   0.74230   0.00000  Uiso   1.00
C1649  C     0.67375   0.48757   0.76024   0.00000  Uiso   1.00
C1650  C     0.76434   0.54942   0.92321   0.00000  Uiso   1.00
C1651  C     0.84922   0.65610   0.74138   0.00000  Uiso   1.00
C1652  C     0.81667   0.34563   0.76084   0.00000  Uiso   1.00
C1653  C     0.82224   0.38959   0.75876   0.00000  Uiso   1.00
C1654  C     0.84369   0.61106   0.74176   0.00000  Uiso   1.00
C1655  C     0.85474   0.47840   0.64387   0.00000  Uiso   1.00
C1656  C     0.81203   0.52138   0.85650   0.00000  Uiso   1.00
C1657  C     0.79993   0.52846   0.90081   0.00000  Uiso   1.00
C1658  C     0.86413   0.46747   0.60095   0.00000  Uiso   1.00
C1659  C     0.75163   0.55146   0.96495   0.00000  Uiso   1.00
C1660  C     0.71510   0.53737   0.55068   0.00000  Uiso   1.00
C1661  C     0.82476   0.51375   0.92110   0.00000  Uiso   1.00
C1662  C     0.91004   0.38323   0.52299   0.00000  Uiso   1.00
C1663  C     0.68718   0.54922   0.72457   0.00000  Uiso   1.00
C1664  C     0.99319   0.43012   0.79665   0.00000  Uiso   1.00
C1665  C     0.95588   0.39747   0.81334   0.00000  Uiso   1.00
C1666  C     0.96881   0.36917   0.83727   0.00000  Uiso   1.00
C1667  C     0.89115   0.34231   0.72041   0.00000  Uiso   1.00
C1668  C     0.77283   0.66133   0.77885   0.00000  Uiso   1.00
C1669  C     0.90285   0.40990   0.60458   0.00000  Uiso   1.00
C1670  C     0.94974   0.42977   0.94796   0.00000  Uiso   1.00
C1671  C     0.95883   0.46223   0.91869   0.00000  Uiso   1.00
C1672  C     0.80755   0.50770   0.96179   0.00000  Uiso   1.00
C1673  C     0.67357   0.47734   0.90521   0.00000  Uiso   1.00
C1674  C     0.71981   0.57924   0.98655   0.00000  Uiso   1.00
C1675  C     0.74126   0.57051   0.90405   0.00000  Uiso   1.00
C1676  C     0.89366   0.54606   0.89999   0.00000  Uiso   1.00
C1677  C     0.93259   0.54275   0.86358   0.00000  Uiso   1.00
C1678  C     0.96304   0.58331   0.86065   0.00000  Uiso   1.00
C1679  C     0.74005   0.46468   0.59215   0.00000  Uiso   1.00
C1680  C     0.71947   0.46436   0.63680   0.00000  Uiso   1.00
C1681  C     0.69524   0.42184   0.64674   0.00000  Uiso   1.00
C1682  C     0.82129   0.40248   0.92162   0.00000  Uiso   1.00
C1683  C     0.77118   0.52823   0.98459   0.00000  Uiso   1.00
C1684  C     0.82733   0.37990   0.87962   0.00000  Uiso   1.00
C1685  C     0.79425   0.34146   0.87870   0.00000  Uiso   1.00
C1686  C     0.82714   0.48369   0.98072   0.00000  Uiso   1.00
C1687  C     0.81811   0.48943   0.52259   0.00000  Uiso   1.00
C1688  C     0.77970   0.50653   0.54488   0.00000  Uiso   1.00
C1689  C     0.75607   0.52478   0.52606   0.00000  Uiso   1.00
H1690  H     0.83090   0.51589   0.59560   0.00000  Uiso   1.00
H1691  H     0.95695   0.44483   0.97613   0.00000  Uiso   1.00
H1692  H     0.94722   0.44860   0.89245   0.00000  Uiso   1.00
H1693  H     0.94132   0.48944   0.93326   0.00000  Uiso   1.00
H1694  H     0.68542   0.49132   0.93129   0.00000  Uiso   1.00
H1695  H     0.67922   0.50122   0.88460   0.00000  Uiso   1.00
H1696  H     0.69205   0.45109   0.88946   0.00000  Uiso   1.00
H1697  H     0.90484   0.55305   0.92738   0.00000  Uiso   1.00
H1698  H     0.87703   0.57257   0.89779   0.00000  Uiso   1.00
H1699  H     0.95038   0.51712   0.86508   0.00000  Uiso   1.00
H1700  H     0.92128   0.53538   0.83633   0.00000  Uiso   1.00
H1701  H     0.99979   0.45273   0.82175   0.00000  Uiso   1.00
H1702  H     0.94658   0.60862   0.85615   0.00000  Uiso   1.00
H1703  H     0.99185   0.57922   0.83499   0.00000  Uiso   1.00
H1704  H     0.97361   0.59228   0.88820   0.00000  Uiso   1.00
H1705  H     0.76186   0.43990   0.58155   0.00000  Uiso   1.00
H1706  H     0.71399   0.45790   0.57674   0.00000  Uiso   1.00
H1707  H     0.74496   0.47255   0.65270   0.00000  Uiso   1.00
H1708  H     0.69661   0.48817   0.64737   0.00000  Uiso   1.00
H1709  H     0.66935   0.41314   0.63140   0.00000  Uiso   1.00
H1710  H     0.68033   0.42302   0.67929   0.00000  Uiso   1.00
H1711  H     0.71775   0.39774   0.63753   0.00000  Uiso   1.00
H1712  H     0.68883   0.41416   0.78103   0.00000  Uiso   1.00
H1713  H     0.78912   0.41408   0.93182   0.00000  Uiso   1.00
H1714  H     0.82266   0.37976   0.94158   0.00000  Uiso   1.00
H1715  H     0.82416   0.40144   0.85952   0.00000  Uiso   1.00
H1716  H     0.86018   0.37001   0.86864   0.00000  Uiso   1.00
H1717  H     0.79661   0.65318   0.89905   0.00000  Uiso   1.00
H1718  H     0.80062   0.65818   0.84818   0.00000  Uiso   1.00
H1719  H     0.76113   0.35064   0.88766   0.00000  Uiso   1.00
H1720  H     0.92824   0.41350   0.83253   0.00000  Uiso   1.00
H1721  H     0.94519   0.37787   0.78855   0.00000  Uiso   1.00
H1722  H     0.99250   0.34907   0.81726   0.00000  Uiso   1.00
H1723  H     0.93983   0.34899   0.85229   0.00000  Uiso   1.00
H1724  H     0.98332   0.38774   0.86014   0.00000  Uiso   1.00
H1725  H     0.97225   0.40588   0.93540   0.00000  Uiso   1.00
N1726  N     0.68240   0.54703   0.57071   0.00000  Uiso   1.00
N1727  N     0.92583   0.35324   0.50871   0.00000  Uiso   1.00
N1728  N     0.70928   0.57733   0.71042   0.00000  Uiso   1.00
N1729  N     0.92457   0.35790   0.70380   0.00000  Uiso   1.00
N1730  N     0.73788   0.64735   0.79323   0.00000  Uiso   1.00
N1731  N     0.91653   0.39155   0.62263   0.00000  Uiso   1.00
N1732  N     0.69457   0.60163   0.50328   0.00000  Uiso   1.00
N1733  N     0.72285   0.58741   0.88890   0.00000  Uiso   1.00
O1734  O     0.83333   0.50000   0.75000   0.00000  Uiso   1.00
O1735  O     0.82360   0.45726   0.66625   0.00000  Uiso   1.00
O1736  O     0.79354   0.53979   0.83749   0.00000  Uiso   1.00
O1737  O     0.87755   0.50826   0.65877   0.00000  Uiso   1.00
O1738  O     0.83865   0.49468   0.83749   0.00000  Uiso   1.00
O1739  O     0.98126   0.45004   0.76949   0.00000  Uiso   1.00
O1740  O     0.90724   0.40869   0.95426   0.00000  Uiso   1.00
O1741  O     0.86700   0.50745   0.90125   0.00000  Uiso   1.00
O1742  O     0.76341   0.50432   0.58542   0.00000  Uiso   1.00
O1743  O     0.85419   0.43627   0.92096   0.00000  Uiso   1.00
O1744  O     0.84515   0.41434   0.77821   0.00000  Uiso   1.00
O1745  O     0.81247   0.59469   0.76767   0.00000  Uiso   1.00
O1746  O     0.74119   0.46584   0.73607   0.00000  Uiso   1.00
O1747  O     0.93452   0.52512   0.71806   0.00000  Uiso   1.00
O1748  O     0.73656   0.52293   0.77820   0.00000  Uiso   1.00
O1749  O     0.92106   0.48610   0.76768   0.00000  Uiso   1.00
O1750  O     0.80467   0.40236   0.73607   0.00000  Uiso   1.00
O1751  O     0.87104   0.58860   0.71806   0.00000  Uiso   1.00
Zn1752 Zn    0.85910   0.47423   0.78278   0.00000  Uiso   1.00
Zn1753 Zn    0.80125   0.45711   0.72258   0.00000  Uiso   1.00
Zn1754 Zn    0.87833   0.52997   0.71188   0.00000  Uiso   1.00
Zn1755 Zn    0.79465   0.53868   0.78277   0.00000  Uiso   1.00
C1756  C     0.05254   0.82596   0.75861   0.00000  Uiso   1.00
C1757  C     0.18684   0.78565   0.95962   0.00000  Uiso   1.00
C1758  C     0.21129   0.76804   0.97812   0.00000  Uiso   1.00
C1759  C     0.28094   0.84093   0.74185   0.00000  Uiso   1.00
C1760  C     0.20510   0.77632   0.51971   0.00000  Uiso   1.00
C1761  C     0.17816   0.80706   0.54100   0.00000  Uiso   1.00
C1762  C     0.22350   0.75409   0.54112   0.00000  Uiso   1.00
C1763  C     0.21894   0.76621   0.58197   0.00000  Uiso   1.00
C1764  C     0.17883   0.82168   0.58025   0.00000  Uiso   1.00
C1765  C     0.32616   0.84727   0.74230   0.00000  Uiso   1.00
C1766  C     0.00708   0.82091   0.76024   0.00000  Uiso   1.00
C1767  C     0.09767   0.88275   0.92321   0.00000  Uiso   1.00
C1768  C     0.18255   0.98944   0.74138   0.00000  Uiso   1.00
C1769  C     0.15000   0.67896   0.76084   0.00000  Uiso   1.00
C1770  C     0.15557   0.72292   0.75876   0.00000  Uiso   1.00
C1771  C     0.17702   0.94439   0.74176   0.00000  Uiso   1.00
C1772  C     0.18808   0.81173   0.64387   0.00000  Uiso   1.00
C1773  C     0.14537   0.85471   0.85650   0.00000  Uiso   1.00
C1774  C     0.13326   0.86180   0.90081   0.00000  Uiso   1.00
C1775  C     0.19746   0.80081   0.60095   0.00000  Uiso   1.00
C1776  C     0.08497   0.88479   0.96495   0.00000  Uiso   1.00
C1777  C     0.04844   0.87070   0.55068   0.00000  Uiso   1.00
C1778  C     0.15810   0.84709   0.92110   0.00000  Uiso   1.00
C1779  C     0.24337   0.71656   0.52299   0.00000  Uiso   1.00
C1780  C     0.02052   0.88255   0.72457   0.00000  Uiso   1.00
C1781  C     0.32652   0.76346   0.79665   0.00000  Uiso   1.00
C1782  C     0.28921   0.73080   0.81334   0.00000  Uiso   1.00
C1783  C     0.30214   0.70251   0.83727   0.00000  Uiso   1.00
C1784  C     0.22449   0.67564   0.72041   0.00000  Uiso   1.00
C1785  C     0.10617   0.99466   0.77885   0.00000  Uiso   1.00
C1786  C     0.23618   0.74323   0.60458   0.00000  Uiso   1.00
C1787  C     0.28307   0.76310   0.94796   0.00000  Uiso   1.00
C1788  C     0.29216   0.79557   0.91869   0.00000  Uiso   1.00
C1789  C     0.14088   0.84103   0.96179   0.00000  Uiso   1.00
C1790  C     0.00691   0.81067   0.90521   0.00000  Uiso   1.00
C1791  C     0.05314   0.91257   0.98655   0.00000  Uiso   1.00
C1792  C     0.07459   0.90385   0.90405   0.00000  Uiso   1.00
C1793  C     0.22699   0.87939   0.89999   0.00000  Uiso   1.00
C1794  C     0.26592   0.87609   0.86358   0.00000  Uiso   1.00
C1795  C     0.29637   0.91665   0.86065   0.00000  Uiso   1.00
C1796  C     0.07338   0.79802   0.59215   0.00000  Uiso   1.00
C1797  C     0.05280   0.79770   0.63680   0.00000  Uiso   1.00
C1798  C     0.02857   0.75517   0.64674   0.00000  Uiso   1.00
C1799  C     0.15463   0.73582   0.92162   0.00000  Uiso   1.00
C1800  C     0.10451   0.86157   0.98459   0.00000  Uiso   1.00
C1801  C     0.16066   0.71323   0.87962   0.00000  Uiso   1.00
C1802  C     0.12758   0.67480   0.87870   0.00000  Uiso   1.00
C1803  C     0.16047   0.81702   0.98072   0.00000  Uiso   1.00
C1804  C     0.15144   0.82276   0.52259   0.00000  Uiso   1.00
C1805  C     0.11304   0.83987   0.54488   0.00000  Uiso   1.00
C1806  C     0.08940   0.85811   0.52606   0.00000  Uiso   1.00
H1807  H     0.16423   0.84922   0.59560   0.00000  Uiso   1.00
H1808  H     0.29028   0.77816   0.97613   0.00000  Uiso   1.00
H1809  H     0.28055   0.78193   0.89245   0.00000  Uiso   1.00
H1810  H     0.27465   0.82277   0.93326   0.00000  Uiso   1.00
H1811  H     0.01875   0.82465   0.93129   0.00000  Uiso   1.00
H1812  H     0.01255   0.83455   0.88460   0.00000  Uiso   1.00
H1813  H     0.02538   0.78442   0.88946   0.00000  Uiso   1.00
H1814  H     0.23817   0.88639   0.92738   0.00000  Uiso   1.00
H1815  H     0.21036   0.90590   0.89779   0.00000  Uiso   1.00
H1816  H     0.28371   0.85045   0.86508   0.00000  Uiso   1.00
H1817  H     0.25461   0.86871   0.83633   0.00000  Uiso   1.00
H1818  H     0.33312   0.78606   0.82175   0.00000  Uiso   1.00
H1819  H     0.27992   0.94196   0.85615   0.00000  Uiso   1.00
H1820  H     0.32518   0.91256   0.83499   0.00000  Uiso   1.00
H1821  H     0.30695   0.92561   0.88820   0.00000  Uiso   1.00
H1822  H     0.09520   0.77323   0.58155   0.00000  Uiso   1.00
H1823  H     0.04732   0.79123   0.57674   0.00000  Uiso   1.00
H1824  H     0.07829   0.80588   0.65270   0.00000  Uiso   1.00
H1825  H     0.02994   0.82150   0.64737   0.00000  Uiso   1.00
H1826  H     0.00269   0.74647   0.63140   0.00000  Uiso   1.00
H1827  H     0.01366   0.75635   0.67929   0.00000  Uiso   1.00
H1828  H     0.05109   0.73107   0.63753   0.00000  Uiso   1.00
H1829  H     0.02217   0.74750   0.78103   0.00000  Uiso   1.00
H1830  H     0.12245   0.74741   0.93182   0.00000  Uiso   1.00
H1831  H     0.15600   0.71310   0.94158   0.00000  Uiso   1.00
H1832  H     0.15749   0.73477   0.85952   0.00000  Uiso   1.00
H1833  H     0.19351   0.70334   0.86864   0.00000  Uiso   1.00
H1834  H     0.12995   0.98651   0.89905   0.00000  Uiso   1.00
H1835  H     0.13396   0.99151   0.84818   0.00000  Uiso   1.00
H1836  H     0.09446   0.68397   0.88766   0.00000  Uiso   1.00
H1837  H     0.26157   0.74683   0.83253   0.00000  Uiso   1.00
H1838  H     0.27852   0.71121   0.78855   0.00000  Uiso   1.00
H1839  H     0.32583   0.68240   0.81726   0.00000  Uiso   1.00
H1840  H     0.27317   0.68232   0.85229   0.00000  Uiso   1.00
H1841  H     0.31666   0.72108   0.86014   0.00000  Uiso   1.00
H1842  H     0.30558   0.73921   0.93540   0.00000  Uiso   1.00
N1843  N     0.01574   0.88036   0.57071   0.00000  Uiso   1.00
N1844  N     0.25917   0.68658   0.50871   0.00000  Uiso   1.00
N1845  N     0.04261   0.91066   0.71042   0.00000  Uiso   1.00
N1846  N     0.25791   0.69123   0.70380   0.00000  Uiso   1.00
N1847  N     0.07121   0.98068   0.79323   0.00000  Uiso   1.00
N1848  N     0.24987   0.72488   0.62263   0.00000  Uiso   1.00
N1849  N     0.02790   0.93496   0.50328   0.00000  Uiso   1.00
N1850  N     0.05619   0.92074   0.88890   0.00000  Uiso   1.00
O1851  O     0.16667   0.83333   0.75000   0.00000  Uiso   1.00
O1852  O     0.15693   0.79060   0.66625   0.00000  Uiso   1.00
O1853  O     0.12687   0.87313   0.83749   0.00000  Uiso   1.00
O1854  O     0.21088   0.84159   0.65877   0.00000  Uiso   1.00
O1855  O     0.17198   0.82802   0.83749   0.00000  Uiso   1.00
O1856  O     0.31459   0.78338   0.76949   0.00000  Uiso   1.00
O1857  O     0.24058   0.74202   0.95426   0.00000  Uiso   1.00
O1858  O     0.20033   0.84078   0.90125   0.00000  Uiso   1.00
O1859  O     0.09675   0.83765   0.58542   0.00000  Uiso   1.00
O1860  O     0.18752   0.76960   0.92096   0.00000  Uiso   1.00
O1861  O     0.17849   0.74768   0.77821   0.00000  Uiso   1.00
O1862  O     0.14581   0.92803   0.76767   0.00000  Uiso   1.00
O1863  O     0.07452   0.79917   0.73607   0.00000  Uiso   1.00
O1864  O     0.26785   0.85845   0.71806   0.00000  Uiso   1.00
O1865  O     0.06990   0.85627   0.77820   0.00000  Uiso   1.00
O1866  O     0.25440   0.81944   0.76768   0.00000  Uiso   1.00
O1867  O     0.13800   0.73570   0.73607   0.00000  Uiso   1.00
O1868  O     0.20437   0.92193   0.71806   0.00000  Uiso   1.00
Zn1869 Zn    0.19244   0.80756   0.78278   0.00000  Uiso   1.00
Zn1870 Zn    0.13459   0.79044   0.72258   0.00000  Uiso   1.00
Zn1871 Zn    0.21166   0.86331   0.71188   0.00000  Uiso   1.00
Zn1872 Zn    0.12798   0.87202   0.78277   0.00000  Uiso   1.00
C1873  C     0.38587   0.82596   0.75861   0.00000  Uiso   1.00
C1874  C     0.52017   0.78565   0.95962   0.00000  Uiso   1.00
C1875  C     0.54462   0.76804   0.97812   0.00000  Uiso   1.00
C1876  C     0.61427   0.84093   0.74185   0.00000  Uiso   1.00
C1877  C     0.53844   0.77632   0.51971   0.00000  Uiso   1.00
C1878  C     0.51149   0.80706   0.54100   0.00000  Uiso   1.00
C1879  C     0.55683   0.75409   0.54112   0.00000  Uiso   1.00
C1880  C     0.55227   0.76621   0.58197   0.00000  Uiso   1.00
C1881  C     0.51216   0.82168   0.58025   0.00000  Uiso   1.00
C1882  C     0.65950   0.84727   0.74230   0.00000  Uiso   1.00
C1883  C     0.34041   0.82091   0.76024   0.00000  Uiso   1.00
C1884  C     0.43101   0.88275   0.92321   0.00000  Uiso   1.00
C1885  C     0.51589   0.98944   0.74138   0.00000  Uiso   1.00
C1886  C     0.48333   0.67896   0.76084   0.00000  Uiso   1.00
C1887  C     0.48890   0.72292   0.75876   0.00000  Uiso   1.00
C1888  C     0.51036   0.94439   0.74176   0.00000  Uiso   1.00
C1889  C     0.52141   0.81173   0.64387   0.00000  Uiso   1.00
C1890  C     0.47870   0.85471   0.85650   0.00000  Uiso   1.00
C1891  C     0.46660   0.86180   0.90081   0.00000  Uiso   1.00
C1892  C     0.53079   0.80081   0.60095   0.00000  Uiso   1.00
C1893  C     0.41830   0.88479   0.96495   0.00000  Uiso   1.00
C1894  C     0.38177   0.87070   0.55068   0.00000  Uiso   1.00
C1895  C     0.49143   0.84709   0.92110   0.00000  Uiso   1.00
C1896  C     0.57670   0.71656   0.52299   0.00000  Uiso   1.00
C1897  C     0.35385   0.88255   0.72457   0.00000  Uiso   1.00
C1898  C     0.65985   0.76346   0.79665   0.00000  Uiso   1.00
C1899  C     0.62255   0.73080   0.81334   0.00000  Uiso   1.00
C1900  C     0.63547   0.70251   0.83727   0.00000  Uiso   1.00
C1901  C     0.55782   0.67564   0.72041   0.00000  Uiso   1.00
C1902  C     0.43950   0.99466   0.77885   0.00000  Uiso   1.00
C1903  C     0.56952   0.74323   0.60458   0.00000  Uiso   1.00
C1904  C     0.61641   0.76310   0.94796   0.00000  Uiso   1.00
C1905  C     0.62550   0.79557   0.91869   0.00000  Uiso   1.00
C1906  C     0.47422   0.84103   0.96179   0.00000  Uiso   1.00
C1907  C     0.34024   0.81067   0.90521   0.00000  Uiso   1.00
C1908  C     0.38648   0.91257   0.98655   0.00000  Uiso   1.00
C1909  C     0.40792   0.90385   0.90405   0.00000  Uiso   1.00
C1910  C     0.56032   0.87939   0.89999   0.00000  Uiso   1.00
C1911  C     0.59926   0.87609   0.86358   0.00000  Uiso   1.00
C1912  C     0.62971   0.91665   0.86065   0.00000  Uiso   1.00
C1913  C     0.40671   0.79802   0.59215   0.00000  Uiso   1.00
C1914  C     0.38613   0.79770   0.63680   0.00000  Uiso   1.00
C1915  C     0.36190   0.75517   0.64674   0.00000  Uiso   1.00
C1916  C     0.48796   0.73582   0.92162   0.00000  Uiso   1.00
C1917  C     0.43784   0.86157   0.98459   0.00000  Uiso   1.00
C1918  C     0.49400   0.71323   0.87962   0.00000  Uiso   1.00
C1919  C     0.46091   0.67480   0.87870   0.00000  Uiso   1.00
C1920  C     0.49380   0.81702   0.98072   0.00000  Uiso   1.00
C1921  C     0.48478   0.82276   0.52259   0.00000  Uiso   1.00
C1922  C     0.44637   0.83987   0.54488   0.00000  Uiso   1.00
C1923  C     0.42273   0.85811   0.52606   0.00000  Uiso   1.00
H1924  H     0.49757   0.84922   0.59560   0.00000  Uiso   1.00
H1925  H     0.62362   0.77816   0.97613   0.00000  Uiso   1.00
H1926  H     0.61388   0.78193   0.89245   0.00000  Uiso   1.00
H1927  H     0.60798   0.82277   0.93326   0.00000  Uiso   1.00
H1928  H     0.35208   0.82465   0.93129   0.00000  Uiso   1.00
H1929  H     0.34588   0.83455   0.88460   0.00000  Uiso   1.00
H1930  H     0.35871   0.78442   0.88946   0.00000  Uiso   1.00
H1931  H     0.57150   0.88639   0.92738   0.00000  Uiso   1.00
H1932  H     0.54369   0.90590   0.89779   0.00000  Uiso   1.00
H1933  H     0.61704   0.85045   0.86508   0.00000  Uiso   1.00
H1934  H     0.58795   0.86871   0.83633   0.00000  Uiso   1.00
H1935  H     0.66646   0.78606   0.82175   0.00000  Uiso   1.00
H1936  H     0.61325   0.94196   0.85615   0.00000  Uiso   1.00
H1937  H     0.65851   0.91256   0.83499   0.00000  Uiso   1.00
H1938  H     0.64028   0.92561   0.88820   0.00000  Uiso   1.00
H1939  H     0.42853   0.77323   0.58155   0.00000  Uiso   1.00
H1940  H     0.38065   0.79123   0.57674   0.00000  Uiso   1.00
H1941  H     0.41162   0.80588   0.65270   0.00000  Uiso   1.00
H1942  H     0.36328   0.82150   0.64737   0.00000  Uiso   1.00
H1943  H     0.33602   0.74647   0.63140   0.00000  Uiso   1.00
H1944  H     0.34700   0.75635   0.67929   0.00000  Uiso   1.00
H1945  H     0.38442   0.73107   0.63753   0.00000  Uiso   1.00
H1946  H     0.35550   0.74750   0.78103   0.00000  Uiso   1.00
H1947  H     0.45579   0.74741   0.93182   0.00000  Uiso   1.00
H1948  H     0.48933   0.71310   0.94158   0.00000  Uiso   1.00
H1949  H     0.49082   0.73477   0.85952   0.00000  Uiso   1.00
H1950  H     0.52685   0.70334   0.86864   0.00000  Uiso   1.00
H1951  H     0.46328   0.98651   0.89905   0.00000  Uiso   1.00
H1952  H     0.46729   0.99151   0.84818   0.00000  Uiso   1.00
H1953  H     0.42780   0.68397   0.88766   0.00000  Uiso   1.00
H1954  H     0.59490   0.74683   0.83253   0.00000  Uiso   1.00
H1955  H     0.61186   0.71121   0.78855   0.00000  Uiso   1.00
H1956  H     0.65916   0.68240   0.81726   0.00000  Uiso   1.00
H1957  H     0.60650   0.68232   0.85229   0.00000  Uiso   1.00
H1958  H     0.64999   0.72108   0.86014   0.00000  Uiso   1.00
H1959  H     0.63892   0.73921   0.93540   0.00000  Uiso   1.00
N1960  N     0.34907   0.88036   0.57071   0.00000  Uiso   1.00
N1961  N     0.59250   0.68658   0.50871   0.00000  Uiso   1.00
N1962  N     0.37595   0.91066   0.71042   0.00000  Uiso   1.00
N1963  N     0.59124   0.69123   0.70380   0.00000  Uiso   1.00
N1964  N     0.40454   0.98068   0.79323   0.00000  Uiso   1.00
N1965  N     0.58320   0.72488   0.62263   0.00000  Uiso   1.00
N1966  N     0.36124   0.93496   0.50328   0.00000  Uiso   1.00
N1967  N     0.38952   0.92074   0.88890   0.00000  Uiso   1.00
O1968  O     0.50000   0.83333   0.75000   0.00000  Uiso   1.00
O1969  O     0.49027   0.79060   0.66625   0.00000  Uiso   1.00
O1970  O     0.46020   0.87313   0.83749   0.00000  Uiso   1.00
O1971  O     0.54421   0.84159   0.65877   0.00000  Uiso   1.00
O1972  O     0.50532   0.82802   0.83749   0.00000  Uiso   1.00
O1973  O     0.64793   0.78338   0.76949   0.00000  Uiso   1.00
O1974  O     0.57391   0.74202   0.95426   0.00000  Uiso   1.00
O1975  O     0.53367   0.84078   0.90125   0.00000  Uiso   1.00
O1976  O     0.43008   0.83765   0.58542   0.00000  Uiso   1.00
O1977  O     0.52085   0.76960   0.92096   0.00000  Uiso   1.00
O1978  O     0.51182   0.74768   0.77821   0.00000  Uiso   1.00
O1979  O     0.47914   0.92803   0.76767   0.00000  Uiso   1.00
O1980  O     0.40785   0.79917   0.73607   0.00000  Uiso   1.00
O1981  O     0.60119   0.85845   0.71806   0.00000  Uiso   1.00
O1982  O     0.40323   0.85627   0.77820   0.00000  Uiso   1.00
O1983  O     0.58773   0.81944   0.76768   0.00000  Uiso   1.00
O1984  O     0.47133   0.73570   0.73607   0.00000  Uiso   1.00
O1985  O     0.53771   0.92193   0.71806   0.00000  Uiso   1.00
Zn1986 Zn    0.52577   0.80756   0.78278   0.00000  Uiso   1.00
Zn1987 Zn    0.46792   0.79044   0.72258   0.00000  Uiso   1.00
Zn1988 Zn    0.54500   0.86331   0.71188   0.00000  Uiso   1.00
Zn1989 Zn    0.46131   0.87202   0.78277   0.00000  Uiso   1.00
C1990  C     0.71921   0.82596   0.75861   0.00000  Uiso   1.00
C1991  C     0.85350   0.78565   0.95962   0.00000  Uiso   1.00
C1992  C     0.87796   0.76804   0.97812   0.00000  Uiso   1.00
C1993  C     0.94761   0.84093   0.74185   0.00000  Uiso   1.00
C1994  C     0.87177   0.77632   0.51971   0.00000  Uiso   1.00
C1995  C     0.84482   0.80706   0.54100   0.00000  Uiso   1.00
C1996  C     0.89016   0.75409   0.54112   0.00000  Uiso   1.00
C1997  C     0.88561   0.76621   0.58197   0.00000  Uiso   1.00
C1998  C     0.84550   0.82168   0.58025   0.00000  Uiso   1.00
C1999  C     0.99283   0.84727   0.74230   0.00000  Uiso   1.00
C2000  C     0.67375   0.82091   0.76024   0.00000  Uiso   1.00
C2001  C     0.76434   0.88275   0.92321   0.00000  Uiso   1.00
C2002  C     0.84922   0.98944   0.74138   0.00000  Uiso   1.00
C2003  C     0.81667   0.67896   0.76084   0.00000  Uiso   1.00
C2004  C     0.82224   0.72292   0.75876   0.00000  Uiso   1.00
C2005  C     0.84369   0.94439   0.74176   0.00000  Uiso   1.00
C2006  C     0.85474   0.81173   0.64387   0.00000  Uiso   1.00
C2007  C     0.81203   0.85471   0.85650   0.00000  Uiso   1.00
C2008  C     0.79993   0.86180   0.90081   0.00000  Uiso   1.00
C2009  C     0.86413   0.80081   0.60095   0.00000  Uiso   1.00
C2010  C     0.75163   0.88479   0.96495   0.00000  Uiso   1.00
C2011  C     0.71510   0.87070   0.55068   0.00000  Uiso   1.00
C2012  C     0.82476   0.84709   0.92110   0.00000  Uiso   1.00
C2013  C     0.91004   0.71656   0.52299   0.00000  Uiso   1.00
C2014  C     0.68718   0.88255   0.72457   0.00000  Uiso   1.00
C2015  C     0.99319   0.76346   0.79665   0.00000  Uiso   1.00
C2016  C     0.95588   0.73080   0.81334   0.00000  Uiso   1.00
C2017  C     0.96881   0.70251   0.83727   0.00000  Uiso   1.00
C2018  C     0.89115   0.67564   0.72041   0.00000  Uiso   1.00
C2019  C     0.77283   0.99466   0.77885   0.00000  Uiso   1.00
C2020  C     0.90285   0.74323   0.60458   0.00000  Uiso   1.00
C2021  C     0.94974   0.76310   0.94796   0.00000  Uiso   1.00
C2022  C     0.95883   0.79557   0.91869   0.00000  Uiso   1.00
C2023  C     0.80755   0.84103   0.96179   0.00000  Uiso   1.00
C2024  C     0.67357   0.81067   0.90521   0.00000  Uiso   1.00
C2025  C     0.71981   0.91257   0.98655   0.00000  Uiso   1.00
C2026  C     0.74126   0.90385   0.90405   0.00000  Uiso   1.00
C2027  C     0.89366   0.87939   0.89999   0.00000  Uiso   1.00
C2028  C     0.93259   0.87609   0.86358   0.00000  Uiso   1.00
C2029  C     0.96304   0.91665   0.86065   0.00000  Uiso   1.00
C2030  C     0.74005   0.79802   0.59215   0.00000  Uiso   1.00
C2031  C     0.71947   0.79770   0.63680   0.00000  Uiso   1.00
C2032  C     0.69524   0.75517   0.64674   0.00000  Uiso   1.00
C2033  C     0.82129   0.73582   0.92162   0.00000  Uiso   1.00
C2034  C     0.77118   0.86157   0.98459   0.00000  Uiso   1.00
C2035  C     0.82733   0.71323   0.87962   0.00000  Uiso   1.00
C2036  C     0.79425   0.67480   0.87870   0.00000  Uiso   1.00
C2037  C     0.82714   0.81702   0.98072   0.00000  Uiso   1.00
C2038  C     0.81811   0.82276   0.52259   0.00000  Uiso   1.00
C2039  C     0.77970   0.83987   0.54488   0.00000  Uiso   1.00
C2040  C     0.75607   0.85811   0.52606   0.00000  Uiso   1.00
H2041  H     0.83090   0.84922   0.59560   0.00000  Uiso   1.00
H2042  H     0.95695   0.77816   0.97613   0.00000  Uiso   1.00
H2043  H     0.94722   0.78193   0.89245   0.00000  Uiso   1.00
H2044  H     0.94132   0.82277   0.93326   0.00000  Uiso   1.00
H2045  H     0.68542   0.82465   0.93129   0.00000  Uiso   1.00
H2046  H     0.67922   0.83455   0.88460   0.00000  Uiso   1.00
H2047  H     0.69205   0.78442   0.88946   0.00000  Uiso   1.00
H2048  H     0.90484   0.88639   0.92738   0.00000  Uiso   1.00
H2049  H     0.87703   0.90590   0.89779   0.00000  Uiso   1.00
H2050  H     0.95038   0.85045   0.86508   0.00000  Uiso   1.00
H2051  H     0.92128   0.86871   0.83633   0.00000  Uiso   1.00
H2052  H     0.99979   0.78606   0.82175   0.00000  Uiso   1.00
H2053  H     0.94658   0.94196   0.85615   0.00000  Uiso   1.00
H2054  H     0.99185   0.91256   0.83499   0.00000  Uiso   1.00
H2055  H     0.97361   0.92561   0.88820   0.00000  Uiso   1.00
H2056  H     0.76186   0.77323   0.58155   0.00000  Uiso   1.00
H2057  H     0.71399   0.79123   0.57674   0.00000  Uiso   1.00
H2058  H     0.74496   0.80588   0.65270   0.00000  Uiso   1.00
H2059  H     0.69661   0.82150   0.64737   0.00000  Uiso   1.00
H2060  H     0.66935   0.74647   0.63140   0.00000  Uiso   1.00
H2061  H     0.68033   0.75635   0.67929   0.00000  Uiso   1.00
H2062  H     0.71775   0.73107   0.63753   0.00000  Uiso   1.00
H2063  H     0.68883   0.74750   0.78103   0.00000  Uiso   1.00
H2064  H     0.78912   0.74741   0.93182   0.00000  Uiso   1.00
H2065  H     0.82266   0.71310   0.94158   0.00000  Uiso   1.00
H2066  H     0.82416   0.73477   0.85952   0.00000  Uiso   1.00
H2067  H     0.86018   0.70334   0.86864   0.00000  Uiso   1.00
H2068  H     0.79661   0.98651   0.89905   0.00000  Uiso   1.00
H2069  H     0.80062   0.99151   0.84818   0.00000  Uiso   1.00
H2070  H     0.76113   0.68397   0.88766   0.00000  Uiso   1.00
H2071  H     0.92824   0.74683   0.83253   0.00000  Uiso   1.00
H2072  H     0.94519   0.71121   0.78855   0.00000  Uiso   1.00
H2073  H     0.99250   0.68240   0.81726   0.00000  Uiso   1.00
H2074  H     0.93983   0.68232   0.85229   0.00000  Uiso   1.00
H2075  H     0.98332   0.72108   0.86014   0.00000  Uiso   1.00
H2076  H     0.97225   0.73921   0.93540   0.00000  Uiso   1.00
N2077  N     0.68240   0.88036   0.57071   0.00000  Uiso   1.00
N2078  N     0.92583   0.68658   0.50871   0.00000  Uiso   1.00
N2079  N     0.70928   0.91066   0.71042   0.00000  Uiso   1.00
N2080  N     0.92457   0.69123   0.70380   0.00000  Uiso   1.00
N2081  N     0.73788   0.98068   0.79323   0.00000  Uiso   1.00
N2082  N     0.91653   0.72488   0.62263   0.00000  Uiso   1.00
N2083  N     0.69457   0.93496   0.50328   0.00000  Uiso   1.00
N2084  N     0.72285   0.92074   0.88890   0.00000  Uiso   1.00
O2085  O     0.83333   0.83333   0.75000   0.00000  Uiso   1.00
O2086  O     0.82360   0.79060   0.66625   0.00000  Uiso   1.00
O2087  O     0.79354   0.87313   0.83749   0.00000  Uiso   1.00
O2088  O     0.87755   0.84159   0.65877   0.00000  Uiso   1.00
O2089  O     0.83865   0.82802   0.83749   0.00000  Uiso   1.00
O2090  O     0.98126   0.78338   0.76949   0.00000  Uiso   1.00
O2091  O     0.90724   0.74202   0.95426   0.00000  Uiso   1.00
O2092  O     0.86700   0.84078   0.90125   0.00000  Uiso   1.00
O2093  O     0.76341   0.83765   0.58542   0.00000  Uiso   1.00
O2094  O     0.85419   0.76960   0.92096   0.00000  Uiso   1.00
O2095  O     0.84515   0.74768   0.77821   0.00000  Uiso   1.00
O2096  O     0.81247   0.92803   0.76767   0.00000  Uiso   1.00
O2097  O     0.74119   0.79917   0.73607   0.00000  Uiso   1.00
O2098  O     0.93452   0.85845   0.71806   0.00000  Uiso   1.00
O2099  O     0.73656   0.85627   0.77820   0.00000  Uiso   1.00
O2100  O     0.92106   0.81944   0.76768   0.00000  Uiso   1.00
O2101  O     0.80467   0.73570   0.73607   0.00000  Uiso   1.00
O2102  O     0.87104   0.92193   0.71806   0.00000  Uiso   1.00
Zn2103 Zn    0.85910   0.80756   0.78278   0.00000  Uiso   1.00
Zn2104 Zn    0.80125   0.79044   0.72258   0.00000  Uiso   1.00
Zn2105 Zn    0.87833   0.86331   0.71188   0.00000  Uiso   1.00
Zn2106 Zn    0.79465   0.87202   0.78277   0.00000  Uiso   1.00
loop_
_geom_bond_atom_site_label_1
_geom_bond_atom_site_label_2
_geom_bond_distance
_geom_bond_site_symmetry_2
_ccdc_geom_bond_type
C1     C11     1.452   .     S
C1     O110    1.274   .     A
C1     O108    1.253   .     A
C2     C48     1.422   .     A
C2     O105    1.383   .     S
C2     C3      1.402   .     A
C3     O102    1.386   .     S
C3     C1058   1.416   .     S
C4     O109    1.287   .     A
C4     O111    1.276   .     A
C4     C10     1.462   .     S
C5     C7      1.428   .     A
C5     C6      1.419   .     A
C5     C1056   1.416   1_554 S
C6     C9      1.404   .     A
C6     C49     1.423   .     A
C7     C8      1.410   .     A
C7     C24     1.452   .     S
C8     C20     1.403   .     A
C8     C31     1.451   .     S
C9     H52     1.081   .     S
C9     C20     1.386   .     A
C10    C128    1.354   .     S
C10    C142    1.452   .     S
C11    C244    1.354   1_455 S
C11    O335    1.400   1_455 S
C12    C37     1.453   .     S
C12    C21     1.409   .     A
C12    C19     1.414   .     A
C13    C16     1.458   .     S
C13    C365    1.353   .     S
C13    C380    1.453   .     S
C14    C15     1.432   .     S
C14    C715    1.353   1_545 S
C14    C732    1.452   1_545 S
C15    O112    1.264   .     A
C15    O106    1.274   .     A
C16    O107    1.266   .     A
C16    O113    1.274   .     A
C17    C20     1.459   .     S
C17    O99     1.275   .     A
C17    O97     1.272   .     A
C18    C19     1.493   .     S
C18    O100    1.300   .     A
C18    O98     1.288   .     A
C19    C23     1.405   .     A
C21    C36     1.454   .     S
C21    C45     1.429   .     A
C22    N88     1.158   .     T
C22    C51     1.451   .     S
C23    O103    1.386   .     S
C23    C34     1.419   .     A
C24    N89     1.158   .     T
C25    N90     1.157   .     T
C25    C244    1.452   1_455 S
C26    O101    1.412   .     S
C26    H63     1.114   .     S
C26    C27     1.529   .     S
C26    H191    1.112   .     S
C27    H82     1.111   .     S
C27    H83     1.112   .     S
C27    C28     1.526   .     S
C28    H84     1.110   .     S
C28    H86     1.108   .     S
C28    H85     1.110   .     S
C29    N91     1.157   .     T
C29    C715    1.453   1_545 S
C30    N92     1.158   .     T
C30    C365    1.452   .     S
C31    N93     1.157   .     T
C32    H87     1.111   .     S
C32    O102    1.419   .     S
C32    H53     1.114   .     S
C32    C33     1.534   .     S
C33    H55     1.111   .     S
C33    H54     1.108   .     S
C33    C152    1.525   .     S
C34    C45     1.429   .     A
C34    C48     1.431   .     A
C35    H58     1.111   .     S
C35    H56     1.110   .     S
C35    H57     1.109   .     S
C35    C267    1.525   1_455 S
C36    N1147   1.158   .     S
C37    N95     1.157   .     T
C38    C39     1.529   .     S
C38    O103    1.415   .     S
C38    H60     1.117   .     S
C38    H59     1.112   .     S
C39    H61     1.109   .     S
C39    H62     1.110   .     S
C39    C40     1.524   .     S
C40    H66     1.110   .     S
C40    H65     1.111   .     S
C40    H64     1.110   .     S
C41    C42     1.529   .     S
C41    H67     1.113   .     S
C41    H68     1.115   .     S
C41    O104    1.413   .     S
C42    H70     1.112   .     S
C42    H69     1.112   .     S
C42    C43     1.525   .     S
C43    H72     1.111   .     S
C43    H73     1.111   .     S
C43    H71     1.110   .     S
C44    O105    1.411   .     S
C44    H76     1.116   .     S
C44    C46     1.528   .     S
C44    H75     1.114   .     S
C45    C1104   1.423   .     S
C46    H78     1.111   .     S
C46    C47     1.525   .     S
C46    H77     1.111   .     S
C47    H81     1.111   .     S
C47    H781    1.111   1_545 S
C47    H782    1.109   1_545 S
C48    C1102   1.414   .     S
C49    C50     1.421   .     A
C49    C1101   1.414   1_554 S
C50    O104    1.388   .     S
C50    C51     1.402   .     A
C51    C1098   1.423   1_554 S
H74    C260    1.112   1_455 S
H79    C398    1.111   .     S
H80    C398    1.109   .     S
N94    C1089   1.158   1_554 S
O96    Zn115   1.927   .     S
O96    Zn114   1.965   .     S
O96    Zn117   1.935   .     S
O96    Zn116   1.935   .     S
O97    Zn115   1.915   .     S
O98    Zn117   1.922   .     S
O99    Zn116   1.911   .     S
O100   Zn114   1.907   .     S
O101   C128    1.400   .     S
O106   Zn114   1.933   .     S
O107   Zn117   1.941   .     S
O108   Zn115   1.935   .     S
O109   Zn116   1.943   .     S
O110   Zn117   1.931   .     S
O111   Zn114   1.927   .     S
O112   Zn115   1.952   .     S
O113   Zn116   1.942   .     S
C118   C128    1.452   .     S
C118   O227    1.274   .     A
C118   O225    1.253   .     A
C119   C165    1.422   .     A
C119   O222    1.383   .     S
C119   C120    1.402   .     A
C120   O219    1.386   .     S
C120   C1175   1.416   .     S
C121   O226    1.287   .     A
C121   O228    1.276   .     A
C121   C127    1.462   .     S
C122   C124    1.428   .     A
C122   C123    1.419   .     A
C122   C1173   1.416   1_554 S
C123   C126    1.404   .     A
C123   C166    1.423   .     A
C124   C125    1.410   .     A
C124   C141    1.452   .     S
C125   C137    1.403   .     A
C125   C148    1.451   .     S
C126   H169    1.081   .     S
C126   C137    1.386   .     A
C127   C245    1.354   .     S
C127   C259    1.452   .     S
C129   C154    1.453   .     S
C129   C138    1.409   .     A
C129   C136    1.414   .     A
C130   C133    1.458   .     S
C130   C482    1.353   .     S
C130   C497    1.453   .     S
C131   C132    1.432   .     S
C131   C832    1.353   1_545 S
C131   C849    1.452   1_545 S
C132   O229    1.264   .     A
C132   O223    1.274   .     A
C133   O224    1.266   .     A
C133   O230    1.274   .     A
C134   C137    1.459   .     S
C134   O216    1.275   .     A
C134   O214    1.272   .     A
C135   C136    1.493   .     S
C135   O217    1.300   .     A
C135   O215    1.288   .     A
C136   C140    1.405   .     A
C138   C153    1.454   .     S
C138   C162    1.429   .     A
C139   N205    1.158   .     T
C139   C168    1.451   .     S
C140   O220    1.386   .     S
C140   C151    1.419   .     A
C141   N206    1.158   .     T
C142   N207    1.157   .     T
C143   O218    1.412   .     S
C143   H180    1.114   .     S
C143   C144    1.529   .     S
C143   H308    1.112   .     S
C144   H199    1.111   .     S
C144   H200    1.112   .     S
C144   C145    1.526   .     S
C145   H201    1.110   .     S
C145   H203    1.108   .     S
C145   H202    1.110   .     S
C146   N208    1.157   .     T
C146   C832    1.453   1_545 S
C147   N209    1.158   .     T
C147   C482    1.452   .     S
C148   N210    1.157   .     T
C149   H204    1.111   .     S
C149   O219    1.419   .     S
C149   H170    1.114   .     S
C149   C150    1.534   .     S
C150   H172    1.111   .     S
C150   H171    1.108   .     S
C150   C269    1.525   .     S
C151   C162    1.429   .     A
C151   C165    1.431   .     A
C152   H175    1.111   .     S
C152   H173    1.110   .     S
C152   H174    1.109   .     S
C153   N1264   1.158   .     S
C154   N212    1.157   .     T
C155   C156    1.529   .     S
C155   O220    1.415   .     S
C155   H177    1.117   .     S
C155   H176    1.112   .     S
C156   H178    1.109   .     S
C156   H179    1.110   .     S
C156   C157    1.524   .     S
C157   H183    1.110   .     S
C157   H182    1.111   .     S
C157   H181    1.110   .     S
C158   C159    1.529   .     S
C158   H184    1.113   .     S
C158   H185    1.115   .     S
C158   O221    1.413   .     S
C159   H187    1.112   .     S
C159   H186    1.112   .     S
C159   C160    1.525   .     S
C160   H189    1.111   .     S
C160   H190    1.111   .     S
C160   H188    1.110   .     S
C161   O222    1.411   .     S
C161   H193    1.116   .     S
C161   C163    1.528   .     S
C161   H192    1.114   .     S
C162   C1221   1.423   .     S
C163   H195    1.111   .     S
C163   C164    1.525   .     S
C163   H194    1.111   .     S
C164   H198    1.111   .     S
C164   H898    1.111   1_545 S
C164   H899    1.109   1_545 S
C165   C1219   1.414   .     S
C166   C167    1.421   .     A
C166   C1218   1.414   1_554 S
C167   O221    1.388   .     S
C167   C168    1.402   .     A
C168   C1215   1.423   1_554 S
H196   C515    1.111   .     S
H197   C515    1.109   .     S
N211   C1206   1.158   1_554 S
O213   Zn232   1.927   .     S
O213   Zn231   1.965   .     S
O213   Zn234   1.935   .     S
O213   Zn233   1.935   .     S
O214   Zn232   1.915   .     S
O215   Zn234   1.922   .     S
O216   Zn233   1.911   .     S
O217   Zn231   1.907   .     S
O218   C245    1.400   .     S
O223   Zn231   1.933   .     S
O224   Zn234   1.941   .     S
O225   Zn232   1.935   .     S
O226   Zn233   1.943   .     S
O227   Zn234   1.931   .     S
O228   Zn231   1.927   .     S
O229   Zn232   1.952   .     S
O230   Zn233   1.942   .     S
C235   C245    1.452   .     S
C235   O344    1.274   .     A
C235   O342    1.253   .     A
C236   C282    1.422   .     A
C236   O339    1.383   .     S
C236   C237    1.402   .     A
C237   O336    1.386   .     S
C237   C1292   1.416   .     S
C238   O343    1.287   .     A
C238   O345    1.276   .     A
C238   C244    1.462   .     S
C239   C241    1.428   .     A
C239   C240    1.419   .     A
C239   C1290   1.416   1_554 S
C240   C243    1.404   .     A
C240   C283    1.423   .     A
C241   C242    1.410   .     A
C241   C258    1.452   .     S
C242   C254    1.403   .     A
C242   C265    1.451   .     S
C243   H286    1.081   .     S
C243   C254    1.386   .     A
C244   C11     1.354   1_655 S
C244   C25     1.452   1_655 S
C246   C271    1.453   .     S
C246   C255    1.409   .     A
C246   C253    1.414   .     A
C247   C250    1.458   .     S
C247   C599    1.353   .     S
C247   C614    1.453   .     S
C248   C249    1.432   .     S
C248   C949    1.353   1_545 S
C248   C966    1.452   1_545 S
C249   O346    1.264   .     A
C249   O340    1.274   .     A
C250   O341    1.266   .     A
C250   O347    1.274   .     A
C251   C254    1.459   .     S
C251   O333    1.275   .     A
C251   O331    1.272   .     A
C252   C253    1.493   .     S
C252   O334    1.300   .     A
C252   O332    1.288   .     A
C253   C257    1.405   .     A
C255   C270    1.454   .     S
C255   C279    1.429   .     A
C256   N322    1.158   .     T
C256   C285    1.451   .     S
C257   O337    1.386   .     S
C257   C268    1.419   .     A
C258   N323    1.158   .     T
C259   N324    1.157   .     T
C260   O335    1.412   .     S
C260   H297    1.114   .     S
C260   C261    1.529   .     S
C260   H74     1.112   1_655 S
C261   H316    1.111   .     S
C261   H317    1.112   .     S
C261   C262    1.526   .     S
C262   H318    1.110   .     S
C262   H320    1.108   .     S
C262   H319    1.110   .     S
C263   N325    1.157   .     T
C263   C949    1.453   1_545 S
C264   N326    1.158   .     T
C264   C599    1.452   .     S
C265   N327    1.157   .     T
C266   H321    1.111   .     S
C266   O336    1.419   .     S
C266   H287    1.114   .     S
C266   C267    1.534   .     S
C267   H289    1.111   .     S
C267   H288    1.108   .     S
C267   C35     1.525   1_655 S
C268   C279    1.429   .     A
C268   C282    1.431   .     A
C269   H292    1.111   .     S
C269   H290    1.110   .     S
C269   H291    1.109   .     S
C270   N1381   1.158   .     S
C271   N329    1.157   .     T
C272   C273    1.529   .     S
C272   O337    1.415   .     S
C272   H294    1.117   .     S
C272   H293    1.112   .     S
C273   H295    1.109   .     S
C273   H296    1.110   .     S
C273   C274    1.524   .     S
C274   H300    1.110   .     S
C274   H299    1.111   .     S
C274   H298    1.110   .     S
C275   C276    1.529   .     S
C275   H301    1.113   .     S
C275   H302    1.115   .     S
C275   O338    1.413   .     S
C276   H304    1.112   .     S
C276   H303    1.112   .     S
C276   C277    1.525   .     S
C277   H306    1.111   .     S
C277   H307    1.111   .     S
C277   H305    1.110   .     S
C278   O339    1.411   .     S
C278   H310    1.116   .     S
C278   C280    1.528   .     S
C278   H309    1.114   .     S
C279   C1338   1.423   .     S
C280   H312    1.111   .     S
C280   C281    1.525   .     S
C280   H311    1.111   .     S
C281   H315    1.111   .     S
C281   H1015   1.111   1_545 S
C281   H1016   1.109   1_545 S
C282   C1336   1.414   .     S
C283   C284    1.421   .     A
C283   C1335   1.414   1_554 S
C284   O338    1.388   .     S
C284   C285    1.402   .     A
C285   C1332   1.423   1_554 S
H313   C632    1.111   .     S
H314   C632    1.109   .     S
N328   C1323   1.158   1_554 S
O330   Zn349   1.927   .     S
O330   Zn348   1.965   .     S
O330   Zn351   1.935   .     S
O330   Zn350   1.935   .     S
O331   Zn349   1.915   .     S
O332   Zn351   1.922   .     S
O333   Zn350   1.911   .     S
O334   Zn348   1.907   .     S
O335   C11     1.400   1_655 S
O340   Zn348   1.933   .     S
O341   Zn351   1.941   .     S
O342   Zn349   1.935   .     S
O343   Zn350   1.943   .     S
O344   Zn351   1.931   .     S
O345   Zn348   1.927   .     S
O346   Zn349   1.952   .     S
O347   Zn350   1.942   .     S
C352   C362    1.452   .     S
C352   O461    1.274   .     A
C352   O459    1.253   .     A
C353   C399    1.422   .     A
C353   O456    1.383   .     S
C353   C354    1.402   .     A
C354   O453    1.386   .     S
C354   C1409   1.416   .     S
C355   O460    1.287   .     A
C355   O462    1.276   .     A
C355   C361    1.462   .     S
C356   C358    1.428   .     A
C356   C357    1.419   .     A
C356   C1407   1.416   1_554 S
C357   C360    1.404   .     A
C357   C400    1.423   .     A
C358   C359    1.410   .     A
C358   C375    1.452   .     S
C359   C371    1.403   .     A
C359   C382    1.451   .     S
C360   H403    1.081   .     S
C360   C371    1.386   .     A
C361   C479    1.354   .     S
C361   C493    1.452   .     S
C362   C595    1.354   1_455 S
C362   O686    1.400   1_455 S
C363   C388    1.453   .     S
C363   C372    1.409   .     A
C363   C370    1.414   .     A
C364   C367    1.458   .     S
C364   C716    1.353   .     S
C364   C731    1.453   .     S
C365   C366    1.432   .     S
C366   O463    1.264   .     A
C366   O457    1.274   .     A
C367   O458    1.266   .     A
C367   O464    1.274   .     A
C368   C371    1.459   .     S
C368   O450    1.275   .     A
C368   O448    1.272   .     A
C369   C370    1.493   .     S
C369   O451    1.300   .     A
C369   O449    1.288   .     A
C370   C374    1.405   .     A
C372   C387    1.454   .     S
C372   C396    1.429   .     A
C373   N439    1.158   .     T
C373   C402    1.451   .     S
C374   O454    1.386   .     S
C374   C385    1.419   .     A
C375   N440    1.158   .     T
C376   N441    1.157   .     T
C376   C595    1.452   1_455 S
C377   O452    1.412   .     S
C377   H414    1.114   .     S
C377   C378    1.529   .     S
C377   H542    1.112   .     S
C378   H433    1.111   .     S
C378   H434    1.112   .     S
C378   C379    1.526   .     S
C379   H435    1.110   .     S
C379   H437    1.108   .     S
C379   H436    1.110   .     S
C380   N442    1.157   .     T
C381   N443    1.158   .     T
C381   C716    1.452   .     S
C382   N444    1.157   .     T
C383   H438    1.111   .     S
C383   O453    1.419   .     S
C383   H404    1.114   .     S
C383   C384    1.534   .     S
C384   H406    1.111   .     S
C384   H405    1.108   .     S
C384   C503    1.525   .     S
C385   C396    1.429   .     A
C385   C399    1.431   .     A
C386   H409    1.111   .     S
C386   H407    1.110   .     S
C386   H408    1.109   .     S
C386   C618    1.525   1_455 S
C387   N1498   1.158   .     S
C388   N446    1.157   .     T
C389   C390    1.529   .     S
C389   O454    1.415   .     S
C389   H411    1.117   .     S
C389   H410    1.112   .     S
C390   H412    1.109   .     S
C390   H413    1.110   .     S
C390   C391    1.524   .     S
C391   H417    1.110   .     S
C391   H416    1.111   .     S
C391   H415    1.110   .     S
C392   C393    1.529   .     S
C392   H418    1.113   .     S
C392   H419    1.115   .     S
C392   O455    1.413   .     S
C393   H421    1.112   .     S
C393   H420    1.112   .     S
C393   C394    1.525   .     S
C394   H423    1.111   .     S
C394   H424    1.111   .     S
C394   H422    1.110   .     S
C395   O456    1.411   .     S
C395   H427    1.116   .     S
C395   C397    1.528   .     S
C395   H426    1.114   .     S
C396   C1455   1.423   .     S
C397   H429    1.111   .     S
C397   C398    1.525   .     S
C397   H428    1.111   .     S
C398   H432    1.111   .     S
C399   C1453   1.414   .     S
C400   C401    1.421   .     A
C400   C1452   1.414   1_554 S
C401   O455    1.388   .     S
C401   C402    1.402   .     A
C402   C1449   1.423   1_554 S
H425   C611    1.112   1_455 S
H430   C749    1.111   .     S
H431   C749    1.109   .     S
N445   C1440   1.158   1_554 S
O447   Zn466   1.927   .     S
O447   Zn465   1.965   .     S
O447   Zn468   1.935   .     S
O447   Zn467   1.935   .     S
O448   Zn466   1.915   .     S
O449   Zn468   1.922   .     S
O450   Zn467   1.911   .     S
O451   Zn465   1.907   .     S
O452   C479    1.400   .     S
O457   Zn465   1.933   .     S
O458   Zn468   1.941   .     S
O459   Zn466   1.935   .     S
O460   Zn467   1.943   .     S
O461   Zn468   1.931   .     S
O462   Zn465   1.927   .     S
O463   Zn466   1.952   .     S
O464   Zn467   1.942   .     S
C469   C479    1.452   .     S
C469   O578    1.274   .     A
C469   O576    1.253   .     A
C470   C516    1.422   .     A
C470   O573    1.383   .     S
C470   C471    1.402   .     A
C471   O570    1.386   .     S
C471   C1526   1.416   .     S
C472   O577    1.287   .     A
C472   O579    1.276   .     A
C472   C478    1.462   .     S
C473   C475    1.428   .     A
C473   C474    1.419   .     A
C473   C1524   1.416   1_554 S
C474   C477    1.404   .     A
C474   C517    1.423   .     A
C475   C476    1.410   .     A
C475   C492    1.452   .     S
C476   C488    1.403   .     A
C476   C499    1.451   .     S
C477   H520    1.081   .     S
C477   C488    1.386   .     A
C478   C596    1.354   .     S
C478   C610    1.452   .     S
C480   C505    1.453   .     S
C480   C489    1.409   .     A
C480   C487    1.414   .     A
C481   C484    1.458   .     S
C481   C833    1.353   .     S
C481   C848    1.453   .     S
C482   C483    1.432   .     S
C483   O580    1.264   .     A
C483   O574    1.274   .     A
C484   O575    1.266   .     A
C484   O581    1.274   .     A
C485   C488    1.459   .     S
C485   O567    1.275   .     A
C485   O565    1.272   .     A
C486   C487    1.493   .     S
C486   O568    1.300   .     A
C486   O566    1.288   .     A
C487   C491    1.405   .     A
C489   C504    1.454   .     S
C489   C513    1.429   .     A
C490   N556    1.158   .     T
C490   C519    1.451   .     S
C491   O571    1.386   .     S
C491   C502    1.419   .     A
C492   N557    1.158   .     T
C493   N558    1.157   .     T
C494   O569    1.412   .     S
C494   H531    1.114   .     S
C494   C495    1.529   .     S
C494   H659    1.112   .     S
C495   H550    1.111   .     S
C495   H551    1.112   .     S
C495   C496    1.526   .     S
C496   H552    1.110   .     S
C496   H554    1.108   .     S
C496   H553    1.110   .     S
C497   N559    1.157   .     T
C498   N560    1.158   .     T
C498   C833    1.452   .     S
C499   N561    1.157   .     T
C500   H555    1.111   .     S
C500   O570    1.419   .     S
C500   H521    1.114   .     S
C500   C501    1.534   .     S
C501   H523    1.111   .     S
C501   H522    1.108   .     S
C501   C620    1.525   .     S
C502   C513    1.429   .     A
C502   C516    1.431   .     A
C503   H526    1.111   .     S
C503   H524    1.110   .     S
C503   H525    1.109   .     S
C504   N1615   1.158   .     S
C505   N563    1.157   .     T
C506   C507    1.529   .     S
C506   O571    1.415   .     S
C506   H528    1.117   .     S
C506   H527    1.112   .     S
C507   H529    1.109   .     S
C507   H530    1.110   .     S
C507   C508    1.524   .     S
C508   H534    1.110   .     S
C508   H533    1.111   .     S
C508   H532    1.110   .     S
C509   C510    1.529   .     S
C509   H535    1.113   .     S
C509   H536    1.115   .     S
C509   O572    1.413   .     S
C510   H538    1.112   .     S
C510   H537    1.112   .     S
C510   C511    1.525   .     S
C511   H540    1.111   .     S
C511   H541    1.111   .     S
C511   H539    1.110   .     S
C512   O573    1.411   .     S
C512   H544    1.116   .     S
C512   C514    1.528   .     S
C512   H543    1.114   .     S
C513   C1572   1.423   .     S
C514   H546    1.111   .     S
C514   C515    1.525   .     S
C514   H545    1.111   .     S
C515   H549    1.111   .     S
C516   C1570   1.414   .     S
C517   C518    1.421   .     A
C517   C1569   1.414   1_554 S
C518   O572    1.388   .     S
C518   C519    1.402   .     A
C519   C1566   1.423   1_554 S
H547   C866    1.111   .     S
H548   C866    1.109   .     S
N562   C1557   1.158   1_554 S
O564   Zn583   1.927   .     S
O564   Zn582   1.965   .     S
O564   Zn585   1.935   .     S
O564   Zn584   1.935   .     S
O565   Zn583   1.915   .     S
O566   Zn585   1.922   .     S
O567   Zn584   1.911   .     S
O568   Zn582   1.907   .     S
O569   C596    1.400   .     S
O574   Zn582   1.933   .     S
O575   Zn585   1.941   .     S
O576   Zn583   1.935   .     S
O577   Zn584   1.943   .     S
O578   Zn585   1.931   .     S
O579   Zn582   1.927   .     S
O580   Zn583   1.952   .     S
O581   Zn584   1.942   .     S
C586   C596    1.452   .     S
C586   O695    1.274   .     A
C586   O693    1.253   .     A
C587   C633    1.422   .     A
C587   O690    1.383   .     S
C587   C588    1.402   .     A
C588   O687    1.386   .     S
C588   C1643   1.416   .     S
C589   O694    1.287   .     A
C589   O696    1.276   .     A
C589   C595    1.462   .     S
C590   C592    1.428   .     A
C590   C591    1.419   .     A
C590   C1641   1.416   1_554 S
C591   C594    1.404   .     A
C591   C634    1.423   .     A
C592   C593    1.410   .     A
C592   C609    1.452   .     S
C593   C605    1.403   .     A
C593   C616    1.451   .     S
C594   H637    1.081   .     S
C594   C605    1.386   .     A
C595   C362    1.354   1_655 S
C595   C376    1.452   1_655 S
C597   C622    1.453   .     S
C597   C606    1.409   .     A
C597   C604    1.414   .     A
C598   C601    1.458   .     S
C598   C950    1.353   .     S
C598   C965    1.453   .     S
C599   C600    1.432   .     S
C600   O697    1.264   .     A
C600   O691    1.274   .     A
C601   O692    1.266   .     A
C601   O698    1.274   .     A
C602   C605    1.459   .     S
C602   O684    1.275   .     A
C602   O682    1.272   .     A
C603   C604    1.493   .     S
C603   O685    1.300   .     A
C603   O683    1.288   .     A
C604   C608    1.405   .     A
C606   C621    1.454   .     S
C606   C630    1.429   .     A
C607   N673    1.158   .     T
C607   C636    1.451   .     S
C608   O688    1.386   .     S
C608   C619    1.419   .     A
C609   N674    1.158   .     T
C610   N675    1.157   .     T
C611   O686    1.412   .     S
C611   H648    1.114   .     S
C611   C612    1.529   .     S
C611   H425    1.112   1_655 S
C612   H667    1.111   .     S
C612   H668    1.112   .     S
C612   C613    1.526   .     S
C613   H669    1.110   .     S
C613   H671    1.108   .     S
C613   H670    1.110   .     S
C614   N676    1.157   .     T
C615   N677    1.158   .     T
C615   C950    1.452   .     S
C616   N678    1.157   .     T
C617   H672    1.111   .     S
C617   O687    1.419   .     S
C617   H638    1.114   .     S
C617   C618    1.534   .     S
C618   H640    1.111   .     S
C618   H639    1.108   .     S
C618   C386    1.525   1_655 S
C619   C630    1.429   .     A
C619   C633    1.431   .     A
C620   H643    1.111   .     S
C620   H641    1.110   .     S
C620   H642    1.109   .     S
C621   N1732   1.158   .     S
C622   N680    1.157   .     T
C623   C624    1.529   .     S
C623   O688    1.415   .     S
C623   H645    1.117   .     S
C623   H644    1.112   .     S
C624   H646    1.109   .     S
C624   H647    1.110   .     S
C624   C625    1.524   .     S
C625   H651    1.110   .     S
C625   H650    1.111   .     S
C625   H649    1.110   .     S
C626   C627    1.529   .     S
C626   H652    1.113   .     S
C626   H653    1.115   .     S
C626   O689    1.413   .     S
C627   H655    1.112   .     S
C627   H654    1.112   .     S
C627   C628    1.525   .     S
C628   H657    1.111   .     S
C628   H658    1.111   .     S
C628   H656    1.110   .     S
C629   O690    1.411   .     S
C629   H661    1.116   .     S
C629   C631    1.528   .     S
C629   H660    1.114   .     S
C630   C1689   1.423   .     S
C631   H663    1.111   .     S
C631   C632    1.525   .     S
C631   H662    1.111   .     S
C632   H666    1.111   .     S
C633   C1687   1.414   .     S
C634   C635    1.421   .     A
C634   C1686   1.414   1_554 S
C635   O689    1.388   .     S
C635   C636    1.402   .     A
C636   C1683   1.423   1_554 S
H664   C983    1.111   .     S
H665   C983    1.109   .     S
N679   C1674   1.158   1_554 S
O681   Zn700   1.927   .     S
O681   Zn699   1.965   .     S
O681   Zn702   1.935   .     S
O681   Zn701   1.935   .     S
O682   Zn700   1.915   .     S
O683   Zn702   1.922   .     S
O684   Zn701   1.911   .     S
O685   Zn699   1.907   .     S
O686   C362    1.400   1_655 S
O691   Zn699   1.933   .     S
O692   Zn702   1.941   .     S
O693   Zn700   1.935   .     S
O694   Zn701   1.943   .     S
O695   Zn702   1.931   .     S
O696   Zn699   1.927   .     S
O697   Zn700   1.952   .     S
O698   Zn701   1.942   .     S
C703   C713    1.452   .     S
C703   O812    1.274   .     A
C703   O810    1.253   .     A
C704   C750    1.422   .     A
C704   O807    1.383   .     S
C704   C705    1.402   .     A
C705   O804    1.386   .     S
C705   C1760   1.416   .     S
C706   O811    1.287   .     A
C706   O813    1.276   .     A
C706   C712    1.462   .     S
C707   C709    1.428   .     A
C707   C708    1.419   .     A
C707   C1758   1.416   1_554 S
C708   C711    1.404   .     A
C708   C751    1.423   .     A
C709   C710    1.410   .     A
C709   C726    1.452   .     S
C710   C722    1.403   .     A
C710   C733    1.451   .     S
C711   H754    1.081   .     S
C711   C722    1.386   .     A
C712   C830    1.354   .     S
C712   C844    1.452   .     S
C713   C946    1.354   1_455 S
C713   O1037   1.400   1_455 S
C714   C739    1.453   .     S
C714   C723    1.409   .     A
C714   C721    1.414   .     A
C715   C718    1.458   .     S
C715   C14     1.353   1_565 S
C715   C29     1.453   1_565 S
C716   C717    1.432   .     S
C717   O814    1.264   .     A
C717   O808    1.274   .     A
C718   O809    1.266   .     A
C718   O815    1.274   .     A
C719   C722    1.459   .     S
C719   O801    1.275   .     A
C719   O799    1.272   .     A
C720   C721    1.493   .     S
C720   O802    1.300   .     A
C720   O800    1.288   .     A
C721   C725    1.405   .     A
C723   C738    1.454   .     S
C723   C747    1.429   .     A
C724   N790    1.158   .     T
C724   C753    1.451   .     S
C725   O805    1.386   .     S
C725   C736    1.419   .     A
C726   N791    1.158   .     T
C727   N792    1.157   .     T
C727   C946    1.452   1_455 S
C728   O803    1.412   .     S
C728   H765    1.114   .     S
C728   C729    1.529   .     S
C728   H893    1.112   .     S
C729   H784    1.111   .     S
C729   H785    1.112   .     S
C729   C730    1.526   .     S
C730   H786    1.110   .     S
C730   H788    1.108   .     S
C730   H787    1.110   .     S
C731   N793    1.157   .     T
C732   N794    1.158   .     T
C732   C14     1.452   1_565 S
C733   N795    1.157   .     T
C734   H789    1.111   .     S
C734   O804    1.419   .     S
C734   H755    1.114   .     S
C734   C735    1.534   .     S
C735   H757    1.111   .     S
C735   H756    1.108   .     S
C735   C854    1.525   .     S
C736   C747    1.429   .     A
C736   C750    1.431   .     A
C737   H760    1.111   .     S
C737   H758    1.110   .     S
C737   H759    1.109   .     S
C737   C969    1.525   1_455 S
C738   N1849   1.158   .     S
C739   N797    1.157   .     T
C740   C741    1.529   .     S
C740   O805    1.415   .     S
C740   H762    1.117   .     S
C740   H761    1.112   .     S
C741   H763    1.109   .     S
C741   H764    1.110   .     S
C741   C742    1.524   .     S
C742   H768    1.110   .     S
C742   H767    1.111   .     S
C742   H766    1.110   .     S
C743   C744    1.529   .     S
C743   H769    1.113   .     S
C743   H770    1.115   .     S
C743   O806    1.413   .     S
C744   H772    1.112   .     S
C744   H771    1.112   .     S
C744   C745    1.525   .     S
C745   H774    1.111   .     S
C745   H775    1.111   .     S
C745   H773    1.110   .     S
C746   O807    1.411   .     S
C746   H778    1.116   .     S
C746   C748    1.528   .     S
C746   H777    1.114   .     S
C747   C1806   1.423   .     S
C748   H780    1.111   .     S
C748   C749    1.525   .     S
C748   H779    1.111   .     S
C749   H783    1.111   .     S
C750   C1804   1.414   .     S
C751   C752    1.421   .     A
C751   C1803   1.414   1_554 S
C752   O806    1.388   .     S
C752   C753    1.402   .     A
C753   C1800   1.423   1_554 S
H776   C962    1.112   1_455 S
H781   C47     1.111   1_565 S
H782   C47     1.109   1_565 S
N796   C1791   1.158   1_554 S
O798   Zn817   1.927   .     S
O798   Zn816   1.965   .     S
O798   Zn819   1.935   .     S
O798   Zn818   1.935   .     S
O799   Zn817   1.915   .     S
O800   Zn819   1.922   .     S
O801   Zn818   1.911   .     S
O802   Zn816   1.907   .     S
O803   C830    1.400   .     S
O808   Zn816   1.933   .     S
O809   Zn819   1.941   .     S
O810   Zn817   1.935   .     S
O811   Zn818   1.943   .     S
O812   Zn819   1.931   .     S
O813   Zn816   1.927   .     S
O814   Zn817   1.952   .     S
O815   Zn818   1.942   .     S
C820   C830    1.452   .     S
C820   O929    1.274   .     A
C820   O927    1.253   .     A
C821   C867    1.422   .     A
C821   O924    1.383   .     S
C821   C822    1.402   .     A
C822   O921    1.386   .     S
C822   C1877   1.416   .     S
C823   O928    1.287   .     A
C823   O930    1.276   .     A
C823   C829    1.462   .     S
C824   C826    1.428   .     A
C824   C825    1.419   .     A
C824   C1875   1.416   1_554 S
C825   C828    1.404   .     A
C825   C868    1.423   .     A
C826   C827    1.410   .     A
C826   C843    1.452   .     S
C827   C839    1.403   .     A
C827   C850    1.451   .     S
C828   H871    1.081   .     S
C828   C839    1.386   .     A
C829   C947    1.354   .     S
C829   C961    1.452   .     S
C831   C856    1.453   .     S
C831   C840    1.409   .     A
C831   C838    1.414   .     A
C832   C835    1.458   .     S
C832   C131    1.353   1_565 S
C832   C146    1.453   1_565 S
C833   C834    1.432   .     S
C834   O931    1.264   .     A
C834   O925    1.274   .     A
C835   O926    1.266   .     A
C835   O932    1.274   .     A
C836   C839    1.459   .     S
C836   O918    1.275   .     A
C836   O916    1.272   .     A
C837   C838    1.493   .     S
C837   O919    1.300   .     A
C837   O917    1.288   .     A
C838   C842    1.405   .     A
C840   C855    1.454   .     S
C840   C864    1.429   .     A
C841   N907    1.158   .     T
C841   C870    1.451   .     S
C842   O922    1.386   .     S
C842   C853    1.419   .     A
C843   N908    1.158   .     T
C844   N909    1.157   .     T
C845   O920    1.412   .     S
C845   H882    1.114   .     S
C845   C846    1.529   .     S
C845   H1010   1.112   .     S
C846   H901    1.111   .     S
C846   H902    1.112   .     S
C846   C847    1.526   .     S
C847   H903    1.110   .     S
C847   H905    1.108   .     S
C847   H904    1.110   .     S
C848   N910    1.157   .     T
C849   N911    1.158   .     T
C849   C131    1.452   1_565 S
C850   N912    1.157   .     T
C851   H906    1.111   .     S
C851   O921    1.419   .     S
C851   H872    1.114   .     S
C851   C852    1.534   .     S
C852   H874    1.111   .     S
C852   H873    1.108   .     S
C852   C971    1.525   .     S
C853   C864    1.429   .     A
C853   C867    1.431   .     A
C854   H877    1.111   .     S
C854   H875    1.110   .     S
C854   H876    1.109   .     S
C855   N1966   1.158   .     S
C856   N914    1.157   .     T
C857   C858    1.529   .     S
C857   O922    1.415   .     S
C857   H879    1.117   .     S
C857   H878    1.112   .     S
C858   H880    1.109   .     S
C858   H881    1.110   .     S
C858   C859    1.524   .     S
C859   H885    1.110   .     S
C859   H884    1.111   .     S
C859   H883    1.110   .     S
C860   C861    1.529   .     S
C860   H886    1.113   .     S
C860   H887    1.115   .     S
C860   O923    1.413   .     S
C861   H889    1.112   .     S
C861   H888    1.112   .     S
C861   C862    1.525   .     S
C862   H891    1.111   .     S
C862   H892    1.111   .     S
C862   H890    1.110   .     S
C863   O924    1.411   .     S
C863   H895    1.116   .     S
C863   C865    1.528   .     S
C863   H894    1.114   .     S
C864   C1923   1.423   .     S
C865   H897    1.111   .     S
C865   C866    1.525   .     S
C865   H896    1.111   .     S
C866   H900    1.111   .     S
C867   C1921   1.414   .     S
C868   C869    1.421   .     A
C868   C1920   1.414   1_554 S
C869   O923    1.388   .     S
C869   C870    1.402   .     A
C870   C1917   1.423   1_554 S
H898   C164    1.111   1_565 S
H899   C164    1.109   1_565 S
N913   C1908   1.158   1_554 S
O915   Zn934   1.927   .     S
O915   Zn933   1.965   .     S
O915   Zn936   1.935   .     S
O915   Zn935   1.935   .     S
O916   Zn934   1.915   .     S
O917   Zn936   1.922   .     S
O918   Zn935   1.911   .     S
O919   Zn933   1.907   .     S
O920   C947    1.400   .     S
O925   Zn933   1.933   .     S
O926   Zn936   1.941   .     S
O927   Zn934   1.935   .     S
O928   Zn935   1.943   .     S
O929   Zn936   1.931   .     S
O930   Zn933   1.927   .     S
O931   Zn934   1.952   .     S
O932   Zn935   1.942   .     S
C937   C947    1.452   .     S
C937   O1046   1.274   .     A
C937   O1044   1.253   .     A
C938   C984    1.422   .     A
C938   O1041   1.383   .     S
C938   C939    1.402   .     A
C939   O1038   1.386   .     S
C939   C1994   1.416   .     S
C940   O1045   1.287   .     A
C940   O1047   1.276   .     A
C940   C946    1.462   .     S
C941   C943    1.428   .     A
C941   C942    1.419   .     A
C941   C1992   1.416   1_554 S
C942   C945    1.404   .     A
C942   C985    1.423   .     A
C943   C944    1.410   .     A
C943   C960    1.452   .     S
C944   C956    1.403   .     A
C944   C967    1.451   .     S
C945   H988    1.081   .     S
C945   C956    1.386   .     A
C946   C713    1.354   1_655 S
C946   C727    1.452   1_655 S
C948   C973    1.453   .     S
C948   C957    1.409   .     A
C948   C955    1.414   .     A
C949   C952    1.458   .     S
C949   C248    1.353   1_565 S
C949   C263    1.453   1_565 S
C950   C951    1.432   .     S
C951   O1048   1.264   .     A
C951   O1042   1.274   .     A
C952   O1043   1.266   .     A
C952   O1049   1.274   .     A
C953   C956    1.459   .     S
C953   O1035   1.275   .     A
C953   O1033   1.272   .     A
C954   C955    1.493   .     S
C954   O1036   1.300   .     A
C954   O1034   1.288   .     A
C955   C959    1.405   .     A
C957   C972    1.454   .     S
C957   C981    1.429   .     A
C958   N1024   1.158   .     T
C958   C987    1.451   .     S
C959   O1039   1.386   .     S
C959   C970    1.419   .     A
C960   N1025   1.158   .     T
C961   N1026   1.157   .     T
C962   O1037   1.412   .     S
C962   H999    1.114   .     S
C962   C963    1.529   .     S
C962   H776    1.112   1_655 S
C963   H1018   1.111   .     S
C963   H1019   1.112   .     S
C963   C964    1.526   .     S
C964   H1020   1.110   .     S
C964   H1022   1.108   .     S
C964   H1021   1.110   .     S
C965   N1027   1.157   .     T
C966   N1028   1.158   .     T
C966   C248    1.452   1_565 S
C967   N1029   1.157   .     T
C968   H1023   1.111   .     S
C968   O1038   1.419   .     S
C968   H989    1.114   .     S
C968   C969    1.534   .     S
C969   H991    1.111   .     S
C969   H990    1.108   .     S
C969   C737    1.525   1_655 S
C970   C981    1.429   .     A
C970   C984    1.431   .     A
C971   H994    1.111   .     S
C971   H992    1.110   .     S
C971   H993    1.109   .     S
C972   N2083   1.158   .     S
C973   N1031   1.157   .     T
C974   C975    1.529   .     S
C974   O1039   1.415   .     S
C974   H996    1.117   .     S
C974   H995    1.112   .     S
C975   H997    1.109   .     S
C975   H998    1.110   .     S
C975   C976    1.524   .     S
C976   H1002   1.110   .     S
C976   H1001   1.111   .     S
C976   H1000   1.110   .     S
C977   C978    1.529   .     S
C977   H1003   1.113   .     S
C977   H1004   1.115   .     S
C977   O1040   1.413   .     S
C978   H1006   1.112   .     S
C978   H1005   1.112   .     S
C978   C979    1.525   .     S
C979   H1008   1.111   .     S
C979   H1009   1.111   .     S
C979   H1007   1.110   .     S
C980   O1041   1.411   .     S
C980   H1012   1.116   .     S
C980   C982    1.528   .     S
C980   H1011   1.114   .     S
C981   C2040   1.423   .     S
C982   H1014   1.111   .     S
C982   C983    1.525   .     S
C982   H1013   1.111   .     S
C983   H1017   1.111   .     S
C984   C2038   1.414   .     S
C985   C986    1.421   .     A
C985   C2037   1.414   1_554 S
C986   O1040   1.388   .     S
C986   C987    1.402   .     A
C987   C2034   1.423   1_554 S
H1015  C281    1.111   1_565 S
H1016  C281    1.109   1_565 S
N1030  C2025   1.158   1_554 S
O1032  Zn1051  1.927   .     S
O1032  Zn1050  1.965   .     S
O1032  Zn1053  1.935   .     S
O1032  Zn1052  1.935   .     S
O1033  Zn1051  1.915   .     S
O1034  Zn1053  1.922   .     S
O1035  Zn1052  1.911   .     S
O1036  Zn1050  1.907   .     S
O1037  C713    1.400   1_655 S
O1042  Zn1050  1.933   .     S
O1043  Zn1053  1.941   .     S
O1044  Zn1051  1.935   .     S
O1045  Zn1052  1.943   .     S
O1046  Zn1053  1.931   .     S
O1047  Zn1050  1.927   .     S
O1048  Zn1051  1.952   .     S
O1049  Zn1052  1.942   .     S
C1054  C1064   1.452   .     S
C1054  O1163   1.274   .     A
C1054  O1161   1.253   .     A
C1055  C1101   1.422   .     A
C1055  O1158   1.383   .     S
C1055  C1056   1.402   .     A
C1056  O1155   1.386   .     S
C1056  C5      1.416   1_556 S
C1057  O1162   1.287   .     A
C1057  O1164   1.276   .     A
C1057  C1063   1.462   .     S
C1058  C1060   1.428   .     A
C1058  C1059   1.419   .     A
C1059  C1062   1.404   .     A
C1059  C1102   1.423   .     A
C1060  C1061   1.410   .     A
C1060  C1077   1.452   .     S
C1061  C1073   1.403   .     A
C1061  C1084   1.451   .     S
C1062  H1105   1.081   .     S
C1062  C1073   1.386   .     A
C1063  C1181   1.354   .     S
C1063  C1195   1.452   .     S
C1064  C1297   1.354   1_455 S
C1064  O1388   1.400   1_455 S
C1065  C1090   1.453   .     S
C1065  C1074   1.409   .     A
C1065  C1072   1.414   .     A
C1066  C1069   1.458   .     S
C1066  C1418   1.353   .     S
C1066  C1433   1.453   .     S
C1067  C1068   1.432   .     S
C1067  C1768   1.353   1_545 S
C1067  C1785   1.452   1_545 S
C1068  O1165   1.264   .     A
C1068  O1159   1.274   .     A
C1069  O1160   1.266   .     A
C1069  O1166   1.274   .     A
C1070  C1073   1.459   .     S
C1070  O1152   1.275   .     A
C1070  O1150   1.272   .     A
C1071  C1072   1.493   .     S
C1071  O1153   1.300   .     A
C1071  O1151   1.288   .     A
C1072  C1076   1.405   .     A
C1074  C1089   1.454   .     S
C1074  C1098   1.429   .     A
C1075  N1141   1.158   .     T
C1075  C1104   1.451   .     S
C1076  O1156   1.386   .     S
C1076  C1087   1.419   .     A
C1077  N1142   1.158   .     T
C1078  N1143   1.157   .     T
C1078  C1297   1.452   1_455 S
C1079  O1154   1.412   .     S
C1079  H1116   1.114   .     S
C1079  C1080   1.529   .     S
C1079  H1244   1.112   .     S
C1080  H1135   1.111   .     S
C1080  H1136   1.112   .     S
C1080  C1081   1.526   .     S
C1081  H1137   1.110   .     S
C1081  H1139   1.108   .     S
C1081  H1138   1.110   .     S
C1082  N1144   1.157   .     T
C1082  C1768   1.453   1_545 S
C1083  N1145   1.158   .     T
C1083  C1418   1.452   .     S
C1084  N1146   1.157   .     T
C1085  H1140   1.111   .     S
C1085  O1155   1.419   .     S
C1085  H1106   1.114   .     S
C1085  C1086   1.534   .     S
C1086  H1108   1.111   .     S
C1086  H1107   1.108   .     S
C1086  C1205   1.525   .     S
C1087  C1098   1.429   .     A
C1087  C1101   1.431   .     A
C1088  H1111   1.111   .     S
C1088  H1109   1.110   .     S
C1088  H1110   1.109   .     S
C1088  C1320   1.525   1_455 S
C1089  N94     1.158   1_556 S
C1090  N1148   1.157   .     T
C1091  C1092   1.529   .     S
C1091  O1156   1.415   .     S
C1091  H1113   1.117   .     S
C1091  H1112   1.112   .     S
C1092  H1114   1.109   .     S
C1092  H1115   1.110   .     S
C1092  C1093   1.524   .     S
C1093  H1119   1.110   .     S
C1093  H1118   1.111   .     S
C1093  H1117   1.110   .     S
C1094  C1095   1.529   .     S
C1094  H1120   1.113   .     S
C1094  H1121   1.115   .     S
C1094  O1157   1.413   .     S
C1095  H1123   1.112   .     S
C1095  H1122   1.112   .     S
C1095  C1096   1.525   .     S
C1096  H1125   1.111   .     S
C1096  H1126   1.111   .     S
C1096  H1124   1.110   .     S
C1097  O1158   1.411   .     S
C1097  H1129   1.116   .     S
C1097  C1099   1.528   .     S
C1097  H1128   1.114   .     S
C1098  C51     1.423   1_556 S
C1099  H1131   1.111   .     S
C1099  C1100   1.525   .     S
C1099  H1130   1.111   .     S
C1100  H1134   1.111   .     S
C1100  H1834   1.111   1_545 S
C1100  H1835   1.109   1_545 S
C1101  C49     1.414   1_556 S
C1102  C1103   1.421   .     A
C1103  O1157   1.388   .     S
C1103  C1104   1.402   .     A
H1127  C1313   1.112   1_455 S
H1132  C1451   1.111   .     S
H1133  C1451   1.109   .     S
O1149  Zn1168  1.927   .     S
O1149  Zn1167  1.965   .     S
O1149  Zn1170  1.935   .     S
O1149  Zn1169  1.935   .     S
O1150  Zn1168  1.915   .     S
O1151  Zn1170  1.922   .     S
O1152  Zn1169  1.911   .     S
O1153  Zn1167  1.907   .     S
O1154  C1181   1.400   .     S
O1159  Zn1167  1.933   .     S
O1160  Zn1170  1.941   .     S
O1161  Zn1168  1.935   .     S
O1162  Zn1169  1.943   .     S
O1163  Zn1170  1.931   .     S
O1164  Zn1167  1.927   .     S
O1165  Zn1168  1.952   .     S
O1166  Zn1169  1.942   .     S
C1171  C1181   1.452   .     S
C1171  O1280   1.274   .     A
C1171  O1278   1.253   .     A
C1172  C1218   1.422   .     A
C1172  O1275   1.383   .     S
C1172  C1173   1.402   .     A
C1173  O1272   1.386   .     S
C1173  C122    1.416   1_556 S
C1174  O1279   1.287   .     A
C1174  O1281   1.276   .     A
C1174  C1180   1.462   .     S
C1175  C1177   1.428   .     A
C1175  C1176   1.419   .     A
C1176  C1179   1.404   .     A
C1176  C1219   1.423   .     A
C1177  C1178   1.410   .     A
C1177  C1194   1.452   .     S
C1178  C1190   1.403   .     A
C1178  C1201   1.451   .     S
C1179  H1222   1.081   .     S
C1179  C1190   1.386   .     A
C1180  C1298   1.354   .     S
C1180  C1312   1.452   .     S
C1182  C1207   1.453   .     S
C1182  C1191   1.409   .     A
C1182  C1189   1.414   .     A
C1183  C1186   1.458   .     S
C1183  C1535   1.353   .     S
C1183  C1550   1.453   .     S
C1184  C1185   1.432   .     S
C1184  C1885   1.353   1_545 S
C1184  C1902   1.452   1_545 S
C1185  O1282   1.264   .     A
C1185  O1276   1.274   .     A
C1186  O1277   1.266   .     A
C1186  O1283   1.274   .     A
C1187  C1190   1.459   .     S
C1187  O1269   1.275   .     A
C1187  O1267   1.272   .     A
C1188  C1189   1.493   .     S
C1188  O1270   1.300   .     A
C1188  O1268   1.288   .     A
C1189  C1193   1.405   .     A
C1191  C1206   1.454   .     S
C1191  C1215   1.429   .     A
C1192  N1258   1.158   .     T
C1192  C1221   1.451   .     S
C1193  O1273   1.386   .     S
C1193  C1204   1.419   .     A
C1194  N1259   1.158   .     T
C1195  N1260   1.157   .     T
C1196  O1271   1.412   .     S
C1196  H1233   1.114   .     S
C1196  C1197   1.529   .     S
C1196  H1361   1.112   .     S
C1197  H1252   1.111   .     S
C1197  H1253   1.112   .     S
C1197  C1198   1.526   .     S
C1198  H1254   1.110   .     S
C1198  H1256   1.108   .     S
C1198  H1255   1.110   .     S
C1199  N1261   1.157   .     T
C1199  C1885   1.453   1_545 S
C1200  N1262   1.158   .     T
C1200  C1535   1.452   .     S
C1201  N1263   1.157   .     T
C1202  H1257   1.111   .     S
C1202  O1272   1.419   .     S
C1202  H1223   1.114   .     S
C1202  C1203   1.534   .     S
C1203  H1225   1.111   .     S
C1203  H1224   1.108   .     S
C1203  C1322   1.525   .     S
C1204  C1215   1.429   .     A
C1204  C1218   1.431   .     A
C1205  H1228   1.111   .     S
C1205  H1226   1.110   .     S
C1205  H1227   1.109   .     S
C1206  N211    1.158   1_556 S
C1207  N1265   1.157   .     T
C1208  C1209   1.529   .     S
C1208  O1273   1.415   .     S
C1208  H1230   1.117   .     S
C1208  H1229   1.112   .     S
C1209  H1231   1.109   .     S
C1209  H1232   1.110   .     S
C1209  C1210   1.524   .     S
C1210  H1236   1.110   .     S
C1210  H1235   1.111   .     S
C1210  H1234   1.110   .     S
C1211  C1212   1.529   .     S
C1211  H1237   1.113   .     S
C1211  H1238   1.115   .     S
C1211  O1274   1.413   .     S
C1212  H1240   1.112   .     S
C1212  H1239   1.112   .     S
C1212  C1213   1.525   .     S
C1213  H1242   1.111   .     S
C1213  H1243   1.111   .     S
C1213  H1241   1.110   .     S
C1214  O1275   1.411   .     S
C1214  H1246   1.116   .     S
C1214  C1216   1.528   .     S
C1214  H1245   1.114   .     S
C1215  C168    1.423   1_556 S
C1216  H1248   1.111   .     S
C1216  C1217   1.525   .     S
C1216  H1247   1.111   .     S
C1217  H1251   1.111   .     S
C1217  H1951   1.111   1_545 S
C1217  H1952   1.109   1_545 S
C1218  C166    1.414   1_556 S
C1219  C1220   1.421   .     A
C1220  O1274   1.388   .     S
C1220  C1221   1.402   .     A
H1249  C1568   1.111   .     S
H1250  C1568   1.109   .     S
O1266  Zn1285  1.927   .     S
O1266  Zn1284  1.965   .     S
O1266  Zn1287  1.935   .     S
O1266  Zn1286  1.935   .     S
O1267  Zn1285  1.915   .     S
O1268  Zn1287  1.922   .     S
O1269  Zn1286  1.911   .     S
O1270  Zn1284  1.907   .     S
O1271  C1298   1.400   .     S
O1276  Zn1284  1.933   .     S
O1277  Zn1287  1.941   .     S
O1278  Zn1285  1.935   .     S
O1279  Zn1286  1.943   .     S
O1280  Zn1287  1.931   .     S
O1281  Zn1284  1.927   .     S
O1282  Zn1285  1.952   .     S
O1283  Zn1286  1.942   .     S
C1288  C1298   1.452   .     S
C1288  O1397   1.274   .     A
C1288  O1395   1.253   .     A
C1289  C1335   1.422   .     A
C1289  O1392   1.383   .     S
C1289  C1290   1.402   .     A
C1290  O1389   1.386   .     S
C1290  C239    1.416   1_556 S
C1291  O1396   1.287   .     A
C1291  O1398   1.276   .     A
C1291  C1297   1.462   .     S
C1292  C1294   1.428   .     A
C1292  C1293   1.419   .     A
C1293  C1296   1.404   .     A
C1293  C1336   1.423   .     A
C1294  C1295   1.410   .     A
C1294  C1311   1.452   .     S
C1295  C1307   1.403   .     A
C1295  C1318   1.451   .     S
C1296  H1339   1.081   .     S
C1296  C1307   1.386   .     A
C1297  C1064   1.354   1_655 S
C1297  C1078   1.452   1_655 S
C1299  C1324   1.453   .     S
C1299  C1308   1.409   .     A
C1299  C1306   1.414   .     A
C1300  C1303   1.458   .     S
C1300  C1652   1.353   .     S
C1300  C1667   1.453   .     S
C1301  C1302   1.432   .     S
C1301  C2002   1.353   1_545 S
C1301  C2019   1.452   1_545 S
C1302  O1399   1.264   .     A
C1302  O1393   1.274   .     A
C1303  O1394   1.266   .     A
C1303  O1400   1.274   .     A
C1304  C1307   1.459   .     S
C1304  O1386   1.275   .     A
C1304  O1384   1.272   .     A
C1305  C1306   1.493   .     S
C1305  O1387   1.300   .     A
C1305  O1385   1.288   .     A
C1306  C1310   1.405   .     A
C1308  C1323   1.454   .     S
C1308  C1332   1.429   .     A
C1309  N1375   1.158   .     T
C1309  C1338   1.451   .     S
C1310  O1390   1.386   .     S
C1310  C1321   1.419   .     A
C1311  N1376   1.158   .     T
C1312  N1377   1.157   .     T
C1313  O1388   1.412   .     S
C1313  H1350   1.114   .     S
C1313  C1314   1.529   .     S
C1313  H1127   1.112   1_655 S
C1314  H1369   1.111   .     S
C1314  H1370   1.112   .     S
C1314  C1315   1.526   .     S
C1315  H1371   1.110   .     S
C1315  H1373   1.108   .     S
C1315  H1372   1.110   .     S
C1316  N1378   1.157   .     T
C1316  C2002   1.453   1_545 S
C1317  N1379   1.158   .     T
C1317  C1652   1.452   .     S
C1318  N1380   1.157   .     T
C1319  H1374   1.111   .     S
C1319  O1389   1.419   .     S
C1319  H1340   1.114   .     S
C1319  C1320   1.534   .     S
C1320  H1342   1.111   .     S
C1320  H1341   1.108   .     S
C1320  C1088   1.525   1_655 S
C1321  C1332   1.429   .     A
C1321  C1335   1.431   .     A
C1322  H1345   1.111   .     S
C1322  H1343   1.110   .     S
C1322  H1344   1.109   .     S
C1323  N328    1.158   1_556 S
C1324  N1382   1.157   .     T
C1325  C1326   1.529   .     S
C1325  O1390   1.415   .     S
C1325  H1347   1.117   .     S
C1325  H1346   1.112   .     S
C1326  H1348   1.109   .     S
C1326  H1349   1.110   .     S
C1326  C1327   1.524   .     S
C1327  H1353   1.110   .     S
C1327  H1352   1.111   .     S
C1327  H1351   1.110   .     S
C1328  C1329   1.529   .     S
C1328  H1354   1.113   .     S
C1328  H1355   1.115   .     S
C1328  O1391   1.413   .     S
C1329  H1357   1.112   .     S
C1329  H1356   1.112   .     S
C1329  C1330   1.525   .     S
C1330  H1359   1.111   .     S
C1330  H1360   1.111   .     S
C1330  H1358   1.110   .     S
C1331  O1392   1.411   .     S
C1331  H1363   1.116   .     S
C1331  C1333   1.528   .     S
C1331  H1362   1.114   .     S
C1332  C285    1.423   1_556 S
C1333  H1365   1.111   .     S
C1333  C1334   1.525   .     S
C1333  H1364   1.111   .     S
C1334  H1368   1.111   .     S
C1334  H2068   1.111   1_545 S
C1334  H2069   1.109   1_545 S
C1335  C283    1.414   1_556 S
C1336  C1337   1.421   .     A
C1337  O1391   1.388   .     S
C1337  C1338   1.402   .     A
H1366  C1685   1.111   .     S
H1367  C1685   1.109   .     S
O1383  Zn1402  1.927   .     S
O1383  Zn1401  1.965   .     S
O1383  Zn1404  1.935   .     S
O1383  Zn1403  1.935   .     S
O1384  Zn1402  1.915   .     S
O1385  Zn1404  1.922   .     S
O1386  Zn1403  1.911   .     S
O1387  Zn1401  1.907   .     S
O1388  C1064   1.400   1_655 S
O1393  Zn1401  1.933   .     S
O1394  Zn1404  1.941   .     S
O1395  Zn1402  1.935   .     S
O1396  Zn1403  1.943   .     S
O1397  Zn1404  1.931   .     S
O1398  Zn1401  1.927   .     S
O1399  Zn1402  1.952   .     S
O1400  Zn1403  1.942   .     S
C1405  C1415   1.452   .     S
C1405  O1514   1.274   .     A
C1405  O1512   1.253   .     A
C1406  C1452   1.422   .     A
C1406  O1509   1.383   .     S
C1406  C1407   1.402   .     A
C1407  O1506   1.386   .     S
C1407  C356    1.416   1_556 S
C1408  O1513   1.287   .     A
C1408  O1515   1.276   .     A
C1408  C1414   1.462   .     S
C1409  C1411   1.428   .     A
C1409  C1410   1.419   .     A
C1410  C1413   1.404   .     A
C1410  C1453   1.423   .     A
C1411  C1412   1.410   .     A
C1411  C1428   1.452   .     S
C1412  C1424   1.403   .     A
C1412  C1435   1.451   .     S
C1413  H1456   1.081   .     S
C1413  C1424   1.386   .     A
C1414  C1532   1.354   .     S
C1414  C1546   1.452   .     S
C1415  C1648   1.354   1_455 S
C1415  O1739   1.400   1_455 S
C1416  C1441   1.453   .     S
C1416  C1425   1.409   .     A
C1416  C1423   1.414   .     A
C1417  C1420   1.458   .     S
C1417  C1769   1.353   .     S
C1417  C1784   1.453   .     S
C1418  C1419   1.432   .     S
C1419  O1516   1.264   .     A
C1419  O1510   1.274   .     A
C1420  O1511   1.266   .     A
C1420  O1517   1.274   .     A
C1421  C1424   1.459   .     S
C1421  O1503   1.275   .     A
C1421  O1501   1.272   .     A
C1422  C1423   1.493   .     S
C1422  O1504   1.300   .     A
C1422  O1502   1.288   .     A
C1423  C1427   1.405   .     A
C1425  C1440   1.454   .     S
C1425  C1449   1.429   .     A
C1426  N1492   1.158   .     T
C1426  C1455   1.451   .     S
C1427  O1507   1.386   .     S
C1427  C1438   1.419   .     A
C1428  N1493   1.158   .     T
C1429  N1494   1.157   .     T
C1429  C1648   1.452   1_455 S
C1430  O1505   1.412   .     S
C1430  H1467   1.114   .     S
C1430  C1431   1.529   .     S
C1430  H1595   1.112   .     S
C1431  H1486   1.111   .     S
C1431  H1487   1.112   .     S
C1431  C1432   1.526   .     S
C1432  H1488   1.110   .     S
C1432  H1490   1.108   .     S
C1432  H1489   1.110   .     S
C1433  N1495   1.157   .     T
C1434  N1496   1.158   .     T
C1434  C1769   1.452   .     S
C1435  N1497   1.157   .     T
C1436  H1491   1.111   .     S
C1436  O1506   1.419   .     S
C1436  H1457   1.114   .     S
C1436  C1437   1.534   .     S
C1437  H1459   1.111   .     S
C1437  H1458   1.108   .     S
C1437  C1556   1.525   .     S
C1438  C1449   1.429   .     A
C1438  C1452   1.431   .     A
C1439  H1462   1.111   .     S
C1439  H1460   1.110   .     S
C1439  H1461   1.109   .     S
C1439  C1671   1.525   1_455 S
C1440  N445    1.158   1_556 S
C1441  N1499   1.157   .     T
C1442  C1443   1.529   .     S
C1442  O1507   1.415   .     S
C1442  H1464   1.117   .     S
C1442  H1463   1.112   .     S
C1443  H1465   1.109   .     S
C1443  H1466   1.110   .     S
C1443  C1444   1.524   .     S
C1444  H1470   1.110   .     S
C1444  H1469   1.111   .     S
C1444  H1468   1.110   .     S
C1445  C1446   1.529   .     S
C1445  H1471   1.113   .     S
C1445  H1472   1.115   .     S
C1445  O1508   1.413   .     S
C1446  H1474   1.112   .     S
C1446  H1473   1.112   .     S
C1446  C1447   1.525   .     S
C1447  H1476   1.111   .     S
C1447  H1477   1.111   .     S
C1447  H1475   1.110   .     S
C1448  O1509   1.411   .     S
C1448  H1480   1.116   .     S
C1448  C1450   1.528   .     S
C1448  H1479   1.114   .     S
C1449  C402    1.423   1_556 S
C1450  H1482   1.111   .     S
C1450  C1451   1.525   .     S
C1450  H1481   1.111   .     S
C1451  H1485   1.111   .     S
C1452  C400    1.414   1_556 S
C1453  C1454   1.421   .     A
C1454  O1508   1.388   .     S
C1454  C1455   1.402   .     A
H1478  C1664   1.112   1_455 S
H1483  C1802   1.111   .     S
H1484  C1802   1.109   .     S
O1500  Zn1519  1.927   .     S
O1500  Zn1518  1.965   .     S
O1500  Zn1521  1.935   .     S
O1500  Zn1520  1.935   .     S
O1501  Zn1519  1.915   .     S
O1502  Zn1521  1.922   .     S
O1503  Zn1520  1.911   .     S
O1504  Zn1518  1.907   .     S
O1505  C1532   1.400   .     S
O1510  Zn1518  1.933   .     S
O1511  Zn1521  1.941   .     S
O1512  Zn1519  1.935   .     S
O1513  Zn1520  1.943   .     S
O1514  Zn1521  1.931   .     S
O1515  Zn1518  1.927   .     S
O1516  Zn1519  1.952   .     S
O1517  Zn1520  1.942   .     S
C1522  C1532   1.452   .     S
C1522  O1631   1.274   .     A
C1522  O1629   1.253   .     A
C1523  C1569   1.422   .     A
C1523  O1626   1.383   .     S
C1523  C1524   1.402   .     A
C1524  O1623   1.386   .     S
C1524  C473    1.416   1_556 S
C1525  O1630   1.287   .     A
C1525  O1632   1.276   .     A
C1525  C1531   1.462   .     S
C1526  C1528   1.428   .     A
C1526  C1527   1.419   .     A
C1527  C1530   1.404   .     A
C1527  C1570   1.423   .     A
C1528  C1529   1.410   .     A
C1528  C1545   1.452   .     S
C1529  C1541   1.403   .     A
C1529  C1552   1.451   .     S
C1530  H1573   1.081   .     S
C1530  C1541   1.386   .     A
C1531  C1649   1.354   .     S
C1531  C1663   1.452   .     S
C1533  C1558   1.453   .     S
C1533  C1542   1.409   .     A
C1533  C1540   1.414   .     A
C1534  C1537   1.458   .     S
C1534  C1886   1.353   .     S
C1534  C1901   1.453   .     S
C1535  C1536   1.432   .     S
C1536  O1633   1.264   .     A
C1536  O1627   1.274   .     A
C1537  O1628   1.266   .     A
C1537  O1634   1.274   .     A
C1538  C1541   1.459   .     S
C1538  O1620   1.275   .     A
C1538  O1618   1.272   .     A
C1539  C1540   1.493   .     S
C1539  O1621   1.300   .     A
C1539  O1619   1.288   .     A
C1540  C1544   1.405   .     A
C1542  C1557   1.454   .     S
C1542  C1566   1.429   .     A
C1543  N1609   1.158   .     T
C1543  C1572   1.451   .     S
C1544  O1624   1.386   .     S
C1544  C1555   1.419   .     A
C1545  N1610   1.158   .     T
C1546  N1611   1.157   .     T
C1547  O1622   1.412   .     S
C1547  H1584   1.114   .     S
C1547  C1548   1.529   .     S
C1547  H1712   1.112   .     S
C1548  H1603   1.111   .     S
C1548  H1604   1.112   .     S
C1548  C1549   1.526   .     S
C1549  H1605   1.110   .     S
C1549  H1607   1.108   .     S
C1549  H1606   1.110   .     S
C1550  N1612   1.157   .     T
C1551  N1613   1.158   .     T
C1551  C1886   1.452   .     S
C1552  N1614   1.157   .     T
C1553  H1608   1.111   .     S
C1553  O1623   1.419   .     S
C1553  H1574   1.114   .     S
C1553  C1554   1.534   .     S
C1554  H1576   1.111   .     S
C1554  H1575   1.108   .     S
C1554  C1673   1.525   .     S
C1555  C1566   1.429   .     A
C1555  C1569   1.431   .     A
C1556  H1579   1.111   .     S
C1556  H1577   1.110   .     S
C1556  H1578   1.109   .     S
C1557  N562    1.158   1_556 S
C1558  N1616   1.157   .     T
C1559  C1560   1.529   .     S
C1559  O1624   1.415   .     S
C1559  H1581   1.117   .     S
C1559  H1580   1.112   .     S
C1560  H1582   1.109   .     S
C1560  H1583   1.110   .     S
C1560  C1561   1.524   .     S
C1561  H1587   1.110   .     S
C1561  H1586   1.111   .     S
C1561  H1585   1.110   .     S
C1562  C1563   1.529   .     S
C1562  H1588   1.113   .     S
C1562  H1589   1.115   .     S
C1562  O1625   1.413   .     S
C1563  H1591   1.112   .     S
C1563  H1590   1.112   .     S
C1563  C1564   1.525   .     S
C1564  H1593   1.111   .     S
C1564  H1594   1.111   .     S
C1564  H1592   1.110   .     S
C1565  O1626   1.411   .     S
C1565  H1597   1.116   .     S
C1565  C1567   1.528   .     S
C1565  H1596   1.114   .     S
C1566  C519    1.423   1_556 S
C1567  H1599   1.111   .     S
C1567  C1568   1.525   .     S
C1567  H1598   1.111   .     S
C1568  H1602   1.111   .     S
C1569  C517    1.414   1_556 S
C1570  C1571   1.421   .     A
C1571  O1625   1.388   .     S
C1571  C1572   1.402   .     A
H1600  C1919   1.111   .     S
H1601  C1919   1.109   .     S
O1617  Zn1636  1.927   .     S
O1617  Zn1635  1.965   .     S
O1617  Zn1638  1.935   .     S
O1617  Zn1637  1.935   .     S
O1618  Zn1636  1.915   .     S
O1619  Zn1638  1.922   .     S
O1620  Zn1637  1.911   .     S
O1621  Zn1635  1.907   .     S
O1622  C1649   1.400   .     S
O1627  Zn1635  1.933   .     S
O1628  Zn1638  1.941   .     S
O1629  Zn1636  1.935   .     S
O1630  Zn1637  1.943   .     S
O1631  Zn1638  1.931   .     S
O1632  Zn1635  1.927   .     S
O1633  Zn1636  1.952   .     S
O1634  Zn1637  1.942   .     S
C1639  C1649   1.452   .     S
C1639  O1748   1.274   .     A
C1639  O1746   1.253   .     A
C1640  C1686   1.422   .     A
C1640  O1743   1.383   .     S
C1640  C1641   1.402   .     A
C1641  O1740   1.386   .     S
C1641  C590    1.416   1_556 S
C1642  O1747   1.287   .     A
C1642  O1749   1.276   .     A
C1642  C1648   1.462   .     S
C1643  C1645   1.428   .     A
C1643  C1644   1.419   .     A
C1644  C1647   1.404   .     A
C1644  C1687   1.423   .     A
C1645  C1646   1.410   .     A
C1645  C1662   1.452   .     S
C1646  C1658   1.403   .     A
C1646  C1669   1.451   .     S
C1647  H1690   1.081   .     S
C1647  C1658   1.386   .     A
C1648  C1415   1.354   1_655 S
C1648  C1429   1.452   1_655 S
C1650  C1675   1.453   .     S
C1650  C1659   1.409   .     A
C1650  C1657   1.414   .     A
C1651  C1654   1.458   .     S
C1651  C2003   1.353   .     S
C1651  C2018   1.453   .     S
C1652  C1653   1.432   .     S
C1653  O1750   1.264   .     A
C1653  O1744   1.274   .     A
C1654  O1745   1.266   .     A
C1654  O1751   1.274   .     A
C1655  C1658   1.459   .     S
C1655  O1737   1.275   .     A
C1655  O1735   1.272   .     A
C1656  C1657   1.493   .     S
C1656  O1738   1.300   .     A
C1656  O1736   1.288   .     A
C1657  C1661   1.405   .     A
C1659  C1674   1.454   .     S
C1659  C1683   1.429   .     A
C1660  N1726   1.158   .     T
C1660  C1689   1.451   .     S
C1661  O1741   1.386   .     S
C1661  C1672   1.419   .     A
C1662  N1727   1.158   .     T
C1663  N1728   1.157   .     T
C1664  O1739   1.412   .     S
C1664  H1701   1.114   .     S
C1664  C1665   1.529   .     S
C1664  H1478   1.112   1_655 S
C1665  H1720   1.111   .     S
C1665  H1721   1.112   .     S
C1665  C1666   1.526   .     S
C1666  H1722   1.110   .     S
C1666  H1724   1.108   .     S
C1666  H1723   1.110   .     S
C1667  N1729   1.157   .     T
C1668  N1730   1.158   .     T
C1668  C2003   1.452   .     S
C1669  N1731   1.157   .     T
C1670  H1725   1.111   .     S
C1670  O1740   1.419   .     S
C1670  H1691   1.114   .     S
C1670  C1671   1.534   .     S
C1671  H1693   1.111   .     S
C1671  H1692   1.108   .     S
C1671  C1439   1.525   1_655 S
C1672  C1683   1.429   .     A
C1672  C1686   1.431   .     A
C1673  H1696   1.111   .     S
C1673  H1694   1.110   .     S
C1673  H1695   1.109   .     S
C1674  N679    1.158   1_556 S
C1675  N1733   1.157   .     T
C1676  C1677   1.529   .     S
C1676  O1741   1.415   .     S
C1676  H1698   1.117   .     S
C1676  H1697   1.112   .     S
C1677  H1699   1.109   .     S
C1677  H1700   1.110   .     S
C1677  C1678   1.524   .     S
C1678  H1704   1.110   .     S
C1678  H1703   1.111   .     S
C1678  H1702   1.110   .     S
C1679  C1680   1.529   .     S
C1679  H1705   1.113   .     S
C1679  H1706   1.115   .     S
C1679  O1742   1.413   .     S
C1680  H1708   1.112   .     S
C1680  H1707   1.112   .     S
C1680  C1681   1.525   .     S
C1681  H1710   1.111   .     S
C1681  H1711   1.111   .     S
C1681  H1709   1.110   .     S
C1682  O1743   1.411   .     S
C1682  H1714   1.116   .     S
C1682  C1684   1.528   .     S
C1682  H1713   1.114   .     S
C1683  C636    1.423   1_556 S
C1684  H1716   1.111   .     S
C1684  C1685   1.525   .     S
C1684  H1715   1.111   .     S
C1685  H1719   1.111   .     S
C1686  C634    1.414   1_556 S
C1687  C1688   1.421   .     A
C1688  O1742   1.388   .     S
C1688  C1689   1.402   .     A
H1717  C2036   1.111   .     S
H1718  C2036   1.109   .     S
O1734  Zn1753  1.927   .     S
O1734  Zn1752  1.965   .     S
O1734  Zn1755  1.935   .     S
O1734  Zn1754  1.935   .     S
O1735  Zn1753  1.915   .     S
O1736  Zn1755  1.922   .     S
O1737  Zn1754  1.911   .     S
O1738  Zn1752  1.907   .     S
O1739  C1415   1.400   1_655 S
O1744  Zn1752  1.933   .     S
O1745  Zn1755  1.941   .     S
O1746  Zn1753  1.935   .     S
O1747  Zn1754  1.943   .     S
O1748  Zn1755  1.931   .     S
O1749  Zn1752  1.927   .     S
O1750  Zn1753  1.952   .     S
O1751  Zn1754  1.942   .     S
C1756  C1766   1.452   .     S
C1756  O1865   1.274   .     A
C1756  O1863   1.253   .     A
C1757  C1803   1.422   .     A
C1757  O1860   1.383   .     S
C1757  C1758   1.402   .     A
C1758  O1857   1.386   .     S
C1758  C707    1.416   1_556 S
C1759  O1864   1.287   .     A
C1759  O1866   1.276   .     A
C1759  C1765   1.462   .     S
C1760  C1762   1.428   .     A
C1760  C1761   1.419   .     A
C1761  C1764   1.404   .     A
C1761  C1804   1.423   .     A
C1762  C1763   1.410   .     A
C1762  C1779   1.452   .     S
C1763  C1775   1.403   .     A
C1763  C1786   1.451   .     S
C1764  H1807   1.081   .     S
C1764  C1775   1.386   .     A
C1765  C1883   1.354   .     S
C1765  C1897   1.452   .     S
C1766  C1999   1.354   1_455 S
C1766  O2090   1.400   1_455 S
C1767  C1792   1.453   .     S
C1767  C1776   1.409   .     A
C1767  C1774   1.414   .     A
C1768  C1771   1.458   .     S
C1768  C1067   1.353   1_565 S
C1768  C1082   1.453   1_565 S
C1769  C1770   1.432   .     S
C1770  O1867   1.264   .     A
C1770  O1861   1.274   .     A
C1771  O1862   1.266   .     A
C1771  O1868   1.274   .     A
C1772  C1775   1.459   .     S
C1772  O1854   1.275   .     A
C1772  O1852   1.272   .     A
C1773  C1774   1.493   .     S
C1773  O1855   1.300   .     A
C1773  O1853   1.288   .     A
C1774  C1778   1.405   .     A
C1776  C1791   1.454   .     S
C1776  C1800   1.429   .     A
C1777  N1843   1.158   .     T
C1777  C1806   1.451   .     S
C1778  O1858   1.386   .     S
C1778  C1789   1.419   .     A
C1779  N1844   1.158   .     T
C1780  N1845   1.157   .     T
C1780  C1999   1.452   1_455 S
C1781  O1856   1.412   .     S
C1781  H1818   1.114   .     S
C1781  C1782   1.529   .     S
C1781  H1946   1.112   .     S
C1782  H1837   1.111   .     S
C1782  H1838   1.112   .     S
C1782  C1783   1.526   .     S
C1783  H1839   1.110   .     S
C1783  H1841   1.108   .     S
C1783  H1840   1.110   .     S
C1784  N1846   1.157   .     T
C1785  N1847   1.158   .     T
C1785  C1067   1.452   1_565 S
C1786  N1848   1.157   .     T
C1787  H1842   1.111   .     S
C1787  O1857   1.419   .     S
C1787  H1808   1.114   .     S
C1787  C1788   1.534   .     S
C1788  H1810   1.111   .     S
C1788  H1809   1.108   .     S
C1788  C1907   1.525   .     S
C1789  C1800   1.429   .     A
C1789  C1803   1.431   .     A
C1790  H1813   1.111   .     S
C1790  H1811   1.110   .     S
C1790  H1812   1.109   .     S
C1790  C2022   1.525   1_455 S
C1791  N796    1.158   1_556 S
C1792  N1850   1.157   .     T
C1793  C1794   1.529   .     S
C1793  O1858   1.415   .     S
C1793  H1815   1.117   .     S
C1793  H1814   1.112   .     S
C1794  H1816   1.109   .     S
C1794  H1817   1.110   .     S
C1794  C1795   1.524   .     S
C1795  H1821   1.110   .     S
C1795  H1820   1.111   .     S
C1795  H1819   1.110   .     S
C1796  C1797   1.529   .     S
C1796  H1822   1.113   .     S
C1796  H1823   1.115   .     S
C1796  O1859   1.413   .     S
C1797  H1825   1.112   .     S
C1797  H1824   1.112   .     S
C1797  C1798   1.525   .     S
C1798  H1827   1.111   .     S
C1798  H1828   1.111   .     S
C1798  H1826   1.110   .     S
C1799  O1860   1.411   .     S
C1799  H1831   1.116   .     S
C1799  C1801   1.528   .     S
C1799  H1830   1.114   .     S
C1800  C753    1.423   1_556 S
C1801  H1833   1.111   .     S
C1801  C1802   1.525   .     S
C1801  H1832   1.111   .     S
C1802  H1836   1.111   .     S
C1803  C751    1.414   1_556 S
C1804  C1805   1.421   .     A
C1805  O1859   1.388   .     S
C1805  C1806   1.402   .     A
H1829  C2015   1.112   1_455 S
H1834  C1100   1.111   1_565 S
H1835  C1100   1.109   1_565 S
O1851  Zn1870  1.927   .     S
O1851  Zn1869  1.965   .     S
O1851  Zn1872  1.935   .     S
O1851  Zn1871  1.935   .     S
O1852  Zn1870  1.915   .     S
O1853  Zn1872  1.922   .     S
O1854  Zn1871  1.911   .     S
O1855  Zn1869  1.907   .     S
O1856  C1883   1.400   .     S
O1861  Zn1869  1.933   .     S
O1862  Zn1872  1.941   .     S
O1863  Zn1870  1.935   .     S
O1864  Zn1871  1.943   .     S
O1865  Zn1872  1.931   .     S
O1866  Zn1869  1.927   .     S
O1867  Zn1870  1.952   .     S
O1868  Zn1871  1.942   .     S
C1873  C1883   1.452   .     S
C1873  O1982   1.274   .     A
C1873  O1980   1.253   .     A
C1874  C1920   1.422   .     A
C1874  O1977   1.383   .     S
C1874  C1875   1.402   .     A
C1875  O1974   1.386   .     S
C1875  C824    1.416   1_556 S
C1876  O1981   1.287   .     A
C1876  O1983   1.276   .     A
C1876  C1882   1.462   .     S
C1877  C1879   1.428   .     A
C1877  C1878   1.419   .     A
C1878  C1881   1.404   .     A
C1878  C1921   1.423   .     A
C1879  C1880   1.410   .     A
C1879  C1896   1.452   .     S
C1880  C1892   1.403   .     A
C1880  C1903   1.451   .     S
C1881  H1924   1.081   .     S
C1881  C1892   1.386   .     A
C1882  C2000   1.354   .     S
C1882  C2014   1.452   .     S
C1884  C1909   1.453   .     S
C1884  C1893   1.409   .     A
C1884  C1891   1.414   .     A
C1885  C1888   1.458   .     S
C1885  C1184   1.353   1_565 S
C1885  C1199   1.453   1_565 S
C1886  C1887   1.432   .     S
C1887  O1984   1.264   .     A
C1887  O1978   1.274   .     A
C1888  O1979   1.266   .     A
C1888  O1985   1.274   .     A
C1889  C1892   1.459   .     S
C1889  O1971   1.275   .     A
C1889  O1969   1.272   .     A
C1890  C1891   1.493   .     S
C1890  O1972   1.300   .     A
C1890  O1970   1.288   .     A
C1891  C1895   1.405   .     A
C1893  C1908   1.454   .     S
C1893  C1917   1.429   .     A
C1894  N1960   1.158   .     T
C1894  C1923   1.451   .     S
C1895  O1975   1.386   .     S
C1895  C1906   1.419   .     A
C1896  N1961   1.158   .     T
C1897  N1962   1.157   .     T
C1898  O1973   1.412   .     S
C1898  H1935   1.114   .     S
C1898  C1899   1.529   .     S
C1898  H2063   1.112   .     S
C1899  H1954   1.111   .     S
C1899  H1955   1.112   .     S
C1899  C1900   1.526   .     S
C1900  H1956   1.110   .     S
C1900  H1958   1.108   .     S
C1900  H1957   1.110   .     S
C1901  N1963   1.157   .     T
C1902  N1964   1.158   .     T
C1902  C1184   1.452   1_565 S
C1903  N1965   1.157   .     T
C1904  H1959   1.111   .     S
C1904  O1974   1.419   .     S
C1904  H1925   1.114   .     S
C1904  C1905   1.534   .     S
C1905  H1927   1.111   .     S
C1905  H1926   1.108   .     S
C1905  C2024   1.525   .     S
C1906  C1917   1.429   .     A
C1906  C1920   1.431   .     A
C1907  H1930   1.111   .     S
C1907  H1928   1.110   .     S
C1907  H1929   1.109   .     S
C1908  N913    1.158   1_556 S
C1909  N1967   1.157   .     T
C1910  C1911   1.529   .     S
C1910  O1975   1.415   .     S
C1910  H1932   1.117   .     S
C1910  H1931   1.112   .     S
C1911  H1933   1.109   .     S
C1911  H1934   1.110   .     S
C1911  C1912   1.524   .     S
C1912  H1938   1.110   .     S
C1912  H1937   1.111   .     S
C1912  H1936   1.110   .     S
C1913  C1914   1.529   .     S
C1913  H1939   1.113   .     S
C1913  H1940   1.115   .     S
C1913  O1976   1.413   .     S
C1914  H1942   1.112   .     S
C1914  H1941   1.112   .     S
C1914  C1915   1.525   .     S
C1915  H1944   1.111   .     S
C1915  H1945   1.111   .     S
C1915  H1943   1.110   .     S
C1916  O1977   1.411   .     S
C1916  H1948   1.116   .     S
C1916  C1918   1.528   .     S
C1916  H1947   1.114   .     S
C1917  C870    1.423   1_556 S
C1918  H1950   1.111   .     S
C1918  C1919   1.525   .     S
C1918  H1949   1.111   .     S
C1919  H1953   1.111   .     S
C1920  C868    1.414   1_556 S
C1921  C1922   1.421   .     A
C1922  O1976   1.388   .     S
C1922  C1923   1.402   .     A
H1951  C1217   1.111   1_565 S
H1952  C1217   1.109   1_565 S
O1968  Zn1987  1.927   .     S
O1968  Zn1986  1.965   .     S
O1968  Zn1989  1.935   .     S
O1968  Zn1988  1.935   .     S
O1969  Zn1987  1.915   .     S
O1970  Zn1989  1.922   .     S
O1971  Zn1988  1.911   .     S
O1972  Zn1986  1.907   .     S
O1973  C2000   1.400   .     S
O1978  Zn1986  1.933   .     S
O1979  Zn1989  1.941   .     S
O1980  Zn1987  1.935   .     S
O1981  Zn1988  1.943   .     S
O1982  Zn1989  1.931   .     S
O1983  Zn1986  1.927   .     S
O1984  Zn1987  1.952   .     S
O1985  Zn1988  1.942   .     S
C1990  C2000   1.452   .     S
C1990  O2099   1.274   .     A
C1990  O2097   1.253   .     A
C1991  C2037   1.422   .     A
C1991  O2094   1.383   .     S
C1991  C1992   1.402   .     A
C1992  O2091   1.386   .     S
C1992  C941    1.416   1_556 S
C1993  O2098   1.287   .     A
C1993  O2100   1.276   .     A
C1993  C1999   1.462   .     S
C1994  C1996   1.428   .     A
C1994  C1995   1.419   .     A
C1995  C1998   1.404   .     A
C1995  C2038   1.423   .     A
C1996  C1997   1.410   .     A
C1996  C2013   1.452   .     S
C1997  C2009   1.403   .     A
C1997  C2020   1.451   .     S
C1998  H2041   1.081   .     S
C1998  C2009   1.386   .     A
C1999  C1766   1.354   1_655 S
C1999  C1780   1.452   1_655 S
C2001  C2026   1.453   .     S
C2001  C2010   1.409   .     A
C2001  C2008   1.414   .     A
C2002  C2005   1.458   .     S
C2002  C1301   1.353   1_565 S
C2002  C1316   1.453   1_565 S
C2003  C2004   1.432   .     S
C2004  O2101   1.264   .     A
C2004  O2095   1.274   .     A
C2005  O2096   1.266   .     A
C2005  O2102   1.274   .     A
C2006  C2009   1.459   .     S
C2006  O2088   1.275   .     A
C2006  O2086   1.272   .     A
C2007  C2008   1.493   .     S
C2007  O2089   1.300   .     A
C2007  O2087   1.288   .     A
C2008  C2012   1.405   .     A
C2010  C2025   1.454   .     S
C2010  C2034   1.429   .     A
C2011  N2077   1.158   .     T
C2011  C2040   1.451   .     S
C2012  O2092   1.386   .     S
C2012  C2023   1.419   .     A
C2013  N2078   1.158   .     T
C2014  N2079   1.157   .     T
C2015  O2090   1.412   .     S
C2015  H2052   1.114   .     S
C2015  C2016   1.529   .     S
C2015  H1829   1.112   1_655 S
C2016  H2071   1.111   .     S
C2016  H2072   1.112   .     S
C2016  C2017   1.526   .     S
C2017  H2073   1.110   .     S
C2017  H2075   1.108   .     S
C2017  H2074   1.110   .     S
C2018  N2080   1.157   .     T
C2019  N2081   1.158   .     T
C2019  C1301   1.452   1_565 S
C2020  N2082   1.157   .     T
C2021  H2076   1.111   .     S
C2021  O2091   1.419   .     S
C2021  H2042   1.114   .     S
C2021  C2022   1.534   .     S
C2022  H2044   1.111   .     S
C2022  H2043   1.108   .     S
C2022  C1790   1.525   1_655 S
C2023  C2034   1.429   .     A
C2023  C2037   1.431   .     A
C2024  H2047   1.111   .     S
C2024  H2045   1.110   .     S
C2024  H2046   1.109   .     S
C2025  N1030   1.158   1_556 S
C2026  N2084   1.157   .     T
C2027  C2028   1.529   .     S
C2027  O2092   1.415   .     S
C2027  H2049   1.117   .     S
C2027  H2048   1.112   .     S
C2028  H2050   1.109   .     S
C2028  H2051   1.110   .     S
C2028  C2029   1.524   .     S
C2029  H2055   1.110   .     S
C2029  H2054   1.111   .     S
C2029  H2053   1.110   .     S
C2030  C2031   1.529   .     S
C2030  H2056   1.113   .     S
C2030  H2057   1.115   .     S
C2030  O2093   1.413   .     S
C2031  H2059   1.112   .     S
C2031  H2058   1.112   .     S
C2031  C2032   1.525   .     S
C2032  H2061   1.111   .     S
C2032  H2062   1.111   .     S
C2032  H2060   1.110   .     S
C2033  O2094   1.411   .     S
C2033  H2065   1.116   .     S
C2033  C2035   1.528   .     S
C2033  H2064   1.114   .     S
C2034  C987    1.423   1_556 S
C2035  H2067   1.111   .     S
C2035  C2036   1.525   .     S
C2035  H2066   1.111   .     S
C2036  H2070   1.111   .     S
C2037  C985    1.414   1_556 S
C2038  C2039   1.421   .     A
C2039  O2093   1.388   .     S
C2039  C2040   1.402   .     A
H2068  C1334   1.111   1_565 S
H2069  C1334   1.109   1_565 S
O2085  Zn2104  1.927   .     S
O2085  Zn2103  1.965   .     S
O2085  Zn2106  1.935   .     S
O2085  Zn2105  1.935   .     S
O2086  Zn2104  1.915   .     S
O2087  Zn2106  1.922   .     S
O2088  Zn2105  1.911   .     S
O2089  Zn2103  1.907   .     S
O2090  C1766   1.400   1_655 S
O2095  Zn2103  1.933   .     S
O2096  Zn2106  1.941   .     S
O2097  Zn2104  1.935   .     S
O2098  Zn2105  1.943   .     S
O2099  Zn2106  1.931   .     S
O2100  Zn2103  1.927   .     S
O2101  Zn2104  1.952   .     S
O2102  Zn2105  1.942   .     S
