data_str_m1_o10_o16_pcu_sym.159
_audit_creation_date              2020-01-03
_audit_creation_method            'Materials Studio'
_symmetry_space_group_name_H-M    'P1'
_symmetry_Int_Tables_number       1
_symmetry_cell_setting            triclinic
loop_
_symmetry_equiv_pos_as_xyz
  x,y,z
_cell_length_a                    32.7038
_cell_length_b                    32.6425
_cell_length_c                    31.0673
_cell_angle_alpha                 96.6265
_cell_angle_beta                  74.4908
_cell_angle_gamma                 98.3895
loop_
_atom_site_label
_atom_site_type_symbol
_atom_site_fract_x
_atom_site_fract_y
_atom_site_fract_z
_atom_site_U_iso_or_equiv
_atom_site_adp_type
_atom_site_occupancy
C1     C     0.05301   0.15982   0.26013   0.00000  Uiso   1.00
C2     C     0.17282   0.16446   0.05910   0.00000  Uiso   1.00
C3     C     0.21310   0.10694   0.05811   0.00000  Uiso   1.00
C4     C     0.28079   0.17353   0.23993   0.00000  Uiso   1.00
C5     C     0.14588   0.19678   0.41927   0.00000  Uiso   1.00
C6     C     0.32697   0.17435   0.23508   0.00000  Uiso   1.00
C7     C     0.00796   0.15771   0.26547   0.00000  Uiso   1.00
C8     C     0.18130   0.32329   0.23894   0.00000  Uiso   1.00
C9     C     0.15055   0.01246   0.26401   0.00000  Uiso   1.00
C10    C     0.15590   0.05621   0.26030   0.00000  Uiso   1.00
C11    C     0.17666   0.27802   0.24055   0.00000  Uiso   1.00
C12    C     0.15346   0.25377   0.47532   0.00000  Uiso   1.00
C13    C     0.18527   0.14811   0.12954   0.00000  Uiso   1.00
C14    C     0.14846   0.18472   0.37108   0.00000  Uiso   1.00
C15    C     0.21112   0.09418   0.01351   0.00000  Uiso   1.00
C16    C     0.19185   0.14058   0.08115   0.00000  Uiso   1.00
C17    C     0.14050   0.23826   0.43683   0.00000  Uiso   1.00
C18    C     0.23432   0.08425   0.08154   0.00000  Uiso   1.00
C19    C     0.31487   0.14115   0.30663   0.00000  Uiso   1.00
C20    C     0.10949   0.32894   0.29122   0.00000  Uiso   1.00
C21    C     0.18344   0.06061   0.43132   0.00000  Uiso   1.00
C22    C     0.14182   0.19120   0.08585   0.00000  Uiso   1.00
C23    C     0.17002   0.22838   0.49823   0.00000  Uiso   1.00
C24    C     0.12558   0.26714   0.41424   0.00000  Uiso   1.00
C25    C     0.16724   0.18489   0.48650   0.00000  Uiso   1.00
C26    C     0.15686   0.16943   0.44574   0.00000  Uiso   1.00
C27    C     0.17767   0.15664   0.01252   0.00000  Uiso   1.00
C28    C     0.19009   0.11754   0.49195   0.00000  Uiso   1.00
C29    C     0.17865   0.10235   0.45168   0.00000  Uiso   1.00
C30    C     0.15873   0.12699   0.43179   0.00000  Uiso   1.00
H31    H     0.15310   0.28657   0.48605   0.00000  Uiso   1.00
H32    H     0.14572   0.11265   0.40435   0.00000  Uiso   1.00
H33    H     0.23763   0.32373   0.19657   0.00000  Uiso   1.00
H34    H     0.24226   0.04580   0.00893   0.00000  Uiso   1.00
H35    H     0.19168   0.27649   0.03287   0.00000  Uiso   1.00
H36    H     0.00833   0.20147   0.17915   0.00000  Uiso   1.00
N37    N     0.25120   0.06619   0.10032   0.00000  Uiso   1.00
N38    N     0.29394   0.12794   0.33952   0.00000  Uiso   1.00
N39    N     0.07665   0.31567   0.31291   0.00000  Uiso   1.00
N40    N     0.18733   0.02727   0.41485   0.00000  Uiso   1.00
N41    N     0.11710   0.21232   0.10724   0.00000  Uiso   1.00
N42    N     0.11354   0.29029   0.39626   0.00000  Uiso   1.00
O43    O     0.16667   0.16667   0.25000   0.00000  Uiso   1.00
O44    O     0.15451   0.12637   0.15459   0.00000  Uiso   1.00
O45    O     0.12940   0.20391   0.34968   0.00000  Uiso   1.00
O46    O     0.20824   0.17759   0.14606   0.00000  Uiso   1.00
O47    O     0.17451   0.15880   0.34968   0.00000  Uiso   1.00
O48    O     0.21749   0.01056   0.21186   0.00000  Uiso   1.00
O49    O     0.22975   0.06001   0.49000   0.00000  Uiso   1.00
O50    O     0.19215   0.24596   0.02937   0.00000  Uiso   1.00
O51    O     0.02339   0.19173   0.19906   0.00000  Uiso   1.00
O52    O     0.17930   0.08019   0.28214   0.00000  Uiso   1.00
O53    O     0.14632   0.26085   0.27014   0.00000  Uiso   1.00
O54    O     0.07412   0.13291   0.23413   0.00000  Uiso   1.00
O55    O     0.26693   0.19272   0.21361   0.00000  Uiso   1.00
O56    O     0.07071   0.18878   0.28213   0.00000  Uiso   1.00
O57    O     0.25491   0.15226   0.27014   0.00000  Uiso   1.00
O58    O     0.13760   0.06944   0.23413   0.00000  Uiso   1.00
O59    O     0.20345   0.25620   0.21361   0.00000  Uiso   1.00
Zn60   Zn    0.19338   0.13994   0.28734   0.00000  Uiso   1.00
Zn61   Zn    0.13379   0.12458   0.21876   0.00000  Uiso   1.00
Zn62   Zn    0.21056   0.19775   0.20657   0.00000  Uiso   1.00
Zn63   Zn    0.12893   0.20439   0.28734   0.00000  Uiso   1.00
C64    C     0.38635   0.15982   0.26013   0.00000  Uiso   1.00
C65    C     0.50615   0.16446   0.05910   0.00000  Uiso   1.00
C66    C     0.54643   0.10694   0.05811   0.00000  Uiso   1.00
C67    C     0.61412   0.17353   0.23993   0.00000  Uiso   1.00
C68    C     0.47921   0.19678   0.41927   0.00000  Uiso   1.00
C69    C     0.66031   0.17435   0.23508   0.00000  Uiso   1.00
C70    C     0.34129   0.15771   0.26547   0.00000  Uiso   1.00
C71    C     0.51463   0.32329   0.23894   0.00000  Uiso   1.00
C72    C     0.48388   0.01246   0.26401   0.00000  Uiso   1.00
C73    C     0.48924   0.05621   0.26030   0.00000  Uiso   1.00
C74    C     0.50999   0.27802   0.24055   0.00000  Uiso   1.00
C75    C     0.48680   0.25377   0.47532   0.00000  Uiso   1.00
C76    C     0.51860   0.14811   0.12954   0.00000  Uiso   1.00
C77    C     0.48179   0.18472   0.37108   0.00000  Uiso   1.00
C78    C     0.54445   0.09418   0.01351   0.00000  Uiso   1.00
C79    C     0.52518   0.14058   0.08115   0.00000  Uiso   1.00
C80    C     0.47384   0.23826   0.43683   0.00000  Uiso   1.00
C81    C     0.56765   0.08425   0.08154   0.00000  Uiso   1.00
C82    C     0.64820   0.14115   0.30663   0.00000  Uiso   1.00
C83    C     0.44283   0.32894   0.29122   0.00000  Uiso   1.00
C84    C     0.51677   0.06061   0.43132   0.00000  Uiso   1.00
C85    C     0.47515   0.19120   0.08585   0.00000  Uiso   1.00
C86    C     0.50335   0.22838   0.49823   0.00000  Uiso   1.00
C87    C     0.45891   0.26714   0.41424   0.00000  Uiso   1.00
C88    C     0.50057   0.18489   0.48650   0.00000  Uiso   1.00
C89    C     0.49019   0.16943   0.44574   0.00000  Uiso   1.00
C90    C     0.51100   0.15664   0.01252   0.00000  Uiso   1.00
C91    C     0.52343   0.11754   0.49195   0.00000  Uiso   1.00
C92    C     0.51199   0.10235   0.45168   0.00000  Uiso   1.00
C93    C     0.49207   0.12699   0.43179   0.00000  Uiso   1.00
H94    H     0.48643   0.28657   0.48605   0.00000  Uiso   1.00
H95    H     0.47905   0.11265   0.40435   0.00000  Uiso   1.00
H96    H     0.57097   0.32373   0.19657   0.00000  Uiso   1.00
H97    H     0.57560   0.04580   0.00893   0.00000  Uiso   1.00
H98    H     0.52501   0.27649   0.03287   0.00000  Uiso   1.00
H99    H     0.34166   0.20147   0.17915   0.00000  Uiso   1.00
N100   N     0.58454   0.06619   0.10032   0.00000  Uiso   1.00
N101   N     0.62728   0.12794   0.33952   0.00000  Uiso   1.00
N102   N     0.40999   0.31567   0.31291   0.00000  Uiso   1.00
N103   N     0.52067   0.02727   0.41485   0.00000  Uiso   1.00
N104   N     0.45043   0.21232   0.10724   0.00000  Uiso   1.00
N105   N     0.44688   0.29029   0.39626   0.00000  Uiso   1.00
O106   O     0.50000   0.16667   0.25000   0.00000  Uiso   1.00
O107   O     0.48784   0.12637   0.15459   0.00000  Uiso   1.00
O108   O     0.46274   0.20391   0.34968   0.00000  Uiso   1.00
O109   O     0.54157   0.17759   0.14606   0.00000  Uiso   1.00
O110   O     0.50785   0.15880   0.34968   0.00000  Uiso   1.00
O111   O     0.55082   0.01056   0.21186   0.00000  Uiso   1.00
O112   O     0.56308   0.06001   0.49000   0.00000  Uiso   1.00
O113   O     0.52548   0.24596   0.02937   0.00000  Uiso   1.00
O114   O     0.35673   0.19173   0.19906   0.00000  Uiso   1.00
O115   O     0.51264   0.08019   0.28214   0.00000  Uiso   1.00
O116   O     0.47965   0.26085   0.27014   0.00000  Uiso   1.00
O117   O     0.40745   0.13291   0.23413   0.00000  Uiso   1.00
O118   O     0.60026   0.19272   0.21361   0.00000  Uiso   1.00
O119   O     0.40405   0.18878   0.28213   0.00000  Uiso   1.00
O120   O     0.58824   0.15226   0.27014   0.00000  Uiso   1.00
O121   O     0.47093   0.06944   0.23413   0.00000  Uiso   1.00
O122   O     0.53678   0.25620   0.21361   0.00000  Uiso   1.00
Zn123  Zn    0.52672   0.13994   0.28734   0.00000  Uiso   1.00
Zn124  Zn    0.46713   0.12458   0.21876   0.00000  Uiso   1.00
Zn125  Zn    0.54389   0.19775   0.20657   0.00000  Uiso   1.00
Zn126  Zn    0.46226   0.20439   0.28734   0.00000  Uiso   1.00
C127   C     0.71968   0.15982   0.26013   0.00000  Uiso   1.00
C128   C     0.83948   0.16446   0.05910   0.00000  Uiso   1.00
C129   C     0.87977   0.10694   0.05811   0.00000  Uiso   1.00
C130   C     0.94746   0.17353   0.23993   0.00000  Uiso   1.00
C131   C     0.81254   0.19678   0.41927   0.00000  Uiso   1.00
C132   C     0.99364   0.17435   0.23508   0.00000  Uiso   1.00
C133   C     0.67463   0.15771   0.26547   0.00000  Uiso   1.00
C134   C     0.84796   0.32329   0.23894   0.00000  Uiso   1.00
C135   C     0.81721   0.01246   0.26401   0.00000  Uiso   1.00
C136   C     0.82257   0.05621   0.26030   0.00000  Uiso   1.00
C137   C     0.84333   0.27802   0.24055   0.00000  Uiso   1.00
C138   C     0.82013   0.25377   0.47532   0.00000  Uiso   1.00
C139   C     0.85194   0.14811   0.12954   0.00000  Uiso   1.00
C140   C     0.81513   0.18472   0.37108   0.00000  Uiso   1.00
C141   C     0.87778   0.09418   0.01351   0.00000  Uiso   1.00
C142   C     0.85851   0.14058   0.08115   0.00000  Uiso   1.00
C143   C     0.80717   0.23826   0.43683   0.00000  Uiso   1.00
C144   C     0.90099   0.08425   0.08154   0.00000  Uiso   1.00
C145   C     0.98153   0.14115   0.30663   0.00000  Uiso   1.00
C146   C     0.77616   0.32894   0.29122   0.00000  Uiso   1.00
C147   C     0.85011   0.06061   0.43132   0.00000  Uiso   1.00
C148   C     0.80849   0.19120   0.08585   0.00000  Uiso   1.00
C149   C     0.83668   0.22838   0.49823   0.00000  Uiso   1.00
C150   C     0.79224   0.26714   0.41424   0.00000  Uiso   1.00
C151   C     0.83391   0.18489   0.48650   0.00000  Uiso   1.00
C152   C     0.82353   0.16943   0.44574   0.00000  Uiso   1.00
C153   C     0.84434   0.15664   0.01252   0.00000  Uiso   1.00
C154   C     0.85676   0.11754   0.49195   0.00000  Uiso   1.00
C155   C     0.84532   0.10235   0.45168   0.00000  Uiso   1.00
C156   C     0.82540   0.12699   0.43179   0.00000  Uiso   1.00
H157   H     0.81977   0.28657   0.48605   0.00000  Uiso   1.00
H158   H     0.81238   0.11265   0.40435   0.00000  Uiso   1.00
H159   H     0.90430   0.32373   0.19657   0.00000  Uiso   1.00
H160   H     0.90893   0.04580   0.00893   0.00000  Uiso   1.00
H161   H     0.85834   0.27649   0.03287   0.00000  Uiso   1.00
H162   H     0.67500   0.20147   0.17915   0.00000  Uiso   1.00
N163   N     0.91787   0.06619   0.10032   0.00000  Uiso   1.00
N164   N     0.96061   0.12794   0.33952   0.00000  Uiso   1.00
N165   N     0.74332   0.31567   0.31291   0.00000  Uiso   1.00
N166   N     0.85400   0.02727   0.41485   0.00000  Uiso   1.00
N167   N     0.78376   0.21232   0.10724   0.00000  Uiso   1.00
N168   N     0.78021   0.29029   0.39626   0.00000  Uiso   1.00
O169   O     0.83333   0.16667   0.25000   0.00000  Uiso   1.00
O170   O     0.82118   0.12637   0.15459   0.00000  Uiso   1.00
O171   O     0.79607   0.20391   0.34968   0.00000  Uiso   1.00
O172   O     0.87491   0.17759   0.14606   0.00000  Uiso   1.00
O173   O     0.84118   0.15880   0.34968   0.00000  Uiso   1.00
O174   O     0.88415   0.01056   0.21186   0.00000  Uiso   1.00
O175   O     0.89642   0.06001   0.49000   0.00000  Uiso   1.00
O176   O     0.85881   0.24596   0.02937   0.00000  Uiso   1.00
O177   O     0.69006   0.19173   0.19906   0.00000  Uiso   1.00
O178   O     0.84597   0.08019   0.28214   0.00000  Uiso   1.00
O179   O     0.81298   0.26085   0.27014   0.00000  Uiso   1.00
O180   O     0.74078   0.13291   0.23413   0.00000  Uiso   1.00
O181   O     0.93360   0.19272   0.21361   0.00000  Uiso   1.00
O182   O     0.73738   0.18878   0.28213   0.00000  Uiso   1.00
O183   O     0.92158   0.15226   0.27014   0.00000  Uiso   1.00
O184   O     0.80426   0.06944   0.23413   0.00000  Uiso   1.00
O185   O     0.87012   0.25620   0.21361   0.00000  Uiso   1.00
Zn186  Zn    0.86005   0.13994   0.28734   0.00000  Uiso   1.00
Zn187  Zn    0.80046   0.12458   0.21876   0.00000  Uiso   1.00
Zn188  Zn    0.87723   0.19775   0.20657   0.00000  Uiso   1.00
Zn189  Zn    0.79560   0.20439   0.28734   0.00000  Uiso   1.00
C190   C     0.05301   0.49315   0.26013   0.00000  Uiso   1.00
C191   C     0.17282   0.49780   0.05910   0.00000  Uiso   1.00
C192   C     0.21310   0.44028   0.05811   0.00000  Uiso   1.00
C193   C     0.28079   0.50686   0.23993   0.00000  Uiso   1.00
C194   C     0.14588   0.53011   0.41927   0.00000  Uiso   1.00
C195   C     0.32697   0.50768   0.23508   0.00000  Uiso   1.00
C196   C     0.00796   0.49104   0.26547   0.00000  Uiso   1.00
C197   C     0.18130   0.65663   0.23894   0.00000  Uiso   1.00
C198   C     0.15055   0.34579   0.26401   0.00000  Uiso   1.00
C199   C     0.15590   0.38954   0.26030   0.00000  Uiso   1.00
C200   C     0.17666   0.61135   0.24055   0.00000  Uiso   1.00
C201   C     0.15346   0.58710   0.47532   0.00000  Uiso   1.00
C202   C     0.18527   0.48144   0.12954   0.00000  Uiso   1.00
C203   C     0.14846   0.51805   0.37108   0.00000  Uiso   1.00
C204   C     0.21112   0.42752   0.01351   0.00000  Uiso   1.00
C205   C     0.19185   0.47391   0.08115   0.00000  Uiso   1.00
C206   C     0.14050   0.57159   0.43683   0.00000  Uiso   1.00
C207   C     0.23432   0.41759   0.08154   0.00000  Uiso   1.00
C208   C     0.31487   0.47449   0.30663   0.00000  Uiso   1.00
C209   C     0.10949   0.66228   0.29122   0.00000  Uiso   1.00
C210   C     0.18344   0.39394   0.43132   0.00000  Uiso   1.00
C211   C     0.14182   0.52454   0.08585   0.00000  Uiso   1.00
C212   C     0.17002   0.56172   0.49823   0.00000  Uiso   1.00
C213   C     0.12558   0.60047   0.41424   0.00000  Uiso   1.00
C214   C     0.16724   0.51823   0.48650   0.00000  Uiso   1.00
C215   C     0.15686   0.50276   0.44574   0.00000  Uiso   1.00
C216   C     0.17767   0.48998   0.01252   0.00000  Uiso   1.00
C217   C     0.19009   0.45087   0.49195   0.00000  Uiso   1.00
C218   C     0.17865   0.43569   0.45168   0.00000  Uiso   1.00
C219   C     0.15873   0.46032   0.43179   0.00000  Uiso   1.00
H220   H     0.15310   0.61990   0.48605   0.00000  Uiso   1.00
H221   H     0.14572   0.44598   0.40435   0.00000  Uiso   1.00
H222   H     0.23763   0.65706   0.19657   0.00000  Uiso   1.00
H223   H     0.24226   0.37913   0.00893   0.00000  Uiso   1.00
H224   H     0.19168   0.60982   0.03287   0.00000  Uiso   1.00
H225   H     0.00833   0.53480   0.17915   0.00000  Uiso   1.00
N226   N     0.25120   0.39952   0.10032   0.00000  Uiso   1.00
N227   N     0.29394   0.46128   0.33952   0.00000  Uiso   1.00
N228   N     0.07665   0.64901   0.31291   0.00000  Uiso   1.00
N229   N     0.18733   0.36060   0.41485   0.00000  Uiso   1.00
N230   N     0.11710   0.54565   0.10724   0.00000  Uiso   1.00
N231   N     0.11354   0.62362   0.39626   0.00000  Uiso   1.00
O232   O     0.16667   0.50000   0.25000   0.00000  Uiso   1.00
O233   O     0.15451   0.45970   0.15459   0.00000  Uiso   1.00
O234   O     0.12940   0.53724   0.34968   0.00000  Uiso   1.00
O235   O     0.20824   0.51092   0.14606   0.00000  Uiso   1.00
O236   O     0.17451   0.49213   0.34968   0.00000  Uiso   1.00
O237   O     0.21749   0.34390   0.21186   0.00000  Uiso   1.00
O238   O     0.22975   0.39335   0.49000   0.00000  Uiso   1.00
O239   O     0.19215   0.57929   0.02937   0.00000  Uiso   1.00
O240   O     0.02339   0.52507   0.19906   0.00000  Uiso   1.00
O241   O     0.17930   0.41352   0.28214   0.00000  Uiso   1.00
O242   O     0.14632   0.59418   0.27014   0.00000  Uiso   1.00
O243   O     0.07412   0.46625   0.23413   0.00000  Uiso   1.00
O244   O     0.26693   0.52605   0.21361   0.00000  Uiso   1.00
O245   O     0.07071   0.52211   0.28213   0.00000  Uiso   1.00
O246   O     0.25491   0.48559   0.27014   0.00000  Uiso   1.00
O247   O     0.13760   0.40277   0.23413   0.00000  Uiso   1.00
O248   O     0.20345   0.58953   0.21361   0.00000  Uiso   1.00
Zn249  Zn    0.19338   0.47327   0.28734   0.00000  Uiso   1.00
Zn250  Zn    0.13379   0.45791   0.21876   0.00000  Uiso   1.00
Zn251  Zn    0.21056   0.53109   0.20657   0.00000  Uiso   1.00
Zn252  Zn    0.12893   0.53773   0.28734   0.00000  Uiso   1.00
C253   C     0.38635   0.49315   0.26013   0.00000  Uiso   1.00
C254   C     0.50615   0.49780   0.05910   0.00000  Uiso   1.00
C255   C     0.54643   0.44028   0.05811   0.00000  Uiso   1.00
C256   C     0.61412   0.50686   0.23993   0.00000  Uiso   1.00
C257   C     0.47921   0.53011   0.41927   0.00000  Uiso   1.00
C258   C     0.66031   0.50768   0.23508   0.00000  Uiso   1.00
C259   C     0.34129   0.49104   0.26547   0.00000  Uiso   1.00
C260   C     0.51463   0.65663   0.23894   0.00000  Uiso   1.00
C261   C     0.48388   0.34579   0.26401   0.00000  Uiso   1.00
C262   C     0.48924   0.38954   0.26030   0.00000  Uiso   1.00
C263   C     0.50999   0.61135   0.24055   0.00000  Uiso   1.00
C264   C     0.48680   0.58710   0.47532   0.00000  Uiso   1.00
C265   C     0.51860   0.48144   0.12954   0.00000  Uiso   1.00
C266   C     0.48179   0.51805   0.37108   0.00000  Uiso   1.00
C267   C     0.54445   0.42752   0.01351   0.00000  Uiso   1.00
C268   C     0.52518   0.47391   0.08115   0.00000  Uiso   1.00
C269   C     0.47384   0.57159   0.43683   0.00000  Uiso   1.00
C270   C     0.56765   0.41759   0.08154   0.00000  Uiso   1.00
C271   C     0.64820   0.47449   0.30663   0.00000  Uiso   1.00
C272   C     0.44283   0.66228   0.29122   0.00000  Uiso   1.00
C273   C     0.51677   0.39394   0.43132   0.00000  Uiso   1.00
C274   C     0.47515   0.52454   0.08585   0.00000  Uiso   1.00
C275   C     0.50335   0.56172   0.49823   0.00000  Uiso   1.00
C276   C     0.45891   0.60047   0.41424   0.00000  Uiso   1.00
C277   C     0.50057   0.51823   0.48650   0.00000  Uiso   1.00
C278   C     0.49019   0.50276   0.44574   0.00000  Uiso   1.00
C279   C     0.51100   0.48998   0.01252   0.00000  Uiso   1.00
C280   C     0.52343   0.45087   0.49195   0.00000  Uiso   1.00
C281   C     0.51199   0.43569   0.45168   0.00000  Uiso   1.00
C282   C     0.49207   0.46032   0.43179   0.00000  Uiso   1.00
H283   H     0.48643   0.61990   0.48605   0.00000  Uiso   1.00
H284   H     0.47905   0.44598   0.40435   0.00000  Uiso   1.00
H285   H     0.57097   0.65706   0.19657   0.00000  Uiso   1.00
H286   H     0.57560   0.37913   0.00893   0.00000  Uiso   1.00
H287   H     0.52501   0.60982   0.03287   0.00000  Uiso   1.00
H288   H     0.34166   0.53480   0.17915   0.00000  Uiso   1.00
N289   N     0.58454   0.39952   0.10032   0.00000  Uiso   1.00
N290   N     0.62728   0.46128   0.33952   0.00000  Uiso   1.00
N291   N     0.40999   0.64901   0.31291   0.00000  Uiso   1.00
N292   N     0.52067   0.36060   0.41485   0.00000  Uiso   1.00
N293   N     0.45043   0.54565   0.10724   0.00000  Uiso   1.00
N294   N     0.44688   0.62362   0.39626   0.00000  Uiso   1.00
O295   O     0.50000   0.50000   0.25000   0.00000  Uiso   1.00
O296   O     0.48784   0.45970   0.15459   0.00000  Uiso   1.00
O297   O     0.46274   0.53724   0.34968   0.00000  Uiso   1.00
O298   O     0.54157   0.51092   0.14606   0.00000  Uiso   1.00
O299   O     0.50785   0.49213   0.34968   0.00000  Uiso   1.00
O300   O     0.55082   0.34390   0.21186   0.00000  Uiso   1.00
O301   O     0.56308   0.39335   0.49000   0.00000  Uiso   1.00
O302   O     0.52548   0.57929   0.02937   0.00000  Uiso   1.00
O303   O     0.35673   0.52507   0.19906   0.00000  Uiso   1.00
O304   O     0.51264   0.41352   0.28214   0.00000  Uiso   1.00
O305   O     0.47965   0.59418   0.27014   0.00000  Uiso   1.00
O306   O     0.40745   0.46625   0.23413   0.00000  Uiso   1.00
O307   O     0.60026   0.52605   0.21361   0.00000  Uiso   1.00
O308   O     0.40405   0.52211   0.28213   0.00000  Uiso   1.00
O309   O     0.58824   0.48559   0.27014   0.00000  Uiso   1.00
O310   O     0.47093   0.40277   0.23413   0.00000  Uiso   1.00
O311   O     0.53678   0.58953   0.21361   0.00000  Uiso   1.00
Zn312  Zn    0.52672   0.47327   0.28734   0.00000  Uiso   1.00
Zn313  Zn    0.46713   0.45791   0.21876   0.00000  Uiso   1.00
Zn314  Zn    0.54389   0.53109   0.20657   0.00000  Uiso   1.00
Zn315  Zn    0.46226   0.53773   0.28734   0.00000  Uiso   1.00
C316   C     0.71968   0.49315   0.26013   0.00000  Uiso   1.00
C317   C     0.83948   0.49780   0.05910   0.00000  Uiso   1.00
C318   C     0.87977   0.44028   0.05811   0.00000  Uiso   1.00
C319   C     0.94746   0.50686   0.23993   0.00000  Uiso   1.00
C320   C     0.81254   0.53011   0.41927   0.00000  Uiso   1.00
C321   C     0.99364   0.50768   0.23508   0.00000  Uiso   1.00
C322   C     0.67463   0.49104   0.26547   0.00000  Uiso   1.00
C323   C     0.84796   0.65663   0.23894   0.00000  Uiso   1.00
C324   C     0.81721   0.34579   0.26401   0.00000  Uiso   1.00
C325   C     0.82257   0.38954   0.26030   0.00000  Uiso   1.00
C326   C     0.84333   0.61135   0.24055   0.00000  Uiso   1.00
C327   C     0.82013   0.58710   0.47532   0.00000  Uiso   1.00
C328   C     0.85194   0.48144   0.12954   0.00000  Uiso   1.00
C329   C     0.81513   0.51805   0.37108   0.00000  Uiso   1.00
C330   C     0.87778   0.42752   0.01351   0.00000  Uiso   1.00
C331   C     0.85851   0.47391   0.08115   0.00000  Uiso   1.00
C332   C     0.80717   0.57159   0.43683   0.00000  Uiso   1.00
C333   C     0.90099   0.41759   0.08154   0.00000  Uiso   1.00
C334   C     0.98153   0.47449   0.30663   0.00000  Uiso   1.00
C335   C     0.77616   0.66228   0.29122   0.00000  Uiso   1.00
C336   C     0.85011   0.39394   0.43132   0.00000  Uiso   1.00
C337   C     0.80849   0.52454   0.08585   0.00000  Uiso   1.00
C338   C     0.83668   0.56172   0.49823   0.00000  Uiso   1.00
C339   C     0.79224   0.60047   0.41424   0.00000  Uiso   1.00
C340   C     0.83391   0.51823   0.48650   0.00000  Uiso   1.00
C341   C     0.82353   0.50276   0.44574   0.00000  Uiso   1.00
C342   C     0.84434   0.48998   0.01252   0.00000  Uiso   1.00
C343   C     0.85676   0.45087   0.49195   0.00000  Uiso   1.00
C344   C     0.84532   0.43569   0.45168   0.00000  Uiso   1.00
C345   C     0.82540   0.46032   0.43179   0.00000  Uiso   1.00
H346   H     0.81977   0.61990   0.48605   0.00000  Uiso   1.00
H347   H     0.81238   0.44598   0.40435   0.00000  Uiso   1.00
H348   H     0.90430   0.65706   0.19657   0.00000  Uiso   1.00
H349   H     0.90893   0.37913   0.00893   0.00000  Uiso   1.00
H350   H     0.85834   0.60982   0.03287   0.00000  Uiso   1.00
H351   H     0.67500   0.53480   0.17915   0.00000  Uiso   1.00
N352   N     0.91787   0.39952   0.10032   0.00000  Uiso   1.00
N353   N     0.96061   0.46128   0.33952   0.00000  Uiso   1.00
N354   N     0.74332   0.64901   0.31291   0.00000  Uiso   1.00
N355   N     0.85400   0.36060   0.41485   0.00000  Uiso   1.00
N356   N     0.78376   0.54565   0.10724   0.00000  Uiso   1.00
N357   N     0.78021   0.62362   0.39626   0.00000  Uiso   1.00
O358   O     0.83333   0.50000   0.25000   0.00000  Uiso   1.00
O359   O     0.82118   0.45970   0.15459   0.00000  Uiso   1.00
O360   O     0.79607   0.53724   0.34968   0.00000  Uiso   1.00
O361   O     0.87491   0.51092   0.14606   0.00000  Uiso   1.00
O362   O     0.84118   0.49213   0.34968   0.00000  Uiso   1.00
O363   O     0.88415   0.34390   0.21186   0.00000  Uiso   1.00
O364   O     0.89642   0.39335   0.49000   0.00000  Uiso   1.00
O365   O     0.85881   0.57929   0.02937   0.00000  Uiso   1.00
O366   O     0.69006   0.52507   0.19906   0.00000  Uiso   1.00
O367   O     0.84597   0.41352   0.28214   0.00000  Uiso   1.00
O368   O     0.81298   0.59418   0.27014   0.00000  Uiso   1.00
O369   O     0.74078   0.46625   0.23413   0.00000  Uiso   1.00
O370   O     0.93360   0.52605   0.21361   0.00000  Uiso   1.00
O371   O     0.73738   0.52211   0.28213   0.00000  Uiso   1.00
O372   O     0.92158   0.48559   0.27014   0.00000  Uiso   1.00
O373   O     0.80426   0.40277   0.23413   0.00000  Uiso   1.00
O374   O     0.87012   0.58953   0.21361   0.00000  Uiso   1.00
Zn375  Zn    0.86005   0.47327   0.28734   0.00000  Uiso   1.00
Zn376  Zn    0.80046   0.45791   0.21876   0.00000  Uiso   1.00
Zn377  Zn    0.87723   0.53109   0.20657   0.00000  Uiso   1.00
Zn378  Zn    0.79560   0.53773   0.28734   0.00000  Uiso   1.00
C379   C     0.05301   0.82649   0.26013   0.00000  Uiso   1.00
C380   C     0.17282   0.83113   0.05910   0.00000  Uiso   1.00
C381   C     0.21310   0.77361   0.05811   0.00000  Uiso   1.00
C382   C     0.28079   0.84020   0.23993   0.00000  Uiso   1.00
C383   C     0.14588   0.86344   0.41927   0.00000  Uiso   1.00
C384   C     0.32697   0.84101   0.23508   0.00000  Uiso   1.00
C385   C     0.00796   0.82437   0.26547   0.00000  Uiso   1.00
C386   C     0.18130   0.98996   0.23894   0.00000  Uiso   1.00
C387   C     0.15055   0.67913   0.26401   0.00000  Uiso   1.00
C388   C     0.15590   0.72287   0.26030   0.00000  Uiso   1.00
C389   C     0.17666   0.94468   0.24055   0.00000  Uiso   1.00
C390   C     0.15346   0.92044   0.47532   0.00000  Uiso   1.00
C391   C     0.18527   0.81477   0.12954   0.00000  Uiso   1.00
C392   C     0.14846   0.85139   0.37108   0.00000  Uiso   1.00
C393   C     0.21112   0.76085   0.01351   0.00000  Uiso   1.00
C394   C     0.19185   0.80724   0.08115   0.00000  Uiso   1.00
C395   C     0.14050   0.90492   0.43683   0.00000  Uiso   1.00
C396   C     0.23432   0.75092   0.08154   0.00000  Uiso   1.00
C397   C     0.31487   0.80782   0.30663   0.00000  Uiso   1.00
C398   C     0.10949   0.99561   0.29122   0.00000  Uiso   1.00
C399   C     0.18344   0.72727   0.43132   0.00000  Uiso   1.00
C400   C     0.14182   0.85787   0.08585   0.00000  Uiso   1.00
C401   C     0.17002   0.89505   0.49823   0.00000  Uiso   1.00
C402   C     0.12558   0.93380   0.41424   0.00000  Uiso   1.00
C403   C     0.16724   0.85156   0.48650   0.00000  Uiso   1.00
C404   C     0.15686   0.83610   0.44574   0.00000  Uiso   1.00
C405   C     0.17767   0.82331   0.01252   0.00000  Uiso   1.00
C406   C     0.19009   0.78420   0.49195   0.00000  Uiso   1.00
C407   C     0.17865   0.76902   0.45168   0.00000  Uiso   1.00
C408   C     0.15873   0.79365   0.43179   0.00000  Uiso   1.00
H409   H     0.15310   0.95324   0.48605   0.00000  Uiso   1.00
H410   H     0.14572   0.77931   0.40435   0.00000  Uiso   1.00
H411   H     0.23763   0.99040   0.19657   0.00000  Uiso   1.00
H412   H     0.24226   0.71247   0.00893   0.00000  Uiso   1.00
H413   H     0.19168   0.94315   0.03287   0.00000  Uiso   1.00
H414   H     0.00833   0.86813   0.17915   0.00000  Uiso   1.00
N415   N     0.25120   0.73286   0.10032   0.00000  Uiso   1.00
N416   N     0.29394   0.79461   0.33952   0.00000  Uiso   1.00
N417   N     0.07665   0.98234   0.31291   0.00000  Uiso   1.00
N418   N     0.18733   0.69394   0.41485   0.00000  Uiso   1.00
N419   N     0.11710   0.87899   0.10724   0.00000  Uiso   1.00
N420   N     0.11354   0.95696   0.39626   0.00000  Uiso   1.00
O421   O     0.16667   0.83333   0.25000   0.00000  Uiso   1.00
O422   O     0.15451   0.79304   0.15459   0.00000  Uiso   1.00
O423   O     0.12940   0.87058   0.34968   0.00000  Uiso   1.00
O424   O     0.20824   0.84425   0.14606   0.00000  Uiso   1.00
O425   O     0.17451   0.82546   0.34968   0.00000  Uiso   1.00
O426   O     0.21749   0.67723   0.21186   0.00000  Uiso   1.00
O427   O     0.22975   0.72668   0.49000   0.00000  Uiso   1.00
O428   O     0.19215   0.91262   0.02937   0.00000  Uiso   1.00
O429   O     0.02339   0.85840   0.19906   0.00000  Uiso   1.00
O430   O     0.17930   0.74686   0.28214   0.00000  Uiso   1.00
O431   O     0.14632   0.92751   0.27014   0.00000  Uiso   1.00
O432   O     0.07412   0.79958   0.23413   0.00000  Uiso   1.00
O433   O     0.26693   0.85939   0.21361   0.00000  Uiso   1.00
O434   O     0.07071   0.85544   0.28213   0.00000  Uiso   1.00
O435   O     0.25491   0.81892   0.27014   0.00000  Uiso   1.00
O436   O     0.13760   0.73610   0.23413   0.00000  Uiso   1.00
O437   O     0.20345   0.92286   0.21361   0.00000  Uiso   1.00
Zn438  Zn    0.19338   0.80661   0.28734   0.00000  Uiso   1.00
Zn439  Zn    0.13379   0.79124   0.21876   0.00000  Uiso   1.00
Zn440  Zn    0.21056   0.86442   0.20657   0.00000  Uiso   1.00
Zn441  Zn    0.12893   0.87106   0.28734   0.00000  Uiso   1.00
C442   C     0.38635   0.82649   0.26013   0.00000  Uiso   1.00
C443   C     0.50615   0.83113   0.05910   0.00000  Uiso   1.00
C444   C     0.54643   0.77361   0.05811   0.00000  Uiso   1.00
C445   C     0.61412   0.84020   0.23993   0.00000  Uiso   1.00
C446   C     0.47921   0.86344   0.41927   0.00000  Uiso   1.00
C447   C     0.66031   0.84101   0.23508   0.00000  Uiso   1.00
C448   C     0.34129   0.82437   0.26547   0.00000  Uiso   1.00
C449   C     0.51463   0.98996   0.23894   0.00000  Uiso   1.00
C450   C     0.48388   0.67913   0.26401   0.00000  Uiso   1.00
C451   C     0.48924   0.72287   0.26030   0.00000  Uiso   1.00
C452   C     0.50999   0.94468   0.24055   0.00000  Uiso   1.00
C453   C     0.48680   0.92044   0.47532   0.00000  Uiso   1.00
C454   C     0.51860   0.81477   0.12954   0.00000  Uiso   1.00
C455   C     0.48179   0.85139   0.37108   0.00000  Uiso   1.00
C456   C     0.54445   0.76085   0.01351   0.00000  Uiso   1.00
C457   C     0.52518   0.80724   0.08115   0.00000  Uiso   1.00
C458   C     0.47384   0.90492   0.43683   0.00000  Uiso   1.00
C459   C     0.56765   0.75092   0.08154   0.00000  Uiso   1.00
C460   C     0.64820   0.80782   0.30663   0.00000  Uiso   1.00
C461   C     0.44283   0.99561   0.29122   0.00000  Uiso   1.00
C462   C     0.51677   0.72727   0.43132   0.00000  Uiso   1.00
C463   C     0.47515   0.85787   0.08585   0.00000  Uiso   1.00
C464   C     0.50335   0.89505   0.49823   0.00000  Uiso   1.00
C465   C     0.45891   0.93380   0.41424   0.00000  Uiso   1.00
C466   C     0.50057   0.85156   0.48650   0.00000  Uiso   1.00
C467   C     0.49019   0.83610   0.44574   0.00000  Uiso   1.00
C468   C     0.51100   0.82331   0.01252   0.00000  Uiso   1.00
C469   C     0.52343   0.78420   0.49195   0.00000  Uiso   1.00
C470   C     0.51199   0.76902   0.45168   0.00000  Uiso   1.00
C471   C     0.49207   0.79365   0.43179   0.00000  Uiso   1.00
H472   H     0.48643   0.95324   0.48605   0.00000  Uiso   1.00
H473   H     0.47905   0.77931   0.40435   0.00000  Uiso   1.00
H474   H     0.57097   0.99040   0.19657   0.00000  Uiso   1.00
H475   H     0.57560   0.71247   0.00893   0.00000  Uiso   1.00
H476   H     0.52501   0.94315   0.03287   0.00000  Uiso   1.00
H477   H     0.34166   0.86813   0.17915   0.00000  Uiso   1.00
N478   N     0.58454   0.73286   0.10032   0.00000  Uiso   1.00
N479   N     0.62728   0.79461   0.33952   0.00000  Uiso   1.00
N480   N     0.40999   0.98234   0.31291   0.00000  Uiso   1.00
N481   N     0.52067   0.69394   0.41485   0.00000  Uiso   1.00
N482   N     0.45043   0.87899   0.10724   0.00000  Uiso   1.00
N483   N     0.44688   0.95696   0.39626   0.00000  Uiso   1.00
O484   O     0.50000   0.83333   0.25000   0.00000  Uiso   1.00
O485   O     0.48784   0.79304   0.15459   0.00000  Uiso   1.00
O486   O     0.46274   0.87058   0.34968   0.00000  Uiso   1.00
O487   O     0.54157   0.84425   0.14606   0.00000  Uiso   1.00
O488   O     0.50785   0.82546   0.34968   0.00000  Uiso   1.00
O489   O     0.55082   0.67723   0.21186   0.00000  Uiso   1.00
O490   O     0.56308   0.72668   0.49000   0.00000  Uiso   1.00
O491   O     0.52548   0.91262   0.02937   0.00000  Uiso   1.00
O492   O     0.35673   0.85840   0.19906   0.00000  Uiso   1.00
O493   O     0.51264   0.74686   0.28214   0.00000  Uiso   1.00
O494   O     0.47965   0.92751   0.27014   0.00000  Uiso   1.00
O495   O     0.40745   0.79958   0.23413   0.00000  Uiso   1.00
O496   O     0.60026   0.85939   0.21361   0.00000  Uiso   1.00
O497   O     0.40405   0.85544   0.28213   0.00000  Uiso   1.00
O498   O     0.58824   0.81892   0.27014   0.00000  Uiso   1.00
O499   O     0.47093   0.73610   0.23413   0.00000  Uiso   1.00
O500   O     0.53678   0.92286   0.21361   0.00000  Uiso   1.00
Zn501  Zn    0.52672   0.80661   0.28734   0.00000  Uiso   1.00
Zn502  Zn    0.46713   0.79124   0.21876   0.00000  Uiso   1.00
Zn503  Zn    0.54389   0.86442   0.20657   0.00000  Uiso   1.00
Zn504  Zn    0.46226   0.87106   0.28734   0.00000  Uiso   1.00
C505   C     0.71968   0.82649   0.26013   0.00000  Uiso   1.00
C506   C     0.83948   0.83113   0.05910   0.00000  Uiso   1.00
C507   C     0.87977   0.77361   0.05811   0.00000  Uiso   1.00
C508   C     0.94746   0.84020   0.23993   0.00000  Uiso   1.00
C509   C     0.81254   0.86344   0.41927   0.00000  Uiso   1.00
C510   C     0.99364   0.84101   0.23508   0.00000  Uiso   1.00
C511   C     0.67463   0.82437   0.26547   0.00000  Uiso   1.00
C512   C     0.84796   0.98996   0.23894   0.00000  Uiso   1.00
C513   C     0.81721   0.67913   0.26401   0.00000  Uiso   1.00
C514   C     0.82257   0.72287   0.26030   0.00000  Uiso   1.00
C515   C     0.84333   0.94468   0.24055   0.00000  Uiso   1.00
C516   C     0.82013   0.92044   0.47532   0.00000  Uiso   1.00
C517   C     0.85194   0.81477   0.12954   0.00000  Uiso   1.00
C518   C     0.81513   0.85139   0.37108   0.00000  Uiso   1.00
C519   C     0.87778   0.76085   0.01351   0.00000  Uiso   1.00
C520   C     0.85851   0.80724   0.08115   0.00000  Uiso   1.00
C521   C     0.80717   0.90492   0.43683   0.00000  Uiso   1.00
C522   C     0.90099   0.75092   0.08154   0.00000  Uiso   1.00
C523   C     0.98153   0.80782   0.30663   0.00000  Uiso   1.00
C524   C     0.77616   0.99561   0.29122   0.00000  Uiso   1.00
C525   C     0.85011   0.72727   0.43132   0.00000  Uiso   1.00
C526   C     0.80849   0.85787   0.08585   0.00000  Uiso   1.00
C527   C     0.83668   0.89505   0.49823   0.00000  Uiso   1.00
C528   C     0.79224   0.93380   0.41424   0.00000  Uiso   1.00
C529   C     0.83391   0.85156   0.48650   0.00000  Uiso   1.00
C530   C     0.82353   0.83610   0.44574   0.00000  Uiso   1.00
C531   C     0.84434   0.82331   0.01252   0.00000  Uiso   1.00
C532   C     0.85676   0.78420   0.49195   0.00000  Uiso   1.00
C533   C     0.84532   0.76902   0.45168   0.00000  Uiso   1.00
C534   C     0.82540   0.79365   0.43179   0.00000  Uiso   1.00
H535   H     0.81977   0.95324   0.48605   0.00000  Uiso   1.00
H536   H     0.81238   0.77931   0.40435   0.00000  Uiso   1.00
H537   H     0.90430   0.99040   0.19657   0.00000  Uiso   1.00
H538   H     0.90893   0.71247   0.00893   0.00000  Uiso   1.00
H539   H     0.85834   0.94315   0.03287   0.00000  Uiso   1.00
H540   H     0.67500   0.86813   0.17915   0.00000  Uiso   1.00
N541   N     0.91787   0.73286   0.10032   0.00000  Uiso   1.00
N542   N     0.96061   0.79461   0.33952   0.00000  Uiso   1.00
N543   N     0.74332   0.98234   0.31291   0.00000  Uiso   1.00
N544   N     0.85400   0.69394   0.41485   0.00000  Uiso   1.00
N545   N     0.78376   0.87899   0.10724   0.00000  Uiso   1.00
N546   N     0.78021   0.95696   0.39626   0.00000  Uiso   1.00
O547   O     0.83333   0.83333   0.25000   0.00000  Uiso   1.00
O548   O     0.82118   0.79304   0.15459   0.00000  Uiso   1.00
O549   O     0.79607   0.87058   0.34968   0.00000  Uiso   1.00
O550   O     0.87491   0.84425   0.14606   0.00000  Uiso   1.00
O551   O     0.84118   0.82546   0.34968   0.00000  Uiso   1.00
O552   O     0.88415   0.67723   0.21186   0.00000  Uiso   1.00
O553   O     0.89642   0.72668   0.49000   0.00000  Uiso   1.00
O554   O     0.85881   0.91262   0.02937   0.00000  Uiso   1.00
O555   O     0.69006   0.85840   0.19906   0.00000  Uiso   1.00
O556   O     0.84597   0.74686   0.28214   0.00000  Uiso   1.00
O557   O     0.81298   0.92751   0.27014   0.00000  Uiso   1.00
O558   O     0.74078   0.79958   0.23413   0.00000  Uiso   1.00
O559   O     0.93360   0.85939   0.21361   0.00000  Uiso   1.00
O560   O     0.73738   0.85544   0.28213   0.00000  Uiso   1.00
O561   O     0.92158   0.81892   0.27014   0.00000  Uiso   1.00
O562   O     0.80426   0.73610   0.23413   0.00000  Uiso   1.00
O563   O     0.87012   0.92286   0.21361   0.00000  Uiso   1.00
Zn564  Zn    0.86005   0.80661   0.28734   0.00000  Uiso   1.00
Zn565  Zn    0.80046   0.79124   0.21876   0.00000  Uiso   1.00
Zn566  Zn    0.87723   0.86442   0.20657   0.00000  Uiso   1.00
Zn567  Zn    0.79560   0.87106   0.28734   0.00000  Uiso   1.00
C568   C     0.05301   0.15982   0.76013   0.00000  Uiso   1.00
C569   C     0.17282   0.16446   0.55910   0.00000  Uiso   1.00
C570   C     0.21310   0.10694   0.55811   0.00000  Uiso   1.00
C571   C     0.28079   0.17353   0.73993   0.00000  Uiso   1.00
C572   C     0.14588   0.19678   0.91927   0.00000  Uiso   1.00
C573   C     0.32697   0.17435   0.73508   0.00000  Uiso   1.00
C574   C     0.00796   0.15771   0.76547   0.00000  Uiso   1.00
C575   C     0.18130   0.32329   0.73894   0.00000  Uiso   1.00
C576   C     0.15055   0.01246   0.76401   0.00000  Uiso   1.00
C577   C     0.15590   0.05621   0.76030   0.00000  Uiso   1.00
C578   C     0.17666   0.27802   0.74055   0.00000  Uiso   1.00
C579   C     0.15346   0.25377   0.97532   0.00000  Uiso   1.00
C580   C     0.18527   0.14811   0.62954   0.00000  Uiso   1.00
C581   C     0.14846   0.18472   0.87108   0.00000  Uiso   1.00
C582   C     0.21112   0.09418   0.51351   0.00000  Uiso   1.00
C583   C     0.19185   0.14058   0.58115   0.00000  Uiso   1.00
C584   C     0.14050   0.23826   0.93683   0.00000  Uiso   1.00
C585   C     0.23432   0.08425   0.58154   0.00000  Uiso   1.00
C586   C     0.31487   0.14115   0.80663   0.00000  Uiso   1.00
C587   C     0.10949   0.32894   0.79122   0.00000  Uiso   1.00
C588   C     0.18344   0.06061   0.93132   0.00000  Uiso   1.00
C589   C     0.14182   0.19120   0.58585   0.00000  Uiso   1.00
C590   C     0.17002   0.22838   0.99823   0.00000  Uiso   1.00
C591   C     0.12558   0.26714   0.91424   0.00000  Uiso   1.00
C592   C     0.16724   0.18489   0.98650   0.00000  Uiso   1.00
C593   C     0.15686   0.16943   0.94574   0.00000  Uiso   1.00
C594   C     0.17767   0.15664   0.51252   0.00000  Uiso   1.00
C595   C     0.19009   0.11754   0.99195   0.00000  Uiso   1.00
C596   C     0.17865   0.10235   0.95168   0.00000  Uiso   1.00
C597   C     0.15873   0.12699   0.93179   0.00000  Uiso   1.00
H598   H     0.15310   0.28657   0.98605   0.00000  Uiso   1.00
H599   H     0.14572   0.11265   0.90435   0.00000  Uiso   1.00
H600   H     0.23763   0.32373   0.69657   0.00000  Uiso   1.00
H601   H     0.24226   0.04580   0.50893   0.00000  Uiso   1.00
H602   H     0.19168   0.27649   0.53287   0.00000  Uiso   1.00
H603   H     0.00833   0.20147   0.67915   0.00000  Uiso   1.00
N604   N     0.25120   0.06619   0.60032   0.00000  Uiso   1.00
N605   N     0.29394   0.12794   0.83952   0.00000  Uiso   1.00
N606   N     0.07665   0.31567   0.81291   0.00000  Uiso   1.00
N607   N     0.18733   0.02727   0.91485   0.00000  Uiso   1.00
N608   N     0.11710   0.21232   0.60724   0.00000  Uiso   1.00
N609   N     0.11354   0.29029   0.89626   0.00000  Uiso   1.00
O610   O     0.16667   0.16667   0.75000   0.00000  Uiso   1.00
O611   O     0.15451   0.12637   0.65459   0.00000  Uiso   1.00
O612   O     0.12940   0.20391   0.84968   0.00000  Uiso   1.00
O613   O     0.20824   0.17759   0.64606   0.00000  Uiso   1.00
O614   O     0.17451   0.15880   0.84968   0.00000  Uiso   1.00
O615   O     0.21749   0.01056   0.71186   0.00000  Uiso   1.00
O616   O     0.22975   0.06001   0.99000   0.00000  Uiso   1.00
O617   O     0.19215   0.24596   0.52937   0.00000  Uiso   1.00
O618   O     0.02339   0.19173   0.69906   0.00000  Uiso   1.00
O619   O     0.17930   0.08019   0.78214   0.00000  Uiso   1.00
O620   O     0.14632   0.26085   0.77014   0.00000  Uiso   1.00
O621   O     0.07412   0.13291   0.73413   0.00000  Uiso   1.00
O622   O     0.26693   0.19272   0.71361   0.00000  Uiso   1.00
O623   O     0.07071   0.18878   0.78213   0.00000  Uiso   1.00
O624   O     0.25491   0.15226   0.77014   0.00000  Uiso   1.00
O625   O     0.13760   0.06944   0.73413   0.00000  Uiso   1.00
O626   O     0.20345   0.25620   0.71361   0.00000  Uiso   1.00
Zn627  Zn    0.19338   0.13994   0.78734   0.00000  Uiso   1.00
Zn628  Zn    0.13379   0.12458   0.71876   0.00000  Uiso   1.00
Zn629  Zn    0.21056   0.19775   0.70657   0.00000  Uiso   1.00
Zn630  Zn    0.12893   0.20439   0.78734   0.00000  Uiso   1.00
C631   C     0.38635   0.15982   0.76013   0.00000  Uiso   1.00
C632   C     0.50615   0.16446   0.55910   0.00000  Uiso   1.00
C633   C     0.54643   0.10694   0.55811   0.00000  Uiso   1.00
C634   C     0.61412   0.17353   0.73993   0.00000  Uiso   1.00
C635   C     0.47921   0.19678   0.91927   0.00000  Uiso   1.00
C636   C     0.66031   0.17435   0.73508   0.00000  Uiso   1.00
C637   C     0.34129   0.15771   0.76547   0.00000  Uiso   1.00
C638   C     0.51463   0.32329   0.73894   0.00000  Uiso   1.00
C639   C     0.48388   0.01246   0.76401   0.00000  Uiso   1.00
C640   C     0.48924   0.05621   0.76030   0.00000  Uiso   1.00
C641   C     0.50999   0.27802   0.74055   0.00000  Uiso   1.00
C642   C     0.48680   0.25377   0.97532   0.00000  Uiso   1.00
C643   C     0.51860   0.14811   0.62954   0.00000  Uiso   1.00
C644   C     0.48179   0.18472   0.87108   0.00000  Uiso   1.00
C645   C     0.54445   0.09418   0.51351   0.00000  Uiso   1.00
C646   C     0.52518   0.14058   0.58115   0.00000  Uiso   1.00
C647   C     0.47384   0.23826   0.93683   0.00000  Uiso   1.00
C648   C     0.56765   0.08425   0.58154   0.00000  Uiso   1.00
C649   C     0.64820   0.14115   0.80663   0.00000  Uiso   1.00
C650   C     0.44283   0.32894   0.79122   0.00000  Uiso   1.00
C651   C     0.51677   0.06061   0.93132   0.00000  Uiso   1.00
C652   C     0.47515   0.19120   0.58585   0.00000  Uiso   1.00
C653   C     0.50335   0.22838   0.99823   0.00000  Uiso   1.00
C654   C     0.45891   0.26714   0.91424   0.00000  Uiso   1.00
C655   C     0.50057   0.18489   0.98650   0.00000  Uiso   1.00
C656   C     0.49019   0.16943   0.94574   0.00000  Uiso   1.00
C657   C     0.51100   0.15664   0.51252   0.00000  Uiso   1.00
C658   C     0.52343   0.11754   0.99195   0.00000  Uiso   1.00
C659   C     0.51199   0.10235   0.95168   0.00000  Uiso   1.00
C660   C     0.49207   0.12699   0.93179   0.00000  Uiso   1.00
H661   H     0.48643   0.28657   0.98605   0.00000  Uiso   1.00
H662   H     0.47905   0.11265   0.90435   0.00000  Uiso   1.00
H663   H     0.57097   0.32373   0.69657   0.00000  Uiso   1.00
H664   H     0.57560   0.04580   0.50893   0.00000  Uiso   1.00
H665   H     0.52501   0.27649   0.53287   0.00000  Uiso   1.00
H666   H     0.34166   0.20147   0.67915   0.00000  Uiso   1.00
N667   N     0.58454   0.06619   0.60032   0.00000  Uiso   1.00
N668   N     0.62728   0.12794   0.83952   0.00000  Uiso   1.00
N669   N     0.40999   0.31567   0.81291   0.00000  Uiso   1.00
N670   N     0.52067   0.02727   0.91485   0.00000  Uiso   1.00
N671   N     0.45043   0.21232   0.60724   0.00000  Uiso   1.00
N672   N     0.44688   0.29029   0.89626   0.00000  Uiso   1.00
O673   O     0.50000   0.16667   0.75000   0.00000  Uiso   1.00
O674   O     0.48784   0.12637   0.65459   0.00000  Uiso   1.00
O675   O     0.46274   0.20391   0.84968   0.00000  Uiso   1.00
O676   O     0.54157   0.17759   0.64606   0.00000  Uiso   1.00
O677   O     0.50785   0.15880   0.84968   0.00000  Uiso   1.00
O678   O     0.55082   0.01056   0.71186   0.00000  Uiso   1.00
O679   O     0.56308   0.06001   0.99000   0.00000  Uiso   1.00
O680   O     0.52548   0.24596   0.52937   0.00000  Uiso   1.00
O681   O     0.35673   0.19173   0.69906   0.00000  Uiso   1.00
O682   O     0.51264   0.08019   0.78214   0.00000  Uiso   1.00
O683   O     0.47965   0.26085   0.77014   0.00000  Uiso   1.00
O684   O     0.40745   0.13291   0.73413   0.00000  Uiso   1.00
O685   O     0.60026   0.19272   0.71361   0.00000  Uiso   1.00
O686   O     0.40405   0.18878   0.78213   0.00000  Uiso   1.00
O687   O     0.58824   0.15226   0.77014   0.00000  Uiso   1.00
O688   O     0.47093   0.06944   0.73413   0.00000  Uiso   1.00
O689   O     0.53678   0.25620   0.71361   0.00000  Uiso   1.00
Zn690  Zn    0.52672   0.13994   0.78734   0.00000  Uiso   1.00
Zn691  Zn    0.46713   0.12458   0.71876   0.00000  Uiso   1.00
Zn692  Zn    0.54389   0.19775   0.70657   0.00000  Uiso   1.00
Zn693  Zn    0.46226   0.20439   0.78734   0.00000  Uiso   1.00
C694   C     0.71968   0.15982   0.76013   0.00000  Uiso   1.00
C695   C     0.83948   0.16446   0.55910   0.00000  Uiso   1.00
C696   C     0.87977   0.10694   0.55811   0.00000  Uiso   1.00
C697   C     0.94746   0.17353   0.73993   0.00000  Uiso   1.00
C698   C     0.81254   0.19678   0.91927   0.00000  Uiso   1.00
C699   C     0.99364   0.17435   0.73508   0.00000  Uiso   1.00
C700   C     0.67463   0.15771   0.76547   0.00000  Uiso   1.00
C701   C     0.84796   0.32329   0.73894   0.00000  Uiso   1.00
C702   C     0.81721   0.01246   0.76401   0.00000  Uiso   1.00
C703   C     0.82257   0.05621   0.76030   0.00000  Uiso   1.00
C704   C     0.84333   0.27802   0.74055   0.00000  Uiso   1.00
C705   C     0.82013   0.25377   0.97532   0.00000  Uiso   1.00
C706   C     0.85194   0.14811   0.62954   0.00000  Uiso   1.00
C707   C     0.81513   0.18472   0.87108   0.00000  Uiso   1.00
C708   C     0.87778   0.09418   0.51351   0.00000  Uiso   1.00
C709   C     0.85851   0.14058   0.58115   0.00000  Uiso   1.00
C710   C     0.80717   0.23826   0.93683   0.00000  Uiso   1.00
C711   C     0.90099   0.08425   0.58154   0.00000  Uiso   1.00
C712   C     0.98153   0.14115   0.80663   0.00000  Uiso   1.00
C713   C     0.77616   0.32894   0.79122   0.00000  Uiso   1.00
C714   C     0.85011   0.06061   0.93132   0.00000  Uiso   1.00
C715   C     0.80849   0.19120   0.58585   0.00000  Uiso   1.00
C716   C     0.83668   0.22838   0.99823   0.00000  Uiso   1.00
C717   C     0.79224   0.26714   0.91424   0.00000  Uiso   1.00
C718   C     0.83391   0.18489   0.98650   0.00000  Uiso   1.00
C719   C     0.82353   0.16943   0.94574   0.00000  Uiso   1.00
C720   C     0.84434   0.15664   0.51252   0.00000  Uiso   1.00
C721   C     0.85676   0.11754   0.99195   0.00000  Uiso   1.00
C722   C     0.84532   0.10235   0.95168   0.00000  Uiso   1.00
C723   C     0.82540   0.12699   0.93179   0.00000  Uiso   1.00
H724   H     0.81977   0.28657   0.98605   0.00000  Uiso   1.00
H725   H     0.81238   0.11265   0.90435   0.00000  Uiso   1.00
H726   H     0.90430   0.32373   0.69657   0.00000  Uiso   1.00
H727   H     0.90893   0.04580   0.50893   0.00000  Uiso   1.00
H728   H     0.85834   0.27649   0.53287   0.00000  Uiso   1.00
H729   H     0.67500   0.20147   0.67915   0.00000  Uiso   1.00
N730   N     0.91787   0.06619   0.60032   0.00000  Uiso   1.00
N731   N     0.96061   0.12794   0.83952   0.00000  Uiso   1.00
N732   N     0.74332   0.31567   0.81291   0.00000  Uiso   1.00
N733   N     0.85400   0.02727   0.91485   0.00000  Uiso   1.00
N734   N     0.78376   0.21232   0.60724   0.00000  Uiso   1.00
N735   N     0.78021   0.29029   0.89626   0.00000  Uiso   1.00
O736   O     0.83333   0.16667   0.75000   0.00000  Uiso   1.00
O737   O     0.82118   0.12637   0.65459   0.00000  Uiso   1.00
O738   O     0.79607   0.20391   0.84968   0.00000  Uiso   1.00
O739   O     0.87491   0.17759   0.64606   0.00000  Uiso   1.00
O740   O     0.84118   0.15880   0.84968   0.00000  Uiso   1.00
O741   O     0.88415   0.01056   0.71186   0.00000  Uiso   1.00
O742   O     0.89642   0.06001   0.99000   0.00000  Uiso   1.00
O743   O     0.85881   0.24596   0.52937   0.00000  Uiso   1.00
O744   O     0.69006   0.19173   0.69906   0.00000  Uiso   1.00
O745   O     0.84597   0.08019   0.78214   0.00000  Uiso   1.00
O746   O     0.81298   0.26085   0.77014   0.00000  Uiso   1.00
O747   O     0.74078   0.13291   0.73413   0.00000  Uiso   1.00
O748   O     0.93360   0.19272   0.71361   0.00000  Uiso   1.00
O749   O     0.73738   0.18878   0.78213   0.00000  Uiso   1.00
O750   O     0.92158   0.15226   0.77014   0.00000  Uiso   1.00
O751   O     0.80426   0.06944   0.73413   0.00000  Uiso   1.00
O752   O     0.87012   0.25620   0.71361   0.00000  Uiso   1.00
Zn753  Zn    0.86005   0.13994   0.78734   0.00000  Uiso   1.00
Zn754  Zn    0.80046   0.12458   0.71876   0.00000  Uiso   1.00
Zn755  Zn    0.87723   0.19775   0.70657   0.00000  Uiso   1.00
Zn756  Zn    0.79560   0.20439   0.78734   0.00000  Uiso   1.00
C757   C     0.05301   0.49315   0.76013   0.00000  Uiso   1.00
C758   C     0.17282   0.49780   0.55910   0.00000  Uiso   1.00
C759   C     0.21310   0.44028   0.55811   0.00000  Uiso   1.00
C760   C     0.28079   0.50686   0.73993   0.00000  Uiso   1.00
C761   C     0.14588   0.53011   0.91927   0.00000  Uiso   1.00
C762   C     0.32697   0.50768   0.73508   0.00000  Uiso   1.00
C763   C     0.00796   0.49104   0.76547   0.00000  Uiso   1.00
C764   C     0.18130   0.65663   0.73894   0.00000  Uiso   1.00
C765   C     0.15055   0.34579   0.76401   0.00000  Uiso   1.00
C766   C     0.15590   0.38954   0.76030   0.00000  Uiso   1.00
C767   C     0.17666   0.61135   0.74055   0.00000  Uiso   1.00
C768   C     0.15346   0.58710   0.97532   0.00000  Uiso   1.00
C769   C     0.18527   0.48144   0.62954   0.00000  Uiso   1.00
C770   C     0.14846   0.51805   0.87108   0.00000  Uiso   1.00
C771   C     0.21112   0.42752   0.51351   0.00000  Uiso   1.00
C772   C     0.19185   0.47391   0.58115   0.00000  Uiso   1.00
C773   C     0.14050   0.57159   0.93683   0.00000  Uiso   1.00
C774   C     0.23432   0.41759   0.58154   0.00000  Uiso   1.00
C775   C     0.31487   0.47449   0.80663   0.00000  Uiso   1.00
C776   C     0.10949   0.66228   0.79122   0.00000  Uiso   1.00
C777   C     0.18344   0.39394   0.93132   0.00000  Uiso   1.00
C778   C     0.14182   0.52454   0.58585   0.00000  Uiso   1.00
C779   C     0.17002   0.56172   0.99823   0.00000  Uiso   1.00
C780   C     0.12558   0.60047   0.91424   0.00000  Uiso   1.00
C781   C     0.16724   0.51823   0.98650   0.00000  Uiso   1.00
C782   C     0.15686   0.50276   0.94574   0.00000  Uiso   1.00
C783   C     0.17767   0.48998   0.51252   0.00000  Uiso   1.00
C784   C     0.19009   0.45087   0.99195   0.00000  Uiso   1.00
C785   C     0.17865   0.43569   0.95168   0.00000  Uiso   1.00
C786   C     0.15873   0.46032   0.93179   0.00000  Uiso   1.00
H787   H     0.15310   0.61990   0.98605   0.00000  Uiso   1.00
H788   H     0.14572   0.44598   0.90435   0.00000  Uiso   1.00
H789   H     0.23763   0.65706   0.69657   0.00000  Uiso   1.00
H790   H     0.24226   0.37913   0.50893   0.00000  Uiso   1.00
H791   H     0.19168   0.60982   0.53287   0.00000  Uiso   1.00
H792   H     0.00833   0.53480   0.67915   0.00000  Uiso   1.00
N793   N     0.25120   0.39952   0.60032   0.00000  Uiso   1.00
N794   N     0.29394   0.46128   0.83952   0.00000  Uiso   1.00
N795   N     0.07665   0.64901   0.81291   0.00000  Uiso   1.00
N796   N     0.18733   0.36060   0.91485   0.00000  Uiso   1.00
N797   N     0.11710   0.54565   0.60724   0.00000  Uiso   1.00
N798   N     0.11354   0.62362   0.89626   0.00000  Uiso   1.00
O799   O     0.16667   0.50000   0.75000   0.00000  Uiso   1.00
O800   O     0.15451   0.45970   0.65459   0.00000  Uiso   1.00
O801   O     0.12940   0.53724   0.84968   0.00000  Uiso   1.00
O802   O     0.20824   0.51092   0.64606   0.00000  Uiso   1.00
O803   O     0.17451   0.49213   0.84968   0.00000  Uiso   1.00
O804   O     0.21749   0.34390   0.71186   0.00000  Uiso   1.00
O805   O     0.22975   0.39335   0.99000   0.00000  Uiso   1.00
O806   O     0.19215   0.57929   0.52937   0.00000  Uiso   1.00
O807   O     0.02339   0.52507   0.69906   0.00000  Uiso   1.00
O808   O     0.17930   0.41352   0.78214   0.00000  Uiso   1.00
O809   O     0.14632   0.59418   0.77014   0.00000  Uiso   1.00
O810   O     0.07412   0.46625   0.73413   0.00000  Uiso   1.00
O811   O     0.26693   0.52605   0.71361   0.00000  Uiso   1.00
O812   O     0.07071   0.52211   0.78213   0.00000  Uiso   1.00
O813   O     0.25491   0.48559   0.77014   0.00000  Uiso   1.00
O814   O     0.13760   0.40277   0.73413   0.00000  Uiso   1.00
O815   O     0.20345   0.58953   0.71361   0.00000  Uiso   1.00
Zn816  Zn    0.19338   0.47327   0.78734   0.00000  Uiso   1.00
Zn817  Zn    0.13379   0.45791   0.71876   0.00000  Uiso   1.00
Zn818  Zn    0.21056   0.53109   0.70657   0.00000  Uiso   1.00
Zn819  Zn    0.12893   0.53773   0.78734   0.00000  Uiso   1.00
C820   C     0.38635   0.49315   0.76013   0.00000  Uiso   1.00
C821   C     0.50615   0.49780   0.55910   0.00000  Uiso   1.00
C822   C     0.54643   0.44028   0.55811   0.00000  Uiso   1.00
C823   C     0.61412   0.50686   0.73993   0.00000  Uiso   1.00
C824   C     0.47921   0.53011   0.91927   0.00000  Uiso   1.00
C825   C     0.66031   0.50768   0.73508   0.00000  Uiso   1.00
C826   C     0.34129   0.49104   0.76547   0.00000  Uiso   1.00
C827   C     0.51463   0.65663   0.73894   0.00000  Uiso   1.00
C828   C     0.48388   0.34579   0.76401   0.00000  Uiso   1.00
C829   C     0.48924   0.38954   0.76030   0.00000  Uiso   1.00
C830   C     0.50999   0.61135   0.74055   0.00000  Uiso   1.00
C831   C     0.48680   0.58710   0.97532   0.00000  Uiso   1.00
C832   C     0.51860   0.48144   0.62954   0.00000  Uiso   1.00
C833   C     0.48179   0.51805   0.87108   0.00000  Uiso   1.00
C834   C     0.54445   0.42752   0.51351   0.00000  Uiso   1.00
C835   C     0.52518   0.47391   0.58115   0.00000  Uiso   1.00
C836   C     0.47384   0.57159   0.93683   0.00000  Uiso   1.00
C837   C     0.56765   0.41759   0.58154   0.00000  Uiso   1.00
C838   C     0.64820   0.47449   0.80663   0.00000  Uiso   1.00
C839   C     0.44283   0.66228   0.79122   0.00000  Uiso   1.00
C840   C     0.51677   0.39394   0.93132   0.00000  Uiso   1.00
C841   C     0.47515   0.52454   0.58585   0.00000  Uiso   1.00
C842   C     0.50335   0.56172   0.99823   0.00000  Uiso   1.00
C843   C     0.45891   0.60047   0.91424   0.00000  Uiso   1.00
C844   C     0.50057   0.51823   0.98650   0.00000  Uiso   1.00
C845   C     0.49019   0.50276   0.94574   0.00000  Uiso   1.00
C846   C     0.51100   0.48998   0.51252   0.00000  Uiso   1.00
C847   C     0.52343   0.45087   0.99195   0.00000  Uiso   1.00
C848   C     0.51199   0.43569   0.95168   0.00000  Uiso   1.00
C849   C     0.49207   0.46032   0.93179   0.00000  Uiso   1.00
H850   H     0.48643   0.61990   0.98605   0.00000  Uiso   1.00
H851   H     0.47905   0.44598   0.90435   0.00000  Uiso   1.00
H852   H     0.57097   0.65706   0.69657   0.00000  Uiso   1.00
H853   H     0.57560   0.37913   0.50893   0.00000  Uiso   1.00
H854   H     0.52501   0.60982   0.53287   0.00000  Uiso   1.00
H855   H     0.34166   0.53480   0.67915   0.00000  Uiso   1.00
N856   N     0.58454   0.39952   0.60032   0.00000  Uiso   1.00
N857   N     0.62728   0.46128   0.83952   0.00000  Uiso   1.00
N858   N     0.40999   0.64901   0.81291   0.00000  Uiso   1.00
N859   N     0.52067   0.36060   0.91485   0.00000  Uiso   1.00
N860   N     0.45043   0.54565   0.60724   0.00000  Uiso   1.00
N861   N     0.44688   0.62362   0.89626   0.00000  Uiso   1.00
O862   O     0.50000   0.50000   0.75000   0.00000  Uiso   1.00
O863   O     0.48784   0.45970   0.65459   0.00000  Uiso   1.00
O864   O     0.46274   0.53724   0.84968   0.00000  Uiso   1.00
O865   O     0.54157   0.51092   0.64606   0.00000  Uiso   1.00
O866   O     0.50785   0.49213   0.84968   0.00000  Uiso   1.00
O867   O     0.55082   0.34390   0.71186   0.00000  Uiso   1.00
O868   O     0.56308   0.39335   0.99000   0.00000  Uiso   1.00
O869   O     0.52548   0.57929   0.52937   0.00000  Uiso   1.00
O870   O     0.35673   0.52507   0.69906   0.00000  Uiso   1.00
O871   O     0.51264   0.41352   0.78214   0.00000  Uiso   1.00
O872   O     0.47965   0.59418   0.77014   0.00000  Uiso   1.00
O873   O     0.40745   0.46625   0.73413   0.00000  Uiso   1.00
O874   O     0.60026   0.52605   0.71361   0.00000  Uiso   1.00
O875   O     0.40405   0.52211   0.78213   0.00000  Uiso   1.00
O876   O     0.58824   0.48559   0.77014   0.00000  Uiso   1.00
O877   O     0.47093   0.40277   0.73413   0.00000  Uiso   1.00
O878   O     0.53678   0.58953   0.71361   0.00000  Uiso   1.00
Zn879  Zn    0.52672   0.47327   0.78734   0.00000  Uiso   1.00
Zn880  Zn    0.46713   0.45791   0.71876   0.00000  Uiso   1.00
Zn881  Zn    0.54389   0.53109   0.70657   0.00000  Uiso   1.00
Zn882  Zn    0.46226   0.53773   0.78734   0.00000  Uiso   1.00
C883   C     0.71968   0.49315   0.76013   0.00000  Uiso   1.00
C884   C     0.83948   0.49780   0.55910   0.00000  Uiso   1.00
C885   C     0.87977   0.44028   0.55811   0.00000  Uiso   1.00
C886   C     0.94746   0.50686   0.73993   0.00000  Uiso   1.00
C887   C     0.81254   0.53011   0.91927   0.00000  Uiso   1.00
C888   C     0.99364   0.50768   0.73508   0.00000  Uiso   1.00
C889   C     0.67463   0.49104   0.76547   0.00000  Uiso   1.00
C890   C     0.84796   0.65663   0.73894   0.00000  Uiso   1.00
C891   C     0.81721   0.34579   0.76401   0.00000  Uiso   1.00
C892   C     0.82257   0.38954   0.76030   0.00000  Uiso   1.00
C893   C     0.84333   0.61135   0.74055   0.00000  Uiso   1.00
C894   C     0.82013   0.58710   0.97532   0.00000  Uiso   1.00
C895   C     0.85194   0.48144   0.62954   0.00000  Uiso   1.00
C896   C     0.81513   0.51805   0.87108   0.00000  Uiso   1.00
C897   C     0.87778   0.42752   0.51351   0.00000  Uiso   1.00
C898   C     0.85851   0.47391   0.58115   0.00000  Uiso   1.00
C899   C     0.80717   0.57159   0.93683   0.00000  Uiso   1.00
C900   C     0.90099   0.41759   0.58154   0.00000  Uiso   1.00
C901   C     0.98153   0.47449   0.80663   0.00000  Uiso   1.00
C902   C     0.77616   0.66228   0.79122   0.00000  Uiso   1.00
C903   C     0.85011   0.39394   0.93132   0.00000  Uiso   1.00
C904   C     0.80849   0.52454   0.58585   0.00000  Uiso   1.00
C905   C     0.83668   0.56172   0.99823   0.00000  Uiso   1.00
C906   C     0.79224   0.60047   0.91424   0.00000  Uiso   1.00
C907   C     0.83391   0.51823   0.98650   0.00000  Uiso   1.00
C908   C     0.82353   0.50276   0.94574   0.00000  Uiso   1.00
C909   C     0.84434   0.48998   0.51252   0.00000  Uiso   1.00
C910   C     0.85676   0.45087   0.99195   0.00000  Uiso   1.00
C911   C     0.84532   0.43569   0.95168   0.00000  Uiso   1.00
C912   C     0.82540   0.46032   0.93179   0.00000  Uiso   1.00
H913   H     0.81977   0.61990   0.98605   0.00000  Uiso   1.00
H914   H     0.81238   0.44598   0.90435   0.00000  Uiso   1.00
H915   H     0.90430   0.65706   0.69657   0.00000  Uiso   1.00
H916   H     0.90893   0.37913   0.50893   0.00000  Uiso   1.00
H917   H     0.85834   0.60982   0.53287   0.00000  Uiso   1.00
H918   H     0.67500   0.53480   0.67915   0.00000  Uiso   1.00
N919   N     0.91787   0.39952   0.60032   0.00000  Uiso   1.00
N920   N     0.96061   0.46128   0.83952   0.00000  Uiso   1.00
N921   N     0.74332   0.64901   0.81291   0.00000  Uiso   1.00
N922   N     0.85400   0.36060   0.91485   0.00000  Uiso   1.00
N923   N     0.78376   0.54565   0.60724   0.00000  Uiso   1.00
N924   N     0.78021   0.62362   0.89626   0.00000  Uiso   1.00
O925   O     0.83333   0.50000   0.75000   0.00000  Uiso   1.00
O926   O     0.82118   0.45970   0.65459   0.00000  Uiso   1.00
O927   O     0.79607   0.53724   0.84968   0.00000  Uiso   1.00
O928   O     0.87491   0.51092   0.64606   0.00000  Uiso   1.00
O929   O     0.84118   0.49213   0.84968   0.00000  Uiso   1.00
O930   O     0.88415   0.34390   0.71186   0.00000  Uiso   1.00
O931   O     0.89642   0.39335   0.99000   0.00000  Uiso   1.00
O932   O     0.85881   0.57929   0.52937   0.00000  Uiso   1.00
O933   O     0.69006   0.52507   0.69906   0.00000  Uiso   1.00
O934   O     0.84597   0.41352   0.78214   0.00000  Uiso   1.00
O935   O     0.81298   0.59418   0.77014   0.00000  Uiso   1.00
O936   O     0.74078   0.46625   0.73413   0.00000  Uiso   1.00
O937   O     0.93360   0.52605   0.71361   0.00000  Uiso   1.00
O938   O     0.73738   0.52211   0.78213   0.00000  Uiso   1.00
O939   O     0.92158   0.48559   0.77014   0.00000  Uiso   1.00
O940   O     0.80426   0.40277   0.73413   0.00000  Uiso   1.00
O941   O     0.87012   0.58953   0.71361   0.00000  Uiso   1.00
Zn942  Zn    0.86005   0.47327   0.78734   0.00000  Uiso   1.00
Zn943  Zn    0.80046   0.45791   0.71876   0.00000  Uiso   1.00
Zn944  Zn    0.87723   0.53109   0.70657   0.00000  Uiso   1.00
Zn945  Zn    0.79560   0.53773   0.78734   0.00000  Uiso   1.00
C946   C     0.05301   0.82649   0.76013   0.00000  Uiso   1.00
C947   C     0.17282   0.83113   0.55910   0.00000  Uiso   1.00
C948   C     0.21310   0.77361   0.55811   0.00000  Uiso   1.00
C949   C     0.28079   0.84020   0.73993   0.00000  Uiso   1.00
C950   C     0.14588   0.86344   0.91927   0.00000  Uiso   1.00
C951   C     0.32697   0.84101   0.73508   0.00000  Uiso   1.00
C952   C     0.00796   0.82437   0.76547   0.00000  Uiso   1.00
C953   C     0.18130   0.98996   0.73894   0.00000  Uiso   1.00
C954   C     0.15055   0.67913   0.76401   0.00000  Uiso   1.00
C955   C     0.15590   0.72287   0.76030   0.00000  Uiso   1.00
C956   C     0.17666   0.94468   0.74055   0.00000  Uiso   1.00
C957   C     0.15346   0.92044   0.97532   0.00000  Uiso   1.00
C958   C     0.18527   0.81477   0.62954   0.00000  Uiso   1.00
C959   C     0.14846   0.85139   0.87108   0.00000  Uiso   1.00
C960   C     0.21112   0.76085   0.51351   0.00000  Uiso   1.00
C961   C     0.19185   0.80724   0.58115   0.00000  Uiso   1.00
C962   C     0.14050   0.90492   0.93683   0.00000  Uiso   1.00
C963   C     0.23432   0.75092   0.58154   0.00000  Uiso   1.00
C964   C     0.31487   0.80782   0.80663   0.00000  Uiso   1.00
C965   C     0.10949   0.99561   0.79122   0.00000  Uiso   1.00
C966   C     0.18344   0.72727   0.93132   0.00000  Uiso   1.00
C967   C     0.14182   0.85787   0.58585   0.00000  Uiso   1.00
C968   C     0.17002   0.89505   0.99823   0.00000  Uiso   1.00
C969   C     0.12558   0.93380   0.91424   0.00000  Uiso   1.00
C970   C     0.16724   0.85156   0.98650   0.00000  Uiso   1.00
C971   C     0.15686   0.83610   0.94574   0.00000  Uiso   1.00
C972   C     0.17767   0.82331   0.51252   0.00000  Uiso   1.00
C973   C     0.19009   0.78420   0.99195   0.00000  Uiso   1.00
C974   C     0.17865   0.76902   0.95168   0.00000  Uiso   1.00
C975   C     0.15873   0.79365   0.93179   0.00000  Uiso   1.00
H976   H     0.15310   0.95324   0.98605   0.00000  Uiso   1.00
H977   H     0.14572   0.77931   0.90435   0.00000  Uiso   1.00
H978   H     0.23763   0.99040   0.69657   0.00000  Uiso   1.00
H979   H     0.24226   0.71247   0.50893   0.00000  Uiso   1.00
H980   H     0.19168   0.94315   0.53287   0.00000  Uiso   1.00
H981   H     0.00833   0.86813   0.67915   0.00000  Uiso   1.00
N982   N     0.25120   0.73286   0.60032   0.00000  Uiso   1.00
N983   N     0.29394   0.79461   0.83952   0.00000  Uiso   1.00
N984   N     0.07665   0.98234   0.81291   0.00000  Uiso   1.00
N985   N     0.18733   0.69394   0.91485   0.00000  Uiso   1.00
N986   N     0.11710   0.87899   0.60724   0.00000  Uiso   1.00
N987   N     0.11354   0.95696   0.89626   0.00000  Uiso   1.00
O988   O     0.16667   0.83333   0.75000   0.00000  Uiso   1.00
O989   O     0.15451   0.79304   0.65459   0.00000  Uiso   1.00
O990   O     0.12940   0.87058   0.84968   0.00000  Uiso   1.00
O991   O     0.20824   0.84425   0.64606   0.00000  Uiso   1.00
O992   O     0.17451   0.82546   0.84968   0.00000  Uiso   1.00
O993   O     0.21749   0.67723   0.71186   0.00000  Uiso   1.00
O994   O     0.22975   0.72668   0.99000   0.00000  Uiso   1.00
O995   O     0.19215   0.91262   0.52937   0.00000  Uiso   1.00
O996   O     0.02339   0.85840   0.69906   0.00000  Uiso   1.00
O997   O     0.17930   0.74686   0.78214   0.00000  Uiso   1.00
O998   O     0.14632   0.92751   0.77014   0.00000  Uiso   1.00
O999   O     0.07412   0.79958   0.73413   0.00000  Uiso   1.00
O1000  O     0.26693   0.85939   0.71361   0.00000  Uiso   1.00
O1001  O     0.07071   0.85544   0.78213   0.00000  Uiso   1.00
O1002  O     0.25491   0.81892   0.77014   0.00000  Uiso   1.00
O1003  O     0.13760   0.73610   0.73413   0.00000  Uiso   1.00
O1004  O     0.20345   0.92286   0.71361   0.00000  Uiso   1.00
Zn1005 Zn    0.19338   0.80661   0.78734   0.00000  Uiso   1.00
Zn1006 Zn    0.13379   0.79124   0.71876   0.00000  Uiso   1.00
Zn1007 Zn    0.21056   0.86442   0.70657   0.00000  Uiso   1.00
Zn1008 Zn    0.12893   0.87106   0.78734   0.00000  Uiso   1.00
C1009  C     0.38635   0.82649   0.76013   0.00000  Uiso   1.00
C1010  C     0.50615   0.83113   0.55910   0.00000  Uiso   1.00
C1011  C     0.54643   0.77361   0.55811   0.00000  Uiso   1.00
C1012  C     0.61412   0.84020   0.73993   0.00000  Uiso   1.00
C1013  C     0.47921   0.86344   0.91927   0.00000  Uiso   1.00
C1014  C     0.66031   0.84101   0.73508   0.00000  Uiso   1.00
C1015  C     0.34129   0.82437   0.76547   0.00000  Uiso   1.00
C1016  C     0.51463   0.98996   0.73894   0.00000  Uiso   1.00
C1017  C     0.48388   0.67913   0.76401   0.00000  Uiso   1.00
C1018  C     0.48924   0.72287   0.76030   0.00000  Uiso   1.00
C1019  C     0.50999   0.94468   0.74055   0.00000  Uiso   1.00
C1020  C     0.48680   0.92044   0.97532   0.00000  Uiso   1.00
C1021  C     0.51860   0.81477   0.62954   0.00000  Uiso   1.00
C1022  C     0.48179   0.85139   0.87108   0.00000  Uiso   1.00
C1023  C     0.54445   0.76085   0.51351   0.00000  Uiso   1.00
C1024  C     0.52518   0.80724   0.58115   0.00000  Uiso   1.00
C1025  C     0.47384   0.90492   0.93683   0.00000  Uiso   1.00
C1026  C     0.56765   0.75092   0.58154   0.00000  Uiso   1.00
C1027  C     0.64820   0.80782   0.80663   0.00000  Uiso   1.00
C1028  C     0.44283   0.99561   0.79122   0.00000  Uiso   1.00
C1029  C     0.51677   0.72727   0.93132   0.00000  Uiso   1.00
C1030  C     0.47515   0.85787   0.58585   0.00000  Uiso   1.00
C1031  C     0.50335   0.89505   0.99823   0.00000  Uiso   1.00
C1032  C     0.45891   0.93380   0.91424   0.00000  Uiso   1.00
C1033  C     0.50057   0.85156   0.98650   0.00000  Uiso   1.00
C1034  C     0.49019   0.83610   0.94574   0.00000  Uiso   1.00
C1035  C     0.51100   0.82331   0.51252   0.00000  Uiso   1.00
C1036  C     0.52343   0.78420   0.99195   0.00000  Uiso   1.00
C1037  C     0.51199   0.76902   0.95168   0.00000  Uiso   1.00
C1038  C     0.49207   0.79365   0.93179   0.00000  Uiso   1.00
H1039  H     0.48643   0.95324   0.98605   0.00000  Uiso   1.00
H1040  H     0.47905   0.77931   0.90435   0.00000  Uiso   1.00
H1041  H     0.57097   0.99040   0.69657   0.00000  Uiso   1.00
H1042  H     0.57560   0.71247   0.50893   0.00000  Uiso   1.00
H1043  H     0.52501   0.94315   0.53287   0.00000  Uiso   1.00
H1044  H     0.34166   0.86813   0.67915   0.00000  Uiso   1.00
N1045  N     0.58454   0.73286   0.60032   0.00000  Uiso   1.00
N1046  N     0.62728   0.79461   0.83952   0.00000  Uiso   1.00
N1047  N     0.40999   0.98234   0.81291   0.00000  Uiso   1.00
N1048  N     0.52067   0.69394   0.91485   0.00000  Uiso   1.00
N1049  N     0.45043   0.87899   0.60724   0.00000  Uiso   1.00
N1050  N     0.44688   0.95696   0.89626   0.00000  Uiso   1.00
O1051  O     0.50000   0.83333   0.75000   0.00000  Uiso   1.00
O1052  O     0.48784   0.79304   0.65459   0.00000  Uiso   1.00
O1053  O     0.46274   0.87058   0.84968   0.00000  Uiso   1.00
O1054  O     0.54157   0.84425   0.64606   0.00000  Uiso   1.00
O1055  O     0.50785   0.82546   0.84968   0.00000  Uiso   1.00
O1056  O     0.55082   0.67723   0.71186   0.00000  Uiso   1.00
O1057  O     0.56308   0.72668   0.99000   0.00000  Uiso   1.00
O1058  O     0.52548   0.91262   0.52937   0.00000  Uiso   1.00
O1059  O     0.35673   0.85840   0.69906   0.00000  Uiso   1.00
O1060  O     0.51264   0.74686   0.78214   0.00000  Uiso   1.00
O1061  O     0.47965   0.92751   0.77014   0.00000  Uiso   1.00
O1062  O     0.40745   0.79958   0.73413   0.00000  Uiso   1.00
O1063  O     0.60026   0.85939   0.71361   0.00000  Uiso   1.00
O1064  O     0.40405   0.85544   0.78213   0.00000  Uiso   1.00
O1065  O     0.58824   0.81892   0.77014   0.00000  Uiso   1.00
O1066  O     0.47093   0.73610   0.73413   0.00000  Uiso   1.00
O1067  O     0.53678   0.92286   0.71361   0.00000  Uiso   1.00
Zn1068 Zn    0.52672   0.80661   0.78734   0.00000  Uiso   1.00
Zn1069 Zn    0.46713   0.79124   0.71876   0.00000  Uiso   1.00
Zn1070 Zn    0.54389   0.86442   0.70657   0.00000  Uiso   1.00
Zn1071 Zn    0.46226   0.87106   0.78734   0.00000  Uiso   1.00
C1072  C     0.71968   0.82649   0.76013   0.00000  Uiso   1.00
C1073  C     0.83948   0.83113   0.55910   0.00000  Uiso   1.00
C1074  C     0.87977   0.77361   0.55811   0.00000  Uiso   1.00
C1075  C     0.94746   0.84020   0.73993   0.00000  Uiso   1.00
C1076  C     0.81254   0.86344   0.91927   0.00000  Uiso   1.00
C1077  C     0.99364   0.84101   0.73508   0.00000  Uiso   1.00
C1078  C     0.67463   0.82437   0.76547   0.00000  Uiso   1.00
C1079  C     0.84796   0.98996   0.73894   0.00000  Uiso   1.00
C1080  C     0.81721   0.67913   0.76401   0.00000  Uiso   1.00
C1081  C     0.82257   0.72287   0.76030   0.00000  Uiso   1.00
C1082  C     0.84333   0.94468   0.74055   0.00000  Uiso   1.00
C1083  C     0.82013   0.92044   0.97532   0.00000  Uiso   1.00
C1084  C     0.85194   0.81477   0.62954   0.00000  Uiso   1.00
C1085  C     0.81513   0.85139   0.87108   0.00000  Uiso   1.00
C1086  C     0.87778   0.76085   0.51351   0.00000  Uiso   1.00
C1087  C     0.85851   0.80724   0.58115   0.00000  Uiso   1.00
C1088  C     0.80717   0.90492   0.93683   0.00000  Uiso   1.00
C1089  C     0.90099   0.75092   0.58154   0.00000  Uiso   1.00
C1090  C     0.98153   0.80782   0.80663   0.00000  Uiso   1.00
C1091  C     0.77616   0.99561   0.79122   0.00000  Uiso   1.00
C1092  C     0.85011   0.72727   0.93132   0.00000  Uiso   1.00
C1093  C     0.80849   0.85787   0.58585   0.00000  Uiso   1.00
C1094  C     0.83668   0.89505   0.99823   0.00000  Uiso   1.00
C1095  C     0.79224   0.93380   0.91424   0.00000  Uiso   1.00
C1096  C     0.83391   0.85156   0.98650   0.00000  Uiso   1.00
C1097  C     0.82353   0.83610   0.94574   0.00000  Uiso   1.00
C1098  C     0.84434   0.82331   0.51252   0.00000  Uiso   1.00
C1099  C     0.85676   0.78420   0.99195   0.00000  Uiso   1.00
C1100  C     0.84532   0.76902   0.95168   0.00000  Uiso   1.00
C1101  C     0.82540   0.79365   0.93179   0.00000  Uiso   1.00
H1102  H     0.81977   0.95324   0.98605   0.00000  Uiso   1.00
H1103  H     0.81238   0.77931   0.90435   0.00000  Uiso   1.00
H1104  H     0.90430   0.99040   0.69657   0.00000  Uiso   1.00
H1105  H     0.90893   0.71247   0.50893   0.00000  Uiso   1.00
H1106  H     0.85834   0.94315   0.53287   0.00000  Uiso   1.00
H1107  H     0.67500   0.86813   0.67915   0.00000  Uiso   1.00
N1108  N     0.91787   0.73286   0.60032   0.00000  Uiso   1.00
N1109  N     0.96061   0.79461   0.83952   0.00000  Uiso   1.00
N1110  N     0.74332   0.98234   0.81291   0.00000  Uiso   1.00
N1111  N     0.85400   0.69394   0.91485   0.00000  Uiso   1.00
N1112  N     0.78376   0.87899   0.60724   0.00000  Uiso   1.00
N1113  N     0.78021   0.95696   0.89626   0.00000  Uiso   1.00
O1114  O     0.83333   0.83333   0.75000   0.00000  Uiso   1.00
O1115  O     0.82118   0.79304   0.65459   0.00000  Uiso   1.00
O1116  O     0.79607   0.87058   0.84968   0.00000  Uiso   1.00
O1117  O     0.87491   0.84425   0.64606   0.00000  Uiso   1.00
O1118  O     0.84118   0.82546   0.84968   0.00000  Uiso   1.00
O1119  O     0.88415   0.67723   0.71186   0.00000  Uiso   1.00
O1120  O     0.89642   0.72668   0.99000   0.00000  Uiso   1.00
O1121  O     0.85881   0.91262   0.52937   0.00000  Uiso   1.00
O1122  O     0.69006   0.85840   0.69906   0.00000  Uiso   1.00
O1123  O     0.84597   0.74686   0.78214   0.00000  Uiso   1.00
O1124  O     0.81298   0.92751   0.77014   0.00000  Uiso   1.00
O1125  O     0.74078   0.79958   0.73413   0.00000  Uiso   1.00
O1126  O     0.93360   0.85939   0.71361   0.00000  Uiso   1.00
O1127  O     0.73738   0.85544   0.78213   0.00000  Uiso   1.00
O1128  O     0.92158   0.81892   0.77014   0.00000  Uiso   1.00
O1129  O     0.80426   0.73610   0.73413   0.00000  Uiso   1.00
O1130  O     0.87012   0.92286   0.71361   0.00000  Uiso   1.00
Zn1131 Zn    0.86005   0.80661   0.78734   0.00000  Uiso   1.00
Zn1132 Zn    0.80046   0.79124   0.71876   0.00000  Uiso   1.00
Zn1133 Zn    0.87723   0.86442   0.70657   0.00000  Uiso   1.00
Zn1134 Zn    0.79560   0.87106   0.78734   0.00000  Uiso   1.00
loop_
_geom_bond_atom_site_label_1
_geom_bond_atom_site_label_2
_geom_bond_distance
_geom_bond_site_symmetry_2
_ccdc_geom_bond_type
C1     O54     1.271   .     A
C1     C7      1.430   .     S
C1     O56     1.264   .     A
C2     C22     1.456   .     S
C2     C27     1.410   .     A
C2     C16     1.399   .     A
C3     C15     1.416   .     A
C3     C18     1.451   .     S
C3     C16     1.406   .     A
C4     O55     1.291   .     A
C4     C6      1.474   .     S
C4     O57     1.278   .     A
C5     C14     1.487   .     S
C5     C17     1.418   .     A
C5     C26     1.422   .     A
C6     C70     1.354   .     S
C6     O114    1.387   .     S
C7     C132    1.354   1_455 S
C7     C145    1.451   1_455 S
C8     C11     1.469   .     S
C8     C198    1.350   .     S
C8     O237    1.388   .     S
C9     C10     1.427   .     S
C9     C386    1.350   1_545 S
C9     C398    1.451   1_545 S
C10    O52     1.280   .     A
C10    O58     1.274   .     A
C11    O53     1.270   .     A
C11    O59     1.276   .     A
C12    C17     1.391   .     A
C12    C23     1.400   .     A
C12    H31     1.085   .     S
C13    O46     1.279   .     A
C13    C16     1.457   .     S
C13    O44     1.273   .     A
C14    O45     1.286   .     A
C14    O47     1.289   .     A
C15    C595    1.421   1_554 S
C15    O616    1.386   1_554 S
C17    C24     1.446   .     S
C18    N37     1.157   .     T
C19    N38     1.158   .     T
C19    C70     1.451   .     S
C20    N39     1.158   .     T
C20    C198    1.451   .     S
C21    N40     1.157   .     T
C21    C29     1.446   .     S
C22    N41     1.158   .     T
C23    C25     1.420   .     A
C23    O617    1.383   .     S
C24    N42     1.157   .     T
C25    C26     1.416   .     A
C25    C594    1.425   .     S
C26    C30     1.408   .     A
C27    C592    1.425   1_554 S
C27    C595    1.424   1_554 S
C28    C29     1.415   .     A
C28    C594    1.424   .     S
C28    C582    1.421   .     S
C29    C30     1.391   .     A
C30    H32     1.082   .     S
H33    O237    0.990   .     S
H34    O616    0.988   1_554 S
H35    O50     0.992   .     S
H36    O51     0.990   .     S
O43    Zn62    1.941   .     S
O43    Zn63    1.932   .     S
O43    Zn60    1.967   .     S
O43    Zn61    1.951   .     S
O44    Zn61    1.931   .     S
O45    Zn63    1.943   .     S
O46    Zn62    1.936   .     S
O47    Zn60    1.925   .     S
O48    C386    1.388   1_545 S
O48    H411    0.990   1_545 S
O49    C582    1.386   .     S
O49    H601    0.988   .     S
O50    C590    1.383   1_554 S
O51    C132    1.387   1_455 S
O52    Zn60    1.936   .     S
O53    Zn63    1.940   .     S
O54    Zn61    1.933   .     S
O55    Zn62    1.946   .     S
O56    Zn63    1.942   .     S
O57    Zn60    1.932   .     S
O58    Zn61    1.944   .     S
O59    Zn62    1.936   .     S
C64    O117    1.271   .     A
C64    C70     1.430   .     S
C64    O119    1.264   .     A
C65    C85     1.456   .     S
C65    C90     1.410   .     A
C65    C79     1.399   .     A
C66    C78     1.416   .     A
C66    C81     1.451   .     S
C66    C79     1.406   .     A
C67    O118    1.291   .     A
C67    C69     1.474   .     S
C67    O120    1.278   .     A
C68    C77     1.487   .     S
C68    C80     1.418   .     A
C68    C89     1.422   .     A
C69    C133    1.354   .     S
C69    O177    1.387   .     S
C71    C74     1.469   .     S
C71    C261    1.350   .     S
C71    O300    1.388   .     S
C72    C73     1.427   .     S
C72    C449    1.350   1_545 S
C72    C461    1.451   1_545 S
C73    O115    1.280   .     A
C73    O121    1.274   .     A
C74    O116    1.270   .     A
C74    O122    1.276   .     A
C75    C80     1.391   .     A
C75    C86     1.400   .     A
C75    H94     1.085   .     S
C76    O109    1.279   .     A
C76    C79     1.457   .     S
C76    O107    1.273   .     A
C77    O108    1.286   .     A
C77    O110    1.289   .     A
C78    C658    1.421   1_554 S
C78    O679    1.386   1_554 S
C80    C87     1.446   .     S
C81    N100    1.157   .     T
C82    N101    1.158   .     T
C82    C133    1.451   .     S
C83    N102    1.158   .     T
C83    C261    1.451   .     S
C84    N103    1.157   .     T
C84    C92     1.446   .     S
C85    N104    1.158   .     T
C86    C88     1.420   .     A
C86    O680    1.383   .     S
C87    N105    1.157   .     T
C88    C89     1.416   .     A
C88    C657    1.425   .     S
C89    C93     1.408   .     A
C90    C655    1.425   1_554 S
C90    C658    1.424   1_554 S
C91    C92     1.415   .     A
C91    C657    1.424   .     S
C91    C645    1.421   .     S
C92    C93     1.391   .     A
C93    H95     1.082   .     S
H96    O300    0.990   .     S
H97    O679    0.988   1_554 S
H98    O113    0.992   .     S
H99    O114    0.990   .     S
O106   Zn125   1.941   .     S
O106   Zn126   1.932   .     S
O106   Zn123   1.967   .     S
O106   Zn124   1.951   .     S
O107   Zn124   1.931   .     S
O108   Zn126   1.943   .     S
O109   Zn125   1.936   .     S
O110   Zn123   1.925   .     S
O111   C449    1.388   1_545 S
O111   H474    0.990   1_545 S
O112   C645    1.386   .     S
O112   H664    0.988   .     S
O113   C653    1.383   1_554 S
O115   Zn123   1.936   .     S
O116   Zn126   1.940   .     S
O117   Zn124   1.933   .     S
O118   Zn125   1.946   .     S
O119   Zn126   1.942   .     S
O120   Zn123   1.932   .     S
O121   Zn124   1.944   .     S
O122   Zn125   1.936   .     S
C127   O180    1.271   .     A
C127   C133    1.430   .     S
C127   O182    1.264   .     A
C128   C148    1.456   .     S
C128   C153    1.410   .     A
C128   C142    1.399   .     A
C129   C141    1.416   .     A
C129   C144    1.451   .     S
C129   C142    1.406   .     A
C130   O181    1.291   .     A
C130   C132    1.474   .     S
C130   O183    1.278   .     A
C131   C140    1.487   .     S
C131   C143    1.418   .     A
C131   C152    1.422   .     A
C132   C7      1.354   1_655 S
C132   O51     1.387   1_655 S
C134   C137    1.469   .     S
C134   C324    1.350   .     S
C134   O363    1.388   .     S
C135   C136    1.427   .     S
C135   C512    1.350   1_545 S
C135   C524    1.451   1_545 S
C136   O178    1.280   .     A
C136   O184    1.274   .     A
C137   O179    1.270   .     A
C137   O185    1.276   .     A
C138   C143    1.391   .     A
C138   C149    1.400   .     A
C138   H157    1.085   .     S
C139   O172    1.279   .     A
C139   C142    1.457   .     S
C139   O170    1.273   .     A
C140   O171    1.286   .     A
C140   O173    1.289   .     A
C141   C721    1.421   1_554 S
C141   O742    1.386   1_554 S
C143   C150    1.446   .     S
C144   N163    1.157   .     T
C145   N164    1.158   .     T
C145   C7      1.451   1_655 S
C146   N165    1.158   .     T
C146   C324    1.451   .     S
C147   N166    1.157   .     T
C147   C155    1.446   .     S
C148   N167    1.158   .     T
C149   C151    1.420   .     A
C149   O743    1.383   .     S
C150   N168    1.157   .     T
C151   C152    1.416   .     A
C151   C720    1.425   .     S
C152   C156    1.408   .     A
C153   C718    1.425   1_554 S
C153   C721    1.424   1_554 S
C154   C155    1.415   .     A
C154   C720    1.424   .     S
C154   C708    1.421   .     S
C155   C156    1.391   .     A
C156   H158    1.082   .     S
H159   O363    0.990   .     S
H160   O742    0.988   1_554 S
H161   O176    0.992   .     S
H162   O177    0.990   .     S
O169   Zn188   1.941   .     S
O169   Zn189   1.932   .     S
O169   Zn186   1.967   .     S
O169   Zn187   1.951   .     S
O170   Zn187   1.931   .     S
O171   Zn189   1.943   .     S
O172   Zn188   1.936   .     S
O173   Zn186   1.925   .     S
O174   C512    1.388   1_545 S
O174   H537    0.990   1_545 S
O175   C708    1.386   .     S
O175   H727    0.988   .     S
O176   C716    1.383   1_554 S
O178   Zn186   1.936   .     S
O179   Zn189   1.940   .     S
O180   Zn187   1.933   .     S
O181   Zn188   1.946   .     S
O182   Zn189   1.942   .     S
O183   Zn186   1.932   .     S
O184   Zn187   1.944   .     S
O185   Zn188   1.936   .     S
C190   O243    1.271   .     A
C190   C196    1.430   .     S
C190   O245    1.264   .     A
C191   C211    1.456   .     S
C191   C216    1.410   .     A
C191   C205    1.399   .     A
C192   C204    1.416   .     A
C192   C207    1.451   .     S
C192   C205    1.406   .     A
C193   O244    1.291   .     A
C193   C195    1.474   .     S
C193   O246    1.278   .     A
C194   C203    1.487   .     S
C194   C206    1.418   .     A
C194   C215    1.422   .     A
C195   C259    1.354   .     S
C195   O303    1.387   .     S
C196   C321    1.354   1_455 S
C196   C334    1.451   1_455 S
C197   C200    1.469   .     S
C197   C387    1.350   .     S
C197   O426    1.388   .     S
C198   C199    1.427   .     S
C199   O241    1.280   .     A
C199   O247    1.274   .     A
C200   O242    1.270   .     A
C200   O248    1.276   .     A
C201   C206    1.391   .     A
C201   C212    1.400   .     A
C201   H220    1.085   .     S
C202   O235    1.279   .     A
C202   C205    1.457   .     S
C202   O233    1.273   .     A
C203   O234    1.286   .     A
C203   O236    1.289   .     A
C204   C784    1.421   1_554 S
C204   O805    1.386   1_554 S
C206   C213    1.446   .     S
C207   N226    1.157   .     T
C208   N227    1.158   .     T
C208   C259    1.451   .     S
C209   N228    1.158   .     T
C209   C387    1.451   .     S
C210   N229    1.157   .     T
C210   C218    1.446   .     S
C211   N230    1.158   .     T
C212   C214    1.420   .     A
C212   O806    1.383   .     S
C213   N231    1.157   .     T
C214   C215    1.416   .     A
C214   C783    1.425   .     S
C215   C219    1.408   .     A
C216   C781    1.425   1_554 S
C216   C784    1.424   1_554 S
C217   C218    1.415   .     A
C217   C783    1.424   .     S
C217   C771    1.421   .     S
C218   C219    1.391   .     A
C219   H221    1.082   .     S
H222   O426    0.990   .     S
H223   O805    0.988   1_554 S
H224   O239    0.992   .     S
H225   O240    0.990   .     S
O232   Zn251   1.941   .     S
O232   Zn252   1.932   .     S
O232   Zn249   1.967   .     S
O232   Zn250   1.951   .     S
O233   Zn250   1.931   .     S
O234   Zn252   1.943   .     S
O235   Zn251   1.936   .     S
O236   Zn249   1.925   .     S
O238   C771    1.386   .     S
O238   H790    0.988   .     S
O239   C779    1.383   1_554 S
O240   C321    1.387   1_455 S
O241   Zn249   1.936   .     S
O242   Zn252   1.940   .     S
O243   Zn250   1.933   .     S
O244   Zn251   1.946   .     S
O245   Zn252   1.942   .     S
O246   Zn249   1.932   .     S
O247   Zn250   1.944   .     S
O248   Zn251   1.936   .     S
C253   O306    1.271   .     A
C253   C259    1.430   .     S
C253   O308    1.264   .     A
C254   C274    1.456   .     S
C254   C279    1.410   .     A
C254   C268    1.399   .     A
C255   C267    1.416   .     A
C255   C270    1.451   .     S
C255   C268    1.406   .     A
C256   O307    1.291   .     A
C256   C258    1.474   .     S
C256   O309    1.278   .     A
C257   C266    1.487   .     S
C257   C269    1.418   .     A
C257   C278    1.422   .     A
C258   C322    1.354   .     S
C258   O366    1.387   .     S
C260   C263    1.469   .     S
C260   C450    1.350   .     S
C260   O489    1.388   .     S
C261   C262    1.427   .     S
C262   O304    1.280   .     A
C262   O310    1.274   .     A
C263   O305    1.270   .     A
C263   O311    1.276   .     A
C264   C269    1.391   .     A
C264   C275    1.400   .     A
C264   H283    1.085   .     S
C265   O298    1.279   .     A
C265   C268    1.457   .     S
C265   O296    1.273   .     A
C266   O297    1.286   .     A
C266   O299    1.289   .     A
C267   C847    1.421   1_554 S
C267   O868    1.386   1_554 S
C269   C276    1.446   .     S
C270   N289    1.157   .     T
C271   N290    1.158   .     T
C271   C322    1.451   .     S
C272   N291    1.158   .     T
C272   C450    1.451   .     S
C273   N292    1.157   .     T
C273   C281    1.446   .     S
C274   N293    1.158   .     T
C275   C277    1.420   .     A
C275   O869    1.383   .     S
C276   N294    1.157   .     T
C277   C278    1.416   .     A
C277   C846    1.425   .     S
C278   C282    1.408   .     A
C279   C844    1.425   1_554 S
C279   C847    1.424   1_554 S
C280   C281    1.415   .     A
C280   C846    1.424   .     S
C280   C834    1.421   .     S
C281   C282    1.391   .     A
C282   H284    1.082   .     S
H285   O489    0.990   .     S
H286   O868    0.988   1_554 S
H287   O302    0.992   .     S
H288   O303    0.990   .     S
O295   Zn314   1.941   .     S
O295   Zn315   1.932   .     S
O295   Zn312   1.967   .     S
O295   Zn313   1.951   .     S
O296   Zn313   1.931   .     S
O297   Zn315   1.943   .     S
O298   Zn314   1.936   .     S
O299   Zn312   1.925   .     S
O301   C834    1.386   .     S
O301   H853    0.988   .     S
O302   C842    1.383   1_554 S
O304   Zn312   1.936   .     S
O305   Zn315   1.940   .     S
O306   Zn313   1.933   .     S
O307   Zn314   1.946   .     S
O308   Zn315   1.942   .     S
O309   Zn312   1.932   .     S
O310   Zn313   1.944   .     S
O311   Zn314   1.936   .     S
C316   O369    1.271   .     A
C316   C322    1.430   .     S
C316   O371    1.264   .     A
C317   C337    1.456   .     S
C317   C342    1.410   .     A
C317   C331    1.399   .     A
C318   C330    1.416   .     A
C318   C333    1.451   .     S
C318   C331    1.406   .     A
C319   O370    1.291   .     A
C319   C321    1.474   .     S
C319   O372    1.278   .     A
C320   C329    1.487   .     S
C320   C332    1.418   .     A
C320   C341    1.422   .     A
C321   C196    1.354   1_655 S
C321   O240    1.387   1_655 S
C323   C326    1.469   .     S
C323   C513    1.350   .     S
C323   O552    1.388   .     S
C324   C325    1.427   .     S
C325   O367    1.280   .     A
C325   O373    1.274   .     A
C326   O368    1.270   .     A
C326   O374    1.276   .     A
C327   C332    1.391   .     A
C327   C338    1.400   .     A
C327   H346    1.085   .     S
C328   O361    1.279   .     A
C328   C331    1.457   .     S
C328   O359    1.273   .     A
C329   O360    1.286   .     A
C329   O362    1.289   .     A
C330   C910    1.421   1_554 S
C330   O931    1.386   1_554 S
C332   C339    1.446   .     S
C333   N352    1.157   .     T
C334   N353    1.158   .     T
C334   C196    1.451   1_655 S
C335   N354    1.158   .     T
C335   C513    1.451   .     S
C336   N355    1.157   .     T
C336   C344    1.446   .     S
C337   N356    1.158   .     T
C338   C340    1.420   .     A
C338   O932    1.383   .     S
C339   N357    1.157   .     T
C340   C341    1.416   .     A
C340   C909    1.425   .     S
C341   C345    1.408   .     A
C342   C907    1.425   1_554 S
C342   C910    1.424   1_554 S
C343   C344    1.415   .     A
C343   C909    1.424   .     S
C343   C897    1.421   .     S
C344   C345    1.391   .     A
C345   H347    1.082   .     S
H348   O552    0.990   .     S
H349   O931    0.988   1_554 S
H350   O365    0.992   .     S
H351   O366    0.990   .     S
O358   Zn377   1.941   .     S
O358   Zn378   1.932   .     S
O358   Zn375   1.967   .     S
O358   Zn376   1.951   .     S
O359   Zn376   1.931   .     S
O360   Zn378   1.943   .     S
O361   Zn377   1.936   .     S
O362   Zn375   1.925   .     S
O364   C897    1.386   .     S
O364   H916    0.988   .     S
O365   C905    1.383   1_554 S
O367   Zn375   1.936   .     S
O368   Zn378   1.940   .     S
O369   Zn376   1.933   .     S
O370   Zn377   1.946   .     S
O371   Zn378   1.942   .     S
O372   Zn375   1.932   .     S
O373   Zn376   1.944   .     S
O374   Zn377   1.936   .     S
C379   O432    1.271   .     A
C379   C385    1.430   .     S
C379   O434    1.264   .     A
C380   C400    1.456   .     S
C380   C405    1.410   .     A
C380   C394    1.399   .     A
C381   C393    1.416   .     A
C381   C396    1.451   .     S
C381   C394    1.406   .     A
C382   O433    1.291   .     A
C382   C384    1.474   .     S
C382   O435    1.278   .     A
C383   C392    1.487   .     S
C383   C395    1.418   .     A
C383   C404    1.422   .     A
C384   C448    1.354   .     S
C384   O492    1.387   .     S
C385   C510    1.354   1_455 S
C385   C523    1.451   1_455 S
C386   C389    1.469   .     S
C386   C9      1.350   1_565 S
C386   O48     1.388   1_565 S
C387   C388    1.427   .     S
C388   O430    1.280   .     A
C388   O436    1.274   .     A
C389   O431    1.270   .     A
C389   O437    1.276   .     A
C390   C395    1.391   .     A
C390   C401    1.400   .     A
C390   H409    1.085   .     S
C391   O424    1.279   .     A
C391   C394    1.457   .     S
C391   O422    1.273   .     A
C392   O423    1.286   .     A
C392   O425    1.289   .     A
C393   C973    1.421   1_554 S
C393   O994    1.386   1_554 S
C395   C402    1.446   .     S
C396   N415    1.157   .     T
C397   N416    1.158   .     T
C397   C448    1.451   .     S
C398   N417    1.158   .     T
C398   C9      1.451   1_565 S
C399   N418    1.157   .     T
C399   C407    1.446   .     S
C400   N419    1.158   .     T
C401   C403    1.420   .     A
C401   O995    1.383   .     S
C402   N420    1.157   .     T
C403   C404    1.416   .     A
C403   C972    1.425   .     S
C404   C408    1.408   .     A
C405   C970    1.425   1_554 S
C405   C973    1.424   1_554 S
C406   C407    1.415   .     A
C406   C972    1.424   .     S
C406   C960    1.421   .     S
C407   C408    1.391   .     A
C408   H410    1.082   .     S
H411   O48     0.990   1_565 S
H412   O994    0.988   1_554 S
H413   O428    0.992   .     S
H414   O429    0.990   .     S
O421   Zn440   1.941   .     S
O421   Zn441   1.932   .     S
O421   Zn438   1.967   .     S
O421   Zn439   1.951   .     S
O422   Zn439   1.931   .     S
O423   Zn441   1.943   .     S
O424   Zn440   1.936   .     S
O425   Zn438   1.925   .     S
O427   C960    1.386   .     S
O427   H979    0.988   .     S
O428   C968    1.383   1_554 S
O429   C510    1.387   1_455 S
O430   Zn438   1.936   .     S
O431   Zn441   1.940   .     S
O432   Zn439   1.933   .     S
O433   Zn440   1.946   .     S
O434   Zn441   1.942   .     S
O435   Zn438   1.932   .     S
O436   Zn439   1.944   .     S
O437   Zn440   1.936   .     S
C442   O495    1.271   .     A
C442   C448    1.430   .     S
C442   O497    1.264   .     A
C443   C463    1.456   .     S
C443   C468    1.410   .     A
C443   C457    1.399   .     A
C444   C456    1.416   .     A
C444   C459    1.451   .     S
C444   C457    1.406   .     A
C445   O496    1.291   .     A
C445   C447    1.474   .     S
C445   O498    1.278   .     A
C446   C455    1.487   .     S
C446   C458    1.418   .     A
C446   C467    1.422   .     A
C447   C511    1.354   .     S
C447   O555    1.387   .     S
C449   C452    1.469   .     S
C449   C72     1.350   1_565 S
C449   O111    1.388   1_565 S
C450   C451    1.427   .     S
C451   O493    1.280   .     A
C451   O499    1.274   .     A
C452   O494    1.270   .     A
C452   O500    1.276   .     A
C453   C458    1.391   .     A
C453   C464    1.400   .     A
C453   H472    1.085   .     S
C454   O487    1.279   .     A
C454   C457    1.457   .     S
C454   O485    1.273   .     A
C455   O486    1.286   .     A
C455   O488    1.289   .     A
C456   C1036   1.421   1_554 S
C456   O1057   1.386   1_554 S
C458   C465    1.446   .     S
C459   N478    1.157   .     T
C460   N479    1.158   .     T
C460   C511    1.451   .     S
C461   N480    1.158   .     T
C461   C72     1.451   1_565 S
C462   N481    1.157   .     T
C462   C470    1.446   .     S
C463   N482    1.158   .     T
C464   C466    1.420   .     A
C464   O1058   1.383   .     S
C465   N483    1.157   .     T
C466   C467    1.416   .     A
C466   C1035   1.425   .     S
C467   C471    1.408   .     A
C468   C1033   1.425   1_554 S
C468   C1036   1.424   1_554 S
C469   C470    1.415   .     A
C469   C1035   1.424   .     S
C469   C1023   1.421   .     S
C470   C471    1.391   .     A
C471   H473    1.082   .     S
H474   O111    0.990   1_565 S
H475   O1057   0.988   1_554 S
H476   O491    0.992   .     S
H477   O492    0.990   .     S
O484   Zn503   1.941   .     S
O484   Zn504   1.932   .     S
O484   Zn501   1.967   .     S
O484   Zn502   1.951   .     S
O485   Zn502   1.931   .     S
O486   Zn504   1.943   .     S
O487   Zn503   1.936   .     S
O488   Zn501   1.925   .     S
O490   C1023   1.386   .     S
O490   H1042   0.988   .     S
O491   C1031   1.383   1_554 S
O493   Zn501   1.936   .     S
O494   Zn504   1.940   .     S
O495   Zn502   1.933   .     S
O496   Zn503   1.946   .     S
O497   Zn504   1.942   .     S
O498   Zn501   1.932   .     S
O499   Zn502   1.944   .     S
O500   Zn503   1.936   .     S
C505   O558    1.271   .     A
C505   C511    1.430   .     S
C505   O560    1.264   .     A
C506   C526    1.456   .     S
C506   C531    1.410   .     A
C506   C520    1.399   .     A
C507   C519    1.416   .     A
C507   C522    1.451   .     S
C507   C520    1.406   .     A
C508   O559    1.291   .     A
C508   C510    1.474   .     S
C508   O561    1.278   .     A
C509   C518    1.487   .     S
C509   C521    1.418   .     A
C509   C530    1.422   .     A
C510   C385    1.354   1_655 S
C510   O429    1.387   1_655 S
C512   C515    1.469   .     S
C512   C135    1.350   1_565 S
C512   O174    1.388   1_565 S
C513   C514    1.427   .     S
C514   O556    1.280   .     A
C514   O562    1.274   .     A
C515   O557    1.270   .     A
C515   O563    1.276   .     A
C516   C521    1.391   .     A
C516   C527    1.400   .     A
C516   H535    1.085   .     S
C517   O550    1.279   .     A
C517   C520    1.457   .     S
C517   O548    1.273   .     A
C518   O549    1.286   .     A
C518   O551    1.289   .     A
C519   C1099   1.421   1_554 S
C519   O1120   1.386   1_554 S
C521   C528    1.446   .     S
C522   N541    1.157   .     T
C523   N542    1.158   .     T
C523   C385    1.451   1_655 S
C524   N543    1.158   .     T
C524   C135    1.451   1_565 S
C525   N544    1.157   .     T
C525   C533    1.446   .     S
C526   N545    1.158   .     T
C527   C529    1.420   .     A
C527   O1121   1.383   .     S
C528   N546    1.157   .     T
C529   C530    1.416   .     A
C529   C1098   1.425   .     S
C530   C534    1.408   .     A
C531   C1096   1.425   1_554 S
C531   C1099   1.424   1_554 S
C532   C533    1.415   .     A
C532   C1098   1.424   .     S
C532   C1086   1.421   .     S
C533   C534    1.391   .     A
C534   H536    1.082   .     S
H537   O174    0.990   1_565 S
H538   O1120   0.988   1_554 S
H539   O554    0.992   .     S
H540   O555    0.990   .     S
O547   Zn566   1.941   .     S
O547   Zn567   1.932   .     S
O547   Zn564   1.967   .     S
O547   Zn565   1.951   .     S
O548   Zn565   1.931   .     S
O549   Zn567   1.943   .     S
O550   Zn566   1.936   .     S
O551   Zn564   1.925   .     S
O553   C1086   1.386   .     S
O553   H1105   0.988   .     S
O554   C1094   1.383   1_554 S
O556   Zn564   1.936   .     S
O557   Zn567   1.940   .     S
O558   Zn565   1.933   .     S
O559   Zn566   1.946   .     S
O560   Zn567   1.942   .     S
O561   Zn564   1.932   .     S
O562   Zn565   1.944   .     S
O563   Zn566   1.936   .     S
C568   O621    1.271   .     A
C568   C574    1.430   .     S
C568   O623    1.264   .     A
C569   C589    1.456   .     S
C569   C594    1.410   .     A
C569   C583    1.399   .     A
C570   C582    1.416   .     A
C570   C585    1.451   .     S
C570   C583    1.406   .     A
C571   O622    1.291   .     A
C571   C573    1.474   .     S
C571   O624    1.278   .     A
C572   C581    1.487   .     S
C572   C584    1.418   .     A
C572   C593    1.422   .     A
C573   C637    1.354   .     S
C573   O681    1.387   .     S
C574   C699    1.354   1_455 S
C574   C712    1.451   1_455 S
C575   C578    1.469   .     S
C575   C765    1.350   .     S
C575   O804    1.388   .     S
C576   C577    1.427   .     S
C576   C953    1.350   1_545 S
C576   C965    1.451   1_545 S
C577   O619    1.280   .     A
C577   O625    1.274   .     A
C578   O620    1.270   .     A
C578   O626    1.276   .     A
C579   C584    1.391   .     A
C579   C590    1.400   .     A
C579   H598    1.085   .     S
C580   O613    1.279   .     A
C580   C583    1.457   .     S
C580   O611    1.273   .     A
C581   O612    1.286   .     A
C581   O614    1.289   .     A
C584   C591    1.446   .     S
C585   N604    1.157   .     T
C586   N605    1.158   .     T
C586   C637    1.451   .     S
C587   N606    1.158   .     T
C587   C765    1.451   .     S
C588   N607    1.157   .     T
C588   C596    1.446   .     S
C589   N608    1.158   .     T
C590   C592    1.420   .     A
C590   O50     1.383   1_556 S
C591   N609    1.157   .     T
C592   C593    1.416   .     A
C592   C27     1.425   1_556 S
C593   C597    1.408   .     A
C595   C596    1.415   .     A
C595   C27     1.424   1_556 S
C595   C15     1.421   1_556 S
C596   C597    1.391   .     A
C597   H599    1.082   .     S
H600   O804    0.990   .     S
H602   O617    0.992   .     S
H603   O618    0.990   .     S
O610   Zn629   1.941   .     S
O610   Zn630   1.932   .     S
O610   Zn627   1.967   .     S
O610   Zn628   1.951   .     S
O611   Zn628   1.931   .     S
O612   Zn630   1.943   .     S
O613   Zn629   1.936   .     S
O614   Zn627   1.925   .     S
O615   C953    1.388   1_545 S
O615   H978    0.990   1_545 S
O616   C15     1.386   1_556 S
O616   H34     0.988   1_556 S
O618   C699    1.387   1_455 S
O619   Zn627   1.936   .     S
O620   Zn630   1.940   .     S
O621   Zn628   1.933   .     S
O622   Zn629   1.946   .     S
O623   Zn630   1.942   .     S
O624   Zn627   1.932   .     S
O625   Zn628   1.944   .     S
O626   Zn629   1.936   .     S
C631   O684    1.271   .     A
C631   C637    1.430   .     S
C631   O686    1.264   .     A
C632   C652    1.456   .     S
C632   C657    1.410   .     A
C632   C646    1.399   .     A
C633   C645    1.416   .     A
C633   C648    1.451   .     S
C633   C646    1.406   .     A
C634   O685    1.291   .     A
C634   C636    1.474   .     S
C634   O687    1.278   .     A
C635   C644    1.487   .     S
C635   C647    1.418   .     A
C635   C656    1.422   .     A
C636   C700    1.354   .     S
C636   O744    1.387   .     S
C638   C641    1.469   .     S
C638   C828    1.350   .     S
C638   O867    1.388   .     S
C639   C640    1.427   .     S
C639   C1016   1.350   1_545 S
C639   C1028   1.451   1_545 S
C640   O682    1.280   .     A
C640   O688    1.274   .     A
C641   O683    1.270   .     A
C641   O689    1.276   .     A
C642   C647    1.391   .     A
C642   C653    1.400   .     A
C642   H661    1.085   .     S
C643   O676    1.279   .     A
C643   C646    1.457   .     S
C643   O674    1.273   .     A
C644   O675    1.286   .     A
C644   O677    1.289   .     A
C647   C654    1.446   .     S
C648   N667    1.157   .     T
C649   N668    1.158   .     T
C649   C700    1.451   .     S
C650   N669    1.158   .     T
C650   C828    1.451   .     S
C651   N670    1.157   .     T
C651   C659    1.446   .     S
C652   N671    1.158   .     T
C653   C655    1.420   .     A
C653   O113    1.383   1_556 S
C654   N672    1.157   .     T
C655   C656    1.416   .     A
C655   C90     1.425   1_556 S
C656   C660    1.408   .     A
C658   C659    1.415   .     A
C658   C90     1.424   1_556 S
C658   C78     1.421   1_556 S
C659   C660    1.391   .     A
C660   H662    1.082   .     S
H663   O867    0.990   .     S
H665   O680    0.992   .     S
H666   O681    0.990   .     S
O673   Zn692   1.941   .     S
O673   Zn693   1.932   .     S
O673   Zn690   1.967   .     S
O673   Zn691   1.951   .     S
O674   Zn691   1.931   .     S
O675   Zn693   1.943   .     S
O676   Zn692   1.936   .     S
O677   Zn690   1.925   .     S
O678   C1016   1.388   1_545 S
O678   H1041   0.990   1_545 S
O679   C78     1.386   1_556 S
O679   H97     0.988   1_556 S
O682   Zn690   1.936   .     S
O683   Zn693   1.940   .     S
O684   Zn691   1.933   .     S
O685   Zn692   1.946   .     S
O686   Zn693   1.942   .     S
O687   Zn690   1.932   .     S
O688   Zn691   1.944   .     S
O689   Zn692   1.936   .     S
C694   O747    1.271   .     A
C694   C700    1.430   .     S
C694   O749    1.264   .     A
C695   C715    1.456   .     S
C695   C720    1.410   .     A
C695   C709    1.399   .     A
C696   C708    1.416   .     A
C696   C711    1.451   .     S
C696   C709    1.406   .     A
C697   O748    1.291   .     A
C697   C699    1.474   .     S
C697   O750    1.278   .     A
C698   C707    1.487   .     S
C698   C710    1.418   .     A
C698   C719    1.422   .     A
C699   C574    1.354   1_655 S
C699   O618    1.387   1_655 S
C701   C704    1.469   .     S
C701   C891    1.350   .     S
C701   O930    1.388   .     S
C702   C703    1.427   .     S
C702   C1079   1.350   1_545 S
C702   C1091   1.451   1_545 S
C703   O745    1.280   .     A
C703   O751    1.274   .     A
C704   O746    1.270   .     A
C704   O752    1.276   .     A
C705   C710    1.391   .     A
C705   C716    1.400   .     A
C705   H724    1.085   .     S
C706   O739    1.279   .     A
C706   C709    1.457   .     S
C706   O737    1.273   .     A
C707   O738    1.286   .     A
C707   O740    1.289   .     A
C710   C717    1.446   .     S
C711   N730    1.157   .     T
C712   N731    1.158   .     T
C712   C574    1.451   1_655 S
C713   N732    1.158   .     T
C713   C891    1.451   .     S
C714   N733    1.157   .     T
C714   C722    1.446   .     S
C715   N734    1.158   .     T
C716   C718    1.420   .     A
C716   O176    1.383   1_556 S
C717   N735    1.157   .     T
C718   C719    1.416   .     A
C718   C153    1.425   1_556 S
C719   C723    1.408   .     A
C721   C722    1.415   .     A
C721   C153    1.424   1_556 S
C721   C141    1.421   1_556 S
C722   C723    1.391   .     A
C723   H725    1.082   .     S
H726   O930    0.990   .     S
H728   O743    0.992   .     S
H729   O744    0.990   .     S
O736   Zn755   1.941   .     S
O736   Zn756   1.932   .     S
O736   Zn753   1.967   .     S
O736   Zn754   1.951   .     S
O737   Zn754   1.931   .     S
O738   Zn756   1.943   .     S
O739   Zn755   1.936   .     S
O740   Zn753   1.925   .     S
O741   C1079   1.388   1_545 S
O741   H1104   0.990   1_545 S
O742   C141    1.386   1_556 S
O742   H160    0.988   1_556 S
O745   Zn753   1.936   .     S
O746   Zn756   1.940   .     S
O747   Zn754   1.933   .     S
O748   Zn755   1.946   .     S
O749   Zn756   1.942   .     S
O750   Zn753   1.932   .     S
O751   Zn754   1.944   .     S
O752   Zn755   1.936   .     S
C757   O810    1.271   .     A
C757   C763    1.430   .     S
C757   O812    1.264   .     A
C758   C778    1.456   .     S
C758   C783    1.410   .     A
C758   C772    1.399   .     A
C759   C771    1.416   .     A
C759   C774    1.451   .     S
C759   C772    1.406   .     A
C760   O811    1.291   .     A
C760   C762    1.474   .     S
C760   O813    1.278   .     A
C761   C770    1.487   .     S
C761   C773    1.418   .     A
C761   C782    1.422   .     A
C762   C826    1.354   .     S
C762   O870    1.387   .     S
C763   C888    1.354   1_455 S
C763   C901    1.451   1_455 S
C764   C767    1.469   .     S
C764   C954    1.350   .     S
C764   O993    1.388   .     S
C765   C766    1.427   .     S
C766   O808    1.280   .     A
C766   O814    1.274   .     A
C767   O809    1.270   .     A
C767   O815    1.276   .     A
C768   C773    1.391   .     A
C768   C779    1.400   .     A
C768   H787    1.085   .     S
C769   O802    1.279   .     A
C769   C772    1.457   .     S
C769   O800    1.273   .     A
C770   O801    1.286   .     A
C770   O803    1.289   .     A
C773   C780    1.446   .     S
C774   N793    1.157   .     T
C775   N794    1.158   .     T
C775   C826    1.451   .     S
C776   N795    1.158   .     T
C776   C954    1.451   .     S
C777   N796    1.157   .     T
C777   C785    1.446   .     S
C778   N797    1.158   .     T
C779   C781    1.420   .     A
C779   O239    1.383   1_556 S
C780   N798    1.157   .     T
C781   C782    1.416   .     A
C781   C216    1.425   1_556 S
C782   C786    1.408   .     A
C784   C785    1.415   .     A
C784   C216    1.424   1_556 S
C784   C204    1.421   1_556 S
C785   C786    1.391   .     A
C786   H788    1.082   .     S
H789   O993    0.990   .     S
H791   O806    0.992   .     S
H792   O807    0.990   .     S
O799   Zn818   1.941   .     S
O799   Zn819   1.932   .     S
O799   Zn816   1.967   .     S
O799   Zn817   1.951   .     S
O800   Zn817   1.931   .     S
O801   Zn819   1.943   .     S
O802   Zn818   1.936   .     S
O803   Zn816   1.925   .     S
O805   C204    1.386   1_556 S
O805   H223    0.988   1_556 S
O807   C888    1.387   1_455 S
O808   Zn816   1.936   .     S
O809   Zn819   1.940   .     S
O810   Zn817   1.933   .     S
O811   Zn818   1.946   .     S
O812   Zn819   1.942   .     S
O813   Zn816   1.932   .     S
O814   Zn817   1.944   .     S
O815   Zn818   1.936   .     S
C820   O873    1.271   .     A
C820   C826    1.430   .     S
C820   O875    1.264   .     A
C821   C841    1.456   .     S
C821   C846    1.410   .     A
C821   C835    1.399   .     A
C822   C834    1.416   .     A
C822   C837    1.451   .     S
C822   C835    1.406   .     A
C823   O874    1.291   .     A
C823   C825    1.474   .     S
C823   O876    1.278   .     A
C824   C833    1.487   .     S
C824   C836    1.418   .     A
C824   C845    1.422   .     A
C825   C889    1.354   .     S
C825   O933    1.387   .     S
C827   C830    1.469   .     S
C827   C1017   1.350   .     S
C827   O1056   1.388   .     S
C828   C829    1.427   .     S
C829   O871    1.280   .     A
C829   O877    1.274   .     A
C830   O872    1.270   .     A
C830   O878    1.276   .     A
C831   C836    1.391   .     A
C831   C842    1.400   .     A
C831   H850    1.085   .     S
C832   O865    1.279   .     A
C832   C835    1.457   .     S
C832   O863    1.273   .     A
C833   O864    1.286   .     A
C833   O866    1.289   .     A
C836   C843    1.446   .     S
C837   N856    1.157   .     T
C838   N857    1.158   .     T
C838   C889    1.451   .     S
C839   N858    1.158   .     T
C839   C1017   1.451   .     S
C840   N859    1.157   .     T
C840   C848    1.446   .     S
C841   N860    1.158   .     T
C842   C844    1.420   .     A
C842   O302    1.383   1_556 S
C843   N861    1.157   .     T
C844   C845    1.416   .     A
C844   C279    1.425   1_556 S
C845   C849    1.408   .     A
C847   C848    1.415   .     A
C847   C279    1.424   1_556 S
C847   C267    1.421   1_556 S
C848   C849    1.391   .     A
C849   H851    1.082   .     S
H852   O1056   0.990   .     S
H854   O869    0.992   .     S
H855   O870    0.990   .     S
O862   Zn881   1.941   .     S
O862   Zn882   1.932   .     S
O862   Zn879   1.967   .     S
O862   Zn880   1.951   .     S
O863   Zn880   1.931   .     S
O864   Zn882   1.943   .     S
O865   Zn881   1.936   .     S
O866   Zn879   1.925   .     S
O868   C267    1.386   1_556 S
O868   H286    0.988   1_556 S
O871   Zn879   1.936   .     S
O872   Zn882   1.940   .     S
O873   Zn880   1.933   .     S
O874   Zn881   1.946   .     S
O875   Zn882   1.942   .     S
O876   Zn879   1.932   .     S
O877   Zn880   1.944   .     S
O878   Zn881   1.936   .     S
C883   O936    1.271   .     A
C883   C889    1.430   .     S
C883   O938    1.264   .     A
C884   C904    1.456   .     S
C884   C909    1.410   .     A
C884   C898    1.399   .     A
C885   C897    1.416   .     A
C885   C900    1.451   .     S
C885   C898    1.406   .     A
C886   O937    1.291   .     A
C886   C888    1.474   .     S
C886   O939    1.278   .     A
C887   C896    1.487   .     S
C887   C899    1.418   .     A
C887   C908    1.422   .     A
C888   C763    1.354   1_655 S
C888   O807    1.387   1_655 S
C890   C893    1.469   .     S
C890   C1080   1.350   .     S
C890   O1119   1.388   .     S
C891   C892    1.427   .     S
C892   O934    1.280   .     A
C892   O940    1.274   .     A
C893   O935    1.270   .     A
C893   O941    1.276   .     A
C894   C899    1.391   .     A
C894   C905    1.400   .     A
C894   H913    1.085   .     S
C895   O928    1.279   .     A
C895   C898    1.457   .     S
C895   O926    1.273   .     A
C896   O927    1.286   .     A
C896   O929    1.289   .     A
C899   C906    1.446   .     S
C900   N919    1.157   .     T
C901   N920    1.158   .     T
C901   C763    1.451   1_655 S
C902   N921    1.158   .     T
C902   C1080   1.451   .     S
C903   N922    1.157   .     T
C903   C911    1.446   .     S
C904   N923    1.158   .     T
C905   C907    1.420   .     A
C905   O365    1.383   1_556 S
C906   N924    1.157   .     T
C907   C908    1.416   .     A
C907   C342    1.425   1_556 S
C908   C912    1.408   .     A
C910   C911    1.415   .     A
C910   C342    1.424   1_556 S
C910   C330    1.421   1_556 S
C911   C912    1.391   .     A
C912   H914    1.082   .     S
H915   O1119   0.990   .     S
H917   O932    0.992   .     S
H918   O933    0.990   .     S
O925   Zn944   1.941   .     S
O925   Zn945   1.932   .     S
O925   Zn942   1.967   .     S
O925   Zn943   1.951   .     S
O926   Zn943   1.931   .     S
O927   Zn945   1.943   .     S
O928   Zn944   1.936   .     S
O929   Zn942   1.925   .     S
O931   C330    1.386   1_556 S
O931   H349    0.988   1_556 S
O934   Zn942   1.936   .     S
O935   Zn945   1.940   .     S
O936   Zn943   1.933   .     S
O937   Zn944   1.946   .     S
O938   Zn945   1.942   .     S
O939   Zn942   1.932   .     S
O940   Zn943   1.944   .     S
O941   Zn944   1.936   .     S
C946   O999    1.271   .     A
C946   C952    1.430   .     S
C946   O1001   1.264   .     A
C947   C967    1.456   .     S
C947   C972    1.410   .     A
C947   C961    1.399   .     A
C948   C960    1.416   .     A
C948   C963    1.451   .     S
C948   C961    1.406   .     A
C949   O1000   1.291   .     A
C949   C951    1.474   .     S
C949   O1002   1.278   .     A
C950   C959    1.487   .     S
C950   C962    1.418   .     A
C950   C971    1.422   .     A
C951   C1015   1.354   .     S
C951   O1059   1.387   .     S
C952   C1077   1.354   1_455 S
C952   C1090   1.451   1_455 S
C953   C956    1.469   .     S
C953   C576    1.350   1_565 S
C953   O615    1.388   1_565 S
C954   C955    1.427   .     S
C955   O997    1.280   .     A
C955   O1003   1.274   .     A
C956   O998    1.270   .     A
C956   O1004   1.276   .     A
C957   C962    1.391   .     A
C957   C968    1.400   .     A
C957   H976    1.085   .     S
C958   O991    1.279   .     A
C958   C961    1.457   .     S
C958   O989    1.273   .     A
C959   O990    1.286   .     A
C959   O992    1.289   .     A
C962   C969    1.446   .     S
C963   N982    1.157   .     T
C964   N983    1.158   .     T
C964   C1015   1.451   .     S
C965   N984    1.158   .     T
C965   C576    1.451   1_565 S
C966   N985    1.157   .     T
C966   C974    1.446   .     S
C967   N986    1.158   .     T
C968   C970    1.420   .     A
C968   O428    1.383   1_556 S
C969   N987    1.157   .     T
C970   C971    1.416   .     A
C970   C405    1.425   1_556 S
C971   C975    1.408   .     A
C973   C974    1.415   .     A
C973   C405    1.424   1_556 S
C973   C393    1.421   1_556 S
C974   C975    1.391   .     A
C975   H977    1.082   .     S
H978   O615    0.990   1_565 S
H980   O995    0.992   .     S
H981   O996    0.990   .     S
O988   Zn1007  1.941   .     S
O988   Zn1008  1.932   .     S
O988   Zn1005  1.967   .     S
O988   Zn1006  1.951   .     S
O989   Zn1006  1.931   .     S
O990   Zn1008  1.943   .     S
O991   Zn1007  1.936   .     S
O992   Zn1005  1.925   .     S
O994   C393    1.386   1_556 S
O994   H412    0.988   1_556 S
O996   C1077   1.387   1_455 S
O997   Zn1005  1.936   .     S
O998   Zn1008  1.940   .     S
O999   Zn1006  1.933   .     S
O1000  Zn1007  1.946   .     S
O1001  Zn1008  1.942   .     S
O1002  Zn1005  1.932   .     S
O1003  Zn1006  1.944   .     S
O1004  Zn1007  1.936   .     S
C1009  O1062   1.271   .     A
C1009  C1015   1.430   .     S
C1009  O1064   1.264   .     A
C1010  C1030   1.456   .     S
C1010  C1035   1.410   .     A
C1010  C1024   1.399   .     A
C1011  C1023   1.416   .     A
C1011  C1026   1.451   .     S
C1011  C1024   1.406   .     A
C1012  O1063   1.291   .     A
C1012  C1014   1.474   .     S
C1012  O1065   1.278   .     A
C1013  C1022   1.487   .     S
C1013  C1025   1.418   .     A
C1013  C1034   1.422   .     A
C1014  C1078   1.354   .     S
C1014  O1122   1.387   .     S
C1016  C1019   1.469   .     S
C1016  C639    1.350   1_565 S
C1016  O678    1.388   1_565 S
C1017  C1018   1.427   .     S
C1018  O1060   1.280   .     A
C1018  O1066   1.274   .     A
C1019  O1061   1.270   .     A
C1019  O1067   1.276   .     A
C1020  C1025   1.391   .     A
C1020  C1031   1.400   .     A
C1020  H1039   1.085   .     S
C1021  O1054   1.279   .     A
C1021  C1024   1.457   .     S
C1021  O1052   1.273   .     A
C1022  O1053   1.286   .     A
C1022  O1055   1.289   .     A
C1025  C1032   1.446   .     S
C1026  N1045   1.157   .     T
C1027  N1046   1.158   .     T
C1027  C1078   1.451   .     S
C1028  N1047   1.158   .     T
C1028  C639    1.451   1_565 S
C1029  N1048   1.157   .     T
C1029  C1037   1.446   .     S
C1030  N1049   1.158   .     T
C1031  C1033   1.420   .     A
C1031  O491    1.383   1_556 S
C1032  N1050   1.157   .     T
C1033  C1034   1.416   .     A
C1033  C468    1.425   1_556 S
C1034  C1038   1.408   .     A
C1036  C1037   1.415   .     A
C1036  C468    1.424   1_556 S
C1036  C456    1.421   1_556 S
C1037  C1038   1.391   .     A
C1038  H1040   1.082   .     S
H1041  O678    0.990   1_565 S
H1043  O1058   0.992   .     S
H1044  O1059   0.990   .     S
O1051  Zn1070  1.941   .     S
O1051  Zn1071  1.932   .     S
O1051  Zn1068  1.967   .     S
O1051  Zn1069  1.951   .     S
O1052  Zn1069  1.931   .     S
O1053  Zn1071  1.943   .     S
O1054  Zn1070  1.936   .     S
O1055  Zn1068  1.925   .     S
O1057  C456    1.386   1_556 S
O1057  H475    0.988   1_556 S
O1060  Zn1068  1.936   .     S
O1061  Zn1071  1.940   .     S
O1062  Zn1069  1.933   .     S
O1063  Zn1070  1.946   .     S
O1064  Zn1071  1.942   .     S
O1065  Zn1068  1.932   .     S
O1066  Zn1069  1.944   .     S
O1067  Zn1070  1.936   .     S
C1072  O1125   1.271   .     A
C1072  C1078   1.430   .     S
C1072  O1127   1.264   .     A
C1073  C1093   1.456   .     S
C1073  C1098   1.410   .     A
C1073  C1087   1.399   .     A
C1074  C1086   1.416   .     A
C1074  C1089   1.451   .     S
C1074  C1087   1.406   .     A
C1075  O1126   1.291   .     A
C1075  C1077   1.474   .     S
C1075  O1128   1.278   .     A
C1076  C1085   1.487   .     S
C1076  C1088   1.418   .     A
C1076  C1097   1.422   .     A
C1077  C952    1.354   1_655 S
C1077  O996    1.387   1_655 S
C1079  C1082   1.469   .     S
C1079  C702    1.350   1_565 S
C1079  O741    1.388   1_565 S
C1080  C1081   1.427   .     S
C1081  O1123   1.280   .     A
C1081  O1129   1.274   .     A
C1082  O1124   1.270   .     A
C1082  O1130   1.276   .     A
C1083  C1088   1.391   .     A
C1083  C1094   1.400   .     A
C1083  H1102   1.085   .     S
C1084  O1117   1.279   .     A
C1084  C1087   1.457   .     S
C1084  O1115   1.273   .     A
C1085  O1116   1.286   .     A
C1085  O1118   1.289   .     A
C1088  C1095   1.446   .     S
C1089  N1108   1.157   .     T
C1090  N1109   1.158   .     T
C1090  C952    1.451   1_655 S
C1091  N1110   1.158   .     T
C1091  C702    1.451   1_565 S
C1092  N1111   1.157   .     T
C1092  C1100   1.446   .     S
C1093  N1112   1.158   .     T
C1094  C1096   1.420   .     A
C1094  O554    1.383   1_556 S
C1095  N1113   1.157   .     T
C1096  C1097   1.416   .     A
C1096  C531    1.425   1_556 S
C1097  C1101   1.408   .     A
C1099  C1100   1.415   .     A
C1099  C531    1.424   1_556 S
C1099  C519    1.421   1_556 S
C1100  C1101   1.391   .     A
C1101  H1103   1.082   .     S
H1104  O741    0.990   1_565 S
H1106  O1121   0.992   .     S
H1107  O1122   0.990   .     S
O1114  Zn1133  1.941   .     S
O1114  Zn1134  1.932   .     S
O1114  Zn1131  1.967   .     S
O1114  Zn1132  1.951   .     S
O1115  Zn1132  1.931   .     S
O1116  Zn1134  1.943   .     S
O1117  Zn1133  1.936   .     S
O1118  Zn1131  1.925   .     S
O1120  C519    1.386   1_556 S
O1120  H538    0.988   1_556 S
O1123  Zn1131  1.936   .     S
O1124  Zn1134  1.940   .     S
O1125  Zn1132  1.933   .     S
O1126  Zn1133  1.946   .     S
O1127  Zn1134  1.942   .     S
O1128  Zn1131  1.932   .     S
O1129  Zn1132  1.944   .     S
O1130  Zn1133  1.936   .     S
