data_str_m1_o10_o18_pcu_sym.226
_audit_creation_date              2020-01-03
_audit_creation_method            'Materials Studio'
_symmetry_space_group_name_H-M    'P1'
_symmetry_Int_Tables_number       1
_symmetry_cell_setting            triclinic
loop_
_symmetry_equiv_pos_as_xyz
  x,y,z
_cell_length_a                    32.7757
_cell_length_b                    32.4661
_cell_length_c                    35.7729
_cell_angle_alpha                 98.3356
_cell_angle_beta                  72.9116
_cell_angle_gamma                 98.9186
loop_
_atom_site_label
_atom_site_type_symbol
_atom_site_fract_x
_atom_site_fract_y
_atom_site_fract_z
_atom_site_U_iso_or_equiv
_atom_site_adp_type
_atom_site_occupancy
C1     C     0.05276   0.15966   0.25883   0.00000  Uiso   1.00
C2     C     0.18463   0.12160   0.46304   0.00000  Uiso   1.00
C3     C     0.20196   0.09836   0.48304   0.00000  Uiso   1.00
C4     C     0.28105   0.17385   0.24146   0.00000  Uiso   1.00
C5     C     0.20106   0.11149   0.02248   0.00000  Uiso   1.00
C6     C     0.18259   0.14869   0.04163   0.00000  Uiso   1.00
C7     C     0.21659   0.08718   0.04379   0.00000  Uiso   1.00
C8     C     0.21360   0.09881   0.08331   0.00000  Uiso   1.00
C9     C     0.18229   0.16077   0.08123   0.00000  Uiso   1.00
C10    C     0.32719   0.17672   0.23807   0.00000  Uiso   1.00
C11    C     0.00785   0.15650   0.26199   0.00000  Uiso   1.00
C12    C     0.11406   0.23018   0.41948   0.00000  Uiso   1.00
C13    C     0.18126   0.32233   0.23839   0.00000  Uiso   1.00
C14    C     0.15145   0.01195   0.26173   0.00000  Uiso   1.00
C15    C     0.15592   0.05611   0.25878   0.00000  Uiso   1.00
C16    C     0.17694   0.27768   0.24137   0.00000  Uiso   1.00
C17    C     0.18829   0.14502   0.14411   0.00000  Uiso   1.00
C18    C     0.14577   0.18805   0.35602   0.00000  Uiso   1.00
C19    C     0.13816   0.19789   0.39874   0.00000  Uiso   1.00
C20    C     0.19659   0.13558   0.10185   0.00000  Uiso   1.00
C21    C     0.10924   0.24017   0.45962   0.00000  Uiso   1.00
C22    C     0.02440   0.20277   0.20798   0.00000  Uiso   1.00
C23    C     0.15639   0.17513   0.41870   0.00000  Uiso   1.00
C24    C     0.31344   0.12989   0.29238   0.00000  Uiso   1.00
C25    C     0.30067   0.08749   0.28200   0.00000  Uiso   1.00
C26    C     0.27377   0.06277   0.31060   0.00000  Uiso   1.00
C27    C     0.25982   0.08012   0.34966   0.00000  Uiso   1.00
C28    C     0.27293   0.12216   0.36025   0.00000  Uiso   1.00
C29    C     0.29973   0.14702   0.33174   0.00000  Uiso   1.00
C30    C     0.22055   0.06002   0.46148   0.00000  Uiso   1.00
C31    C     0.26526   0.05918   0.44990   0.00000  Uiso   1.00
C32    C     0.28281   0.02335   0.42866   0.00000  Uiso   1.00
C33    C     0.25589   0.32161   0.41878   0.00000  Uiso   1.00
C34    C     0.15026   0.18322   0.45956   0.00000  Uiso   1.00
C35    C     0.21138   0.32233   0.43007   0.00000  Uiso   1.00
C36    C     0.19369   0.02479   0.45127   0.00000  Uiso   1.00
C37    C     0.12755   0.21732   0.47965   0.00000  Uiso   1.00
C38    C     0.16682   0.15899   0.48073   0.00000  Uiso   1.00
C39    C     0.16420   0.17190   0.02103   0.00000  Uiso   1.00
C40    C     0.14197   0.20677   0.03969   0.00000  Uiso   1.00
C41    C     0.12353   0.22851   0.01946   0.00000  Uiso   1.00
H42    H     0.10630   0.25462   0.03510   0.00000  Uiso   1.00
H43    H     0.13698   0.21769   0.07037   0.00000  Uiso   1.00
H44    H     0.18450   0.10860   0.43361   0.00000  Uiso   1.00
H45    H     0.08180   0.21032   0.16711   0.00000  Uiso   1.00
H46    H     0.31115   0.07385   0.25178   0.00000  Uiso   1.00
H47    H     0.26362   0.03021   0.30247   0.00000  Uiso   1.00
H48    H     0.23887   0.06099   0.37169   0.00000  Uiso   1.00
H49    H     0.26225   0.13550   0.39053   0.00000  Uiso   1.00
H50    H     0.30948   0.17963   0.34017   0.00000  Uiso   1.00
H51    H     0.28639   0.08630   0.45718   0.00000  Uiso   1.00
H52    H     0.31728   0.02282   0.41976   0.00000  Uiso   1.00
H53    H     0.22980   0.05825   0.03054   0.00000  Uiso   1.00
H54    H     0.26953   0.29392   0.40230   0.00000  Uiso   1.00
H55    H     0.19063   0.29522   0.42225   0.00000  Uiso   1.00
H56    H     0.15917   0.02508   0.45972   0.00000  Uiso   1.00
H57    H     0.20889   0.00329   0.21708   0.00000  Uiso   1.00
H58    H     0.12324   0.33169   0.28286   0.00000  Uiso   1.00
H59    H     0.16993   0.18887   0.09757   0.00000  Uiso   1.00
H60    H     0.22404   0.07882   0.09962   0.00000  Uiso   1.00
H61    H     0.09145   0.26601   0.47496   0.00000  Uiso   1.00
H62    H     0.09986   0.24837   0.40456   0.00000  Uiso   1.00
H63    H     0.17640   0.15206   0.40132   0.00000  Uiso   1.00
O64    O     0.16667   0.16667   0.25000   0.00000  Uiso   1.00
O65    O     0.15693   0.12393   0.16625   0.00000  Uiso   1.00
O66    O     0.12687   0.20646   0.33749   0.00000  Uiso   1.00
O67    O     0.21088   0.17493   0.15877   0.00000  Uiso   1.00
O68    O     0.17198   0.16135   0.33749   0.00000  Uiso   1.00
O69    O     0.01419   0.23519   0.20161   0.00000  Uiso   1.00
O70    O     0.06432   0.19001   0.18655   0.00000  Uiso   1.00
O71    O     0.17849   0.08101   0.27820   0.00000  Uiso   1.00
O72    O     0.14581   0.26136   0.26767   0.00000  Uiso   1.00
O73    O     0.07452   0.13251   0.23607   0.00000  Uiso   1.00
O74    O     0.26785   0.19179   0.21805   0.00000  Uiso   1.00
O75    O     0.06990   0.18960   0.27820   0.00000  Uiso   1.00
O76    O     0.25440   0.15277   0.26767   0.00000  Uiso   1.00
O77    O     0.13800   0.06903   0.23607   0.00000  Uiso   1.00
O78    O     0.20437   0.25527   0.21805   0.00000  Uiso   1.00
Zn79   Zn    0.19244   0.14090   0.28277   0.00000  Uiso   1.00
Zn80   Zn    0.13459   0.12378   0.22257   0.00000  Uiso   1.00
Zn81   Zn    0.21166   0.19664   0.21188   0.00000  Uiso   1.00
Zn82   Zn    0.12798   0.20535   0.28277   0.00000  Uiso   1.00
C83    C     0.38609   0.15966   0.25883   0.00000  Uiso   1.00
C84    C     0.51796   0.12160   0.46304   0.00000  Uiso   1.00
C85    C     0.53530   0.09836   0.48304   0.00000  Uiso   1.00
C86    C     0.61438   0.17385   0.24146   0.00000  Uiso   1.00
C87    C     0.53439   0.11149   0.02248   0.00000  Uiso   1.00
C88    C     0.51592   0.14869   0.04163   0.00000  Uiso   1.00
C89    C     0.54992   0.08718   0.04379   0.00000  Uiso   1.00
C90    C     0.54694   0.09881   0.08331   0.00000  Uiso   1.00
C91    C     0.51562   0.16077   0.08123   0.00000  Uiso   1.00
C92    C     0.66052   0.17672   0.23807   0.00000  Uiso   1.00
C93    C     0.34118   0.15650   0.26199   0.00000  Uiso   1.00
C94    C     0.44739   0.23018   0.41948   0.00000  Uiso   1.00
C95    C     0.51459   0.32233   0.23839   0.00000  Uiso   1.00
C96    C     0.48478   0.01195   0.26173   0.00000  Uiso   1.00
C97    C     0.48925   0.05611   0.25878   0.00000  Uiso   1.00
C98    C     0.51027   0.27768   0.24137   0.00000  Uiso   1.00
C99    C     0.52162   0.14502   0.14411   0.00000  Uiso   1.00
C100   C     0.47911   0.18805   0.35602   0.00000  Uiso   1.00
C101   C     0.47150   0.19789   0.39874   0.00000  Uiso   1.00
C102   C     0.52992   0.13558   0.10185   0.00000  Uiso   1.00
C103   C     0.44257   0.24017   0.45962   0.00000  Uiso   1.00
C104   C     0.35774   0.20277   0.20798   0.00000  Uiso   1.00
C105   C     0.48972   0.17513   0.41870   0.00000  Uiso   1.00
C106   C     0.64677   0.12989   0.29238   0.00000  Uiso   1.00
C107   C     0.63401   0.08749   0.28200   0.00000  Uiso   1.00
C108   C     0.60710   0.06277   0.31060   0.00000  Uiso   1.00
C109   C     0.59315   0.08012   0.34966   0.00000  Uiso   1.00
C110   C     0.60626   0.12216   0.36025   0.00000  Uiso   1.00
C111   C     0.63306   0.14702   0.33174   0.00000  Uiso   1.00
C112   C     0.55389   0.06002   0.46148   0.00000  Uiso   1.00
C113   C     0.59859   0.05918   0.44990   0.00000  Uiso   1.00
C114   C     0.61614   0.02335   0.42866   0.00000  Uiso   1.00
C115   C     0.58923   0.32161   0.41878   0.00000  Uiso   1.00
C116   C     0.48360   0.18322   0.45956   0.00000  Uiso   1.00
C117   C     0.54472   0.32233   0.43007   0.00000  Uiso   1.00
C118   C     0.52703   0.02479   0.45127   0.00000  Uiso   1.00
C119   C     0.46088   0.21732   0.47965   0.00000  Uiso   1.00
C120   C     0.50015   0.15899   0.48073   0.00000  Uiso   1.00
C121   C     0.49754   0.17190   0.02103   0.00000  Uiso   1.00
C122   C     0.47530   0.20677   0.03969   0.00000  Uiso   1.00
C123   C     0.45686   0.22851   0.01946   0.00000  Uiso   1.00
H124   H     0.43963   0.25462   0.03510   0.00000  Uiso   1.00
H125   H     0.47031   0.21769   0.07037   0.00000  Uiso   1.00
H126   H     0.51783   0.10860   0.43361   0.00000  Uiso   1.00
H127   H     0.41513   0.21032   0.16711   0.00000  Uiso   1.00
H128   H     0.64448   0.07385   0.25178   0.00000  Uiso   1.00
H129   H     0.59696   0.03021   0.30247   0.00000  Uiso   1.00
H130   H     0.57220   0.06099   0.37169   0.00000  Uiso   1.00
H131   H     0.59558   0.13550   0.39053   0.00000  Uiso   1.00
H132   H     0.64281   0.17963   0.34017   0.00000  Uiso   1.00
H133   H     0.61973   0.08630   0.45718   0.00000  Uiso   1.00
H134   H     0.65062   0.02282   0.41976   0.00000  Uiso   1.00
H135   H     0.56313   0.05825   0.03054   0.00000  Uiso   1.00
H136   H     0.60286   0.29392   0.40230   0.00000  Uiso   1.00
H137   H     0.52397   0.29522   0.42225   0.00000  Uiso   1.00
H138   H     0.49251   0.02508   0.45972   0.00000  Uiso   1.00
H139   H     0.54223   0.00329   0.21708   0.00000  Uiso   1.00
H140   H     0.45658   0.33169   0.28286   0.00000  Uiso   1.00
H141   H     0.50326   0.18887   0.09757   0.00000  Uiso   1.00
H142   H     0.55737   0.07882   0.09962   0.00000  Uiso   1.00
H143   H     0.42478   0.26601   0.47496   0.00000  Uiso   1.00
H144   H     0.43319   0.24837   0.40456   0.00000  Uiso   1.00
H145   H     0.50973   0.15206   0.40132   0.00000  Uiso   1.00
O146   O     0.50000   0.16667   0.25000   0.00000  Uiso   1.00
O147   O     0.49027   0.12393   0.16625   0.00000  Uiso   1.00
O148   O     0.46020   0.20646   0.33749   0.00000  Uiso   1.00
O149   O     0.54421   0.17493   0.15877   0.00000  Uiso   1.00
O150   O     0.50532   0.16135   0.33749   0.00000  Uiso   1.00
O151   O     0.34752   0.23519   0.20161   0.00000  Uiso   1.00
O152   O     0.39765   0.19001   0.18655   0.00000  Uiso   1.00
O153   O     0.51182   0.08101   0.27820   0.00000  Uiso   1.00
O154   O     0.47914   0.26136   0.26767   0.00000  Uiso   1.00
O155   O     0.40785   0.13251   0.23607   0.00000  Uiso   1.00
O156   O     0.60119   0.19179   0.21805   0.00000  Uiso   1.00
O157   O     0.40323   0.18960   0.27820   0.00000  Uiso   1.00
O158   O     0.58773   0.15277   0.26767   0.00000  Uiso   1.00
O159   O     0.47133   0.06903   0.23607   0.00000  Uiso   1.00
O160   O     0.53771   0.25527   0.21805   0.00000  Uiso   1.00
Zn161  Zn    0.52577   0.14090   0.28277   0.00000  Uiso   1.00
Zn162  Zn    0.46792   0.12378   0.22257   0.00000  Uiso   1.00
Zn163  Zn    0.54500   0.19664   0.21188   0.00000  Uiso   1.00
Zn164  Zn    0.46131   0.20535   0.28277   0.00000  Uiso   1.00
C165   C     0.71943   0.15966   0.25883   0.00000  Uiso   1.00
C166   C     0.85129   0.12160   0.46304   0.00000  Uiso   1.00
C167   C     0.86863   0.09836   0.48304   0.00000  Uiso   1.00
C168   C     0.94771   0.17385   0.24146   0.00000  Uiso   1.00
C169   C     0.86773   0.11149   0.02248   0.00000  Uiso   1.00
C170   C     0.84926   0.14869   0.04163   0.00000  Uiso   1.00
C171   C     0.88326   0.08718   0.04379   0.00000  Uiso   1.00
C172   C     0.88027   0.09881   0.08331   0.00000  Uiso   1.00
C173   C     0.84895   0.16077   0.08123   0.00000  Uiso   1.00
C174   C     0.99385   0.17672   0.23807   0.00000  Uiso   1.00
C175   C     0.67451   0.15650   0.26199   0.00000  Uiso   1.00
C176   C     0.78073   0.23018   0.41948   0.00000  Uiso   1.00
C177   C     0.84793   0.32233   0.23839   0.00000  Uiso   1.00
C178   C     0.81811   0.01195   0.26173   0.00000  Uiso   1.00
C179   C     0.82258   0.05611   0.25878   0.00000  Uiso   1.00
C180   C     0.84361   0.27768   0.24137   0.00000  Uiso   1.00
C181   C     0.85495   0.14502   0.14411   0.00000  Uiso   1.00
C182   C     0.81244   0.18805   0.35602   0.00000  Uiso   1.00
C183   C     0.80483   0.19789   0.39874   0.00000  Uiso   1.00
C184   C     0.86326   0.13558   0.10185   0.00000  Uiso   1.00
C185   C     0.77591   0.24017   0.45962   0.00000  Uiso   1.00
C186   C     0.69107   0.20277   0.20798   0.00000  Uiso   1.00
C187   C     0.82305   0.17513   0.41870   0.00000  Uiso   1.00
C188   C     0.98010   0.12989   0.29238   0.00000  Uiso   1.00
C189   C     0.96734   0.08749   0.28200   0.00000  Uiso   1.00
C190   C     0.94043   0.06277   0.31060   0.00000  Uiso   1.00
C191   C     0.92648   0.08012   0.34966   0.00000  Uiso   1.00
C192   C     0.93959   0.12216   0.36025   0.00000  Uiso   1.00
C193   C     0.96639   0.14702   0.33174   0.00000  Uiso   1.00
C194   C     0.88722   0.06002   0.46148   0.00000  Uiso   1.00
C195   C     0.93192   0.05918   0.44990   0.00000  Uiso   1.00
C196   C     0.94948   0.02335   0.42866   0.00000  Uiso   1.00
C197   C     0.92256   0.32161   0.41878   0.00000  Uiso   1.00
C198   C     0.81693   0.18322   0.45956   0.00000  Uiso   1.00
C199   C     0.87805   0.32233   0.43007   0.00000  Uiso   1.00
C200   C     0.86036   0.02479   0.45127   0.00000  Uiso   1.00
C201   C     0.79421   0.21732   0.47965   0.00000  Uiso   1.00
C202   C     0.83348   0.15899   0.48073   0.00000  Uiso   1.00
C203   C     0.83087   0.17190   0.02103   0.00000  Uiso   1.00
C204   C     0.80863   0.20677   0.03969   0.00000  Uiso   1.00
C205   C     0.79020   0.22851   0.01946   0.00000  Uiso   1.00
H206   H     0.77296   0.25462   0.03510   0.00000  Uiso   1.00
H207   H     0.80364   0.21769   0.07037   0.00000  Uiso   1.00
H208   H     0.85116   0.10860   0.43361   0.00000  Uiso   1.00
H209   H     0.74846   0.21032   0.16711   0.00000  Uiso   1.00
H210   H     0.97781   0.07385   0.25178   0.00000  Uiso   1.00
H211   H     0.93029   0.03021   0.30247   0.00000  Uiso   1.00
H212   H     0.90553   0.06099   0.37169   0.00000  Uiso   1.00
H213   H     0.92891   0.13550   0.39053   0.00000  Uiso   1.00
H214   H     0.97614   0.17963   0.34017   0.00000  Uiso   1.00
H215   H     0.95306   0.08630   0.45718   0.00000  Uiso   1.00
H216   H     0.98395   0.02282   0.41976   0.00000  Uiso   1.00
H217   H     0.89647   0.05825   0.03054   0.00000  Uiso   1.00
H218   H     0.93619   0.29392   0.40230   0.00000  Uiso   1.00
H219   H     0.85730   0.29522   0.42225   0.00000  Uiso   1.00
H220   H     0.82584   0.02508   0.45972   0.00000  Uiso   1.00
H221   H     0.87556   0.00329   0.21708   0.00000  Uiso   1.00
H222   H     0.78991   0.33169   0.28286   0.00000  Uiso   1.00
H223   H     0.83659   0.18887   0.09757   0.00000  Uiso   1.00
H224   H     0.89070   0.07882   0.09962   0.00000  Uiso   1.00
H225   H     0.75812   0.26601   0.47496   0.00000  Uiso   1.00
H226   H     0.76653   0.24837   0.40456   0.00000  Uiso   1.00
H227   H     0.84306   0.15206   0.40132   0.00000  Uiso   1.00
O228   O     0.83333   0.16667   0.25000   0.00000  Uiso   1.00
O229   O     0.82360   0.12393   0.16625   0.00000  Uiso   1.00
O230   O     0.79354   0.20646   0.33749   0.00000  Uiso   1.00
O231   O     0.87755   0.17493   0.15877   0.00000  Uiso   1.00
O232   O     0.83865   0.16135   0.33749   0.00000  Uiso   1.00
O233   O     0.68086   0.23519   0.20161   0.00000  Uiso   1.00
O234   O     0.73099   0.19001   0.18655   0.00000  Uiso   1.00
O235   O     0.84515   0.08101   0.27820   0.00000  Uiso   1.00
O236   O     0.81247   0.26136   0.26767   0.00000  Uiso   1.00
O237   O     0.74119   0.13251   0.23607   0.00000  Uiso   1.00
O238   O     0.93452   0.19179   0.21805   0.00000  Uiso   1.00
O239   O     0.73656   0.18960   0.27820   0.00000  Uiso   1.00
O240   O     0.92106   0.15277   0.26767   0.00000  Uiso   1.00
O241   O     0.80467   0.06903   0.23607   0.00000  Uiso   1.00
O242   O     0.87104   0.25527   0.21805   0.00000  Uiso   1.00
Zn243  Zn    0.85910   0.14090   0.28277   0.00000  Uiso   1.00
Zn244  Zn    0.80125   0.12378   0.22257   0.00000  Uiso   1.00
Zn245  Zn    0.87833   0.19664   0.21188   0.00000  Uiso   1.00
Zn246  Zn    0.79465   0.20535   0.28277   0.00000  Uiso   1.00
C247   C     0.05276   0.49300   0.25883   0.00000  Uiso   1.00
C248   C     0.18463   0.45494   0.46304   0.00000  Uiso   1.00
C249   C     0.20196   0.43169   0.48304   0.00000  Uiso   1.00
C250   C     0.28105   0.50719   0.24146   0.00000  Uiso   1.00
C251   C     0.20106   0.44483   0.02248   0.00000  Uiso   1.00
C252   C     0.18259   0.48202   0.04163   0.00000  Uiso   1.00
C253   C     0.21659   0.42051   0.04379   0.00000  Uiso   1.00
C254   C     0.21360   0.43214   0.08331   0.00000  Uiso   1.00
C255   C     0.18229   0.49411   0.08123   0.00000  Uiso   1.00
C256   C     0.32719   0.51006   0.23807   0.00000  Uiso   1.00
C257   C     0.00785   0.48983   0.26199   0.00000  Uiso   1.00
C258   C     0.11406   0.56351   0.41948   0.00000  Uiso   1.00
C259   C     0.18126   0.65566   0.23839   0.00000  Uiso   1.00
C260   C     0.15145   0.34529   0.26173   0.00000  Uiso   1.00
C261   C     0.15592   0.38944   0.25878   0.00000  Uiso   1.00
C262   C     0.17694   0.61101   0.24137   0.00000  Uiso   1.00
C263   C     0.18829   0.47835   0.14411   0.00000  Uiso   1.00
C264   C     0.14577   0.52138   0.35602   0.00000  Uiso   1.00
C265   C     0.13816   0.53123   0.39874   0.00000  Uiso   1.00
C266   C     0.19659   0.46891   0.10185   0.00000  Uiso   1.00
C267   C     0.10924   0.57351   0.45962   0.00000  Uiso   1.00
C268   C     0.02440   0.53610   0.20798   0.00000  Uiso   1.00
C269   C     0.15639   0.50847   0.41870   0.00000  Uiso   1.00
C270   C     0.31344   0.46323   0.29238   0.00000  Uiso   1.00
C271   C     0.30067   0.42082   0.28200   0.00000  Uiso   1.00
C272   C     0.27377   0.39611   0.31060   0.00000  Uiso   1.00
C273   C     0.25982   0.41345   0.34966   0.00000  Uiso   1.00
C274   C     0.27293   0.45549   0.36025   0.00000  Uiso   1.00
C275   C     0.29973   0.48036   0.33174   0.00000  Uiso   1.00
C276   C     0.22055   0.39335   0.46148   0.00000  Uiso   1.00
C277   C     0.26526   0.39252   0.44990   0.00000  Uiso   1.00
C278   C     0.28281   0.35669   0.42866   0.00000  Uiso   1.00
C279   C     0.25589   0.65495   0.41878   0.00000  Uiso   1.00
C280   C     0.15026   0.51656   0.45956   0.00000  Uiso   1.00
C281   C     0.21138   0.65567   0.43007   0.00000  Uiso   1.00
C282   C     0.19369   0.35812   0.45127   0.00000  Uiso   1.00
C283   C     0.12755   0.55066   0.47965   0.00000  Uiso   1.00
C284   C     0.16682   0.49232   0.48073   0.00000  Uiso   1.00
C285   C     0.16420   0.50523   0.02103   0.00000  Uiso   1.00
C286   C     0.14197   0.54011   0.03969   0.00000  Uiso   1.00
C287   C     0.12353   0.56184   0.01946   0.00000  Uiso   1.00
H288   H     0.10630   0.58795   0.03510   0.00000  Uiso   1.00
H289   H     0.13698   0.55102   0.07037   0.00000  Uiso   1.00
H290   H     0.18450   0.44193   0.43361   0.00000  Uiso   1.00
H291   H     0.08180   0.54365   0.16711   0.00000  Uiso   1.00
H292   H     0.31115   0.40718   0.25178   0.00000  Uiso   1.00
H293   H     0.26362   0.36354   0.30247   0.00000  Uiso   1.00
H294   H     0.23887   0.39432   0.37169   0.00000  Uiso   1.00
H295   H     0.26225   0.46884   0.39053   0.00000  Uiso   1.00
H296   H     0.30948   0.51297   0.34017   0.00000  Uiso   1.00
H297   H     0.28639   0.41963   0.45718   0.00000  Uiso   1.00
H298   H     0.31728   0.35615   0.41976   0.00000  Uiso   1.00
H299   H     0.22980   0.39159   0.03054   0.00000  Uiso   1.00
H300   H     0.26953   0.62726   0.40230   0.00000  Uiso   1.00
H301   H     0.19063   0.62855   0.42225   0.00000  Uiso   1.00
H302   H     0.15917   0.35841   0.45972   0.00000  Uiso   1.00
H303   H     0.20889   0.33662   0.21708   0.00000  Uiso   1.00
H304   H     0.12324   0.66502   0.28286   0.00000  Uiso   1.00
H305   H     0.16993   0.52221   0.09757   0.00000  Uiso   1.00
H306   H     0.22404   0.41215   0.09962   0.00000  Uiso   1.00
H307   H     0.09145   0.59934   0.47496   0.00000  Uiso   1.00
H308   H     0.09986   0.58170   0.40456   0.00000  Uiso   1.00
H309   H     0.17640   0.48539   0.40132   0.00000  Uiso   1.00
O310   O     0.16667   0.50000   0.25000   0.00000  Uiso   1.00
O311   O     0.15693   0.45726   0.16625   0.00000  Uiso   1.00
O312   O     0.12687   0.53979   0.33749   0.00000  Uiso   1.00
O313   O     0.21088   0.50826   0.15877   0.00000  Uiso   1.00
O314   O     0.17198   0.49468   0.33749   0.00000  Uiso   1.00
O315   O     0.01419   0.56853   0.20161   0.00000  Uiso   1.00
O316   O     0.06432   0.52334   0.18655   0.00000  Uiso   1.00
O317   O     0.17849   0.41434   0.27820   0.00000  Uiso   1.00
O318   O     0.14581   0.59469   0.26767   0.00000  Uiso   1.00
O319   O     0.07452   0.46584   0.23607   0.00000  Uiso   1.00
O320   O     0.26785   0.52512   0.21805   0.00000  Uiso   1.00
O321   O     0.06990   0.52293   0.27820   0.00000  Uiso   1.00
O322   O     0.25440   0.48610   0.26767   0.00000  Uiso   1.00
O323   O     0.13800   0.40236   0.23607   0.00000  Uiso   1.00
O324   O     0.20437   0.58860   0.21805   0.00000  Uiso   1.00
Zn325  Zn    0.19244   0.47423   0.28277   0.00000  Uiso   1.00
Zn326  Zn    0.13459   0.45711   0.22257   0.00000  Uiso   1.00
Zn327  Zn    0.21166   0.52997   0.21188   0.00000  Uiso   1.00
Zn328  Zn    0.12798   0.53868   0.28277   0.00000  Uiso   1.00
C329   C     0.38609   0.49300   0.25883   0.00000  Uiso   1.00
C330   C     0.51796   0.45494   0.46304   0.00000  Uiso   1.00
C331   C     0.53530   0.43169   0.48304   0.00000  Uiso   1.00
C332   C     0.61438   0.50719   0.24146   0.00000  Uiso   1.00
C333   C     0.53439   0.44483   0.02248   0.00000  Uiso   1.00
C334   C     0.51592   0.48202   0.04163   0.00000  Uiso   1.00
C335   C     0.54992   0.42051   0.04379   0.00000  Uiso   1.00
C336   C     0.54694   0.43214   0.08331   0.00000  Uiso   1.00
C337   C     0.51562   0.49411   0.08123   0.00000  Uiso   1.00
C338   C     0.66052   0.51006   0.23807   0.00000  Uiso   1.00
C339   C     0.34118   0.48983   0.26199   0.00000  Uiso   1.00
C340   C     0.44739   0.56351   0.41948   0.00000  Uiso   1.00
C341   C     0.51459   0.65566   0.23839   0.00000  Uiso   1.00
C342   C     0.48478   0.34529   0.26173   0.00000  Uiso   1.00
C343   C     0.48925   0.38944   0.25878   0.00000  Uiso   1.00
C344   C     0.51027   0.61101   0.24137   0.00000  Uiso   1.00
C345   C     0.52162   0.47835   0.14411   0.00000  Uiso   1.00
C346   C     0.47911   0.52138   0.35602   0.00000  Uiso   1.00
C347   C     0.47150   0.53123   0.39874   0.00000  Uiso   1.00
C348   C     0.52992   0.46891   0.10185   0.00000  Uiso   1.00
C349   C     0.44257   0.57351   0.45962   0.00000  Uiso   1.00
C350   C     0.35774   0.53610   0.20798   0.00000  Uiso   1.00
C351   C     0.48972   0.50847   0.41870   0.00000  Uiso   1.00
C352   C     0.64677   0.46323   0.29238   0.00000  Uiso   1.00
C353   C     0.63401   0.42082   0.28200   0.00000  Uiso   1.00
C354   C     0.60710   0.39611   0.31060   0.00000  Uiso   1.00
C355   C     0.59315   0.41345   0.34966   0.00000  Uiso   1.00
C356   C     0.60626   0.45549   0.36025   0.00000  Uiso   1.00
C357   C     0.63306   0.48036   0.33174   0.00000  Uiso   1.00
C358   C     0.55389   0.39335   0.46148   0.00000  Uiso   1.00
C359   C     0.59859   0.39252   0.44990   0.00000  Uiso   1.00
C360   C     0.61614   0.35669   0.42866   0.00000  Uiso   1.00
C361   C     0.58923   0.65495   0.41878   0.00000  Uiso   1.00
C362   C     0.48360   0.51656   0.45956   0.00000  Uiso   1.00
C363   C     0.54472   0.65567   0.43007   0.00000  Uiso   1.00
C364   C     0.52703   0.35812   0.45127   0.00000  Uiso   1.00
C365   C     0.46088   0.55066   0.47965   0.00000  Uiso   1.00
C366   C     0.50015   0.49232   0.48073   0.00000  Uiso   1.00
C367   C     0.49754   0.50523   0.02103   0.00000  Uiso   1.00
C368   C     0.47530   0.54011   0.03969   0.00000  Uiso   1.00
C369   C     0.45686   0.56184   0.01946   0.00000  Uiso   1.00
H370   H     0.43963   0.58795   0.03510   0.00000  Uiso   1.00
H371   H     0.47031   0.55102   0.07037   0.00000  Uiso   1.00
H372   H     0.51783   0.44193   0.43361   0.00000  Uiso   1.00
H373   H     0.41513   0.54365   0.16711   0.00000  Uiso   1.00
H374   H     0.64448   0.40718   0.25178   0.00000  Uiso   1.00
H375   H     0.59696   0.36354   0.30247   0.00000  Uiso   1.00
H376   H     0.57220   0.39432   0.37169   0.00000  Uiso   1.00
H377   H     0.59558   0.46884   0.39053   0.00000  Uiso   1.00
H378   H     0.64281   0.51297   0.34017   0.00000  Uiso   1.00
H379   H     0.61973   0.41963   0.45718   0.00000  Uiso   1.00
H380   H     0.65062   0.35615   0.41976   0.00000  Uiso   1.00
H381   H     0.56313   0.39159   0.03054   0.00000  Uiso   1.00
H382   H     0.60286   0.62726   0.40230   0.00000  Uiso   1.00
H383   H     0.52397   0.62855   0.42225   0.00000  Uiso   1.00
H384   H     0.49251   0.35841   0.45972   0.00000  Uiso   1.00
H385   H     0.54223   0.33662   0.21708   0.00000  Uiso   1.00
H386   H     0.45658   0.66502   0.28286   0.00000  Uiso   1.00
H387   H     0.50326   0.52221   0.09757   0.00000  Uiso   1.00
H388   H     0.55737   0.41215   0.09962   0.00000  Uiso   1.00
H389   H     0.42478   0.59934   0.47496   0.00000  Uiso   1.00
H390   H     0.43319   0.58170   0.40456   0.00000  Uiso   1.00
H391   H     0.50973   0.48539   0.40132   0.00000  Uiso   1.00
O392   O     0.50000   0.50000   0.25000   0.00000  Uiso   1.00
O393   O     0.49027   0.45726   0.16625   0.00000  Uiso   1.00
O394   O     0.46020   0.53979   0.33749   0.00000  Uiso   1.00
O395   O     0.54421   0.50826   0.15877   0.00000  Uiso   1.00
O396   O     0.50532   0.49468   0.33749   0.00000  Uiso   1.00
O397   O     0.34752   0.56853   0.20161   0.00000  Uiso   1.00
O398   O     0.39765   0.52334   0.18655   0.00000  Uiso   1.00
O399   O     0.51182   0.41434   0.27820   0.00000  Uiso   1.00
O400   O     0.47914   0.59469   0.26767   0.00000  Uiso   1.00
O401   O     0.40785   0.46584   0.23607   0.00000  Uiso   1.00
O402   O     0.60119   0.52512   0.21805   0.00000  Uiso   1.00
O403   O     0.40323   0.52293   0.27820   0.00000  Uiso   1.00
O404   O     0.58773   0.48610   0.26767   0.00000  Uiso   1.00
O405   O     0.47133   0.40236   0.23607   0.00000  Uiso   1.00
O406   O     0.53771   0.58860   0.21805   0.00000  Uiso   1.00
Zn407  Zn    0.52577   0.47423   0.28277   0.00000  Uiso   1.00
Zn408  Zn    0.46792   0.45711   0.22257   0.00000  Uiso   1.00
Zn409  Zn    0.54500   0.52997   0.21188   0.00000  Uiso   1.00
Zn410  Zn    0.46131   0.53868   0.28277   0.00000  Uiso   1.00
C411   C     0.71943   0.49300   0.25883   0.00000  Uiso   1.00
C412   C     0.85129   0.45494   0.46304   0.00000  Uiso   1.00
C413   C     0.86863   0.43169   0.48304   0.00000  Uiso   1.00
C414   C     0.94771   0.50719   0.24146   0.00000  Uiso   1.00
C415   C     0.86773   0.44483   0.02248   0.00000  Uiso   1.00
C416   C     0.84926   0.48202   0.04163   0.00000  Uiso   1.00
C417   C     0.88326   0.42051   0.04379   0.00000  Uiso   1.00
C418   C     0.88027   0.43214   0.08331   0.00000  Uiso   1.00
C419   C     0.84895   0.49411   0.08123   0.00000  Uiso   1.00
C420   C     0.99385   0.51006   0.23807   0.00000  Uiso   1.00
C421   C     0.67451   0.48983   0.26199   0.00000  Uiso   1.00
C422   C     0.78073   0.56351   0.41948   0.00000  Uiso   1.00
C423   C     0.84793   0.65566   0.23839   0.00000  Uiso   1.00
C424   C     0.81811   0.34529   0.26173   0.00000  Uiso   1.00
C425   C     0.82258   0.38944   0.25878   0.00000  Uiso   1.00
C426   C     0.84361   0.61101   0.24137   0.00000  Uiso   1.00
C427   C     0.85495   0.47835   0.14411   0.00000  Uiso   1.00
C428   C     0.81244   0.52138   0.35602   0.00000  Uiso   1.00
C429   C     0.80483   0.53123   0.39874   0.00000  Uiso   1.00
C430   C     0.86326   0.46891   0.10185   0.00000  Uiso   1.00
C431   C     0.77591   0.57351   0.45962   0.00000  Uiso   1.00
C432   C     0.69107   0.53610   0.20798   0.00000  Uiso   1.00
C433   C     0.82305   0.50847   0.41870   0.00000  Uiso   1.00
C434   C     0.98010   0.46323   0.29238   0.00000  Uiso   1.00
C435   C     0.96734   0.42082   0.28200   0.00000  Uiso   1.00
C436   C     0.94043   0.39611   0.31060   0.00000  Uiso   1.00
C437   C     0.92648   0.41345   0.34966   0.00000  Uiso   1.00
C438   C     0.93959   0.45549   0.36025   0.00000  Uiso   1.00
C439   C     0.96639   0.48036   0.33174   0.00000  Uiso   1.00
C440   C     0.88722   0.39335   0.46148   0.00000  Uiso   1.00
C441   C     0.93192   0.39252   0.44990   0.00000  Uiso   1.00
C442   C     0.94948   0.35669   0.42866   0.00000  Uiso   1.00
C443   C     0.92256   0.65495   0.41878   0.00000  Uiso   1.00
C444   C     0.81693   0.51656   0.45956   0.00000  Uiso   1.00
C445   C     0.87805   0.65567   0.43007   0.00000  Uiso   1.00
C446   C     0.86036   0.35812   0.45127   0.00000  Uiso   1.00
C447   C     0.79421   0.55066   0.47965   0.00000  Uiso   1.00
C448   C     0.83348   0.49232   0.48073   0.00000  Uiso   1.00
C449   C     0.83087   0.50523   0.02103   0.00000  Uiso   1.00
C450   C     0.80863   0.54011   0.03969   0.00000  Uiso   1.00
C451   C     0.79020   0.56184   0.01946   0.00000  Uiso   1.00
H452   H     0.77296   0.58795   0.03510   0.00000  Uiso   1.00
H453   H     0.80364   0.55102   0.07037   0.00000  Uiso   1.00
H454   H     0.85116   0.44193   0.43361   0.00000  Uiso   1.00
H455   H     0.74846   0.54365   0.16711   0.00000  Uiso   1.00
H456   H     0.97781   0.40718   0.25178   0.00000  Uiso   1.00
H457   H     0.93029   0.36354   0.30247   0.00000  Uiso   1.00
H458   H     0.90553   0.39432   0.37169   0.00000  Uiso   1.00
H459   H     0.92891   0.46884   0.39053   0.00000  Uiso   1.00
H460   H     0.97614   0.51297   0.34017   0.00000  Uiso   1.00
H461   H     0.95306   0.41963   0.45718   0.00000  Uiso   1.00
H462   H     0.98395   0.35615   0.41976   0.00000  Uiso   1.00
H463   H     0.89647   0.39159   0.03054   0.00000  Uiso   1.00
H464   H     0.93619   0.62726   0.40230   0.00000  Uiso   1.00
H465   H     0.85730   0.62855   0.42225   0.00000  Uiso   1.00
H466   H     0.82584   0.35841   0.45972   0.00000  Uiso   1.00
H467   H     0.87556   0.33662   0.21708   0.00000  Uiso   1.00
H468   H     0.78991   0.66502   0.28286   0.00000  Uiso   1.00
H469   H     0.83659   0.52221   0.09757   0.00000  Uiso   1.00
H470   H     0.89070   0.41215   0.09962   0.00000  Uiso   1.00
H471   H     0.75812   0.59934   0.47496   0.00000  Uiso   1.00
H472   H     0.76653   0.58170   0.40456   0.00000  Uiso   1.00
H473   H     0.84306   0.48539   0.40132   0.00000  Uiso   1.00
O474   O     0.83333   0.50000   0.25000   0.00000  Uiso   1.00
O475   O     0.82360   0.45726   0.16625   0.00000  Uiso   1.00
O476   O     0.79354   0.53979   0.33749   0.00000  Uiso   1.00
O477   O     0.87755   0.50826   0.15877   0.00000  Uiso   1.00
O478   O     0.83865   0.49468   0.33749   0.00000  Uiso   1.00
O479   O     0.68086   0.56853   0.20161   0.00000  Uiso   1.00
O480   O     0.73099   0.52334   0.18655   0.00000  Uiso   1.00
O481   O     0.84515   0.41434   0.27820   0.00000  Uiso   1.00
O482   O     0.81247   0.59469   0.26767   0.00000  Uiso   1.00
O483   O     0.74119   0.46584   0.23607   0.00000  Uiso   1.00
O484   O     0.93452   0.52512   0.21805   0.00000  Uiso   1.00
O485   O     0.73656   0.52293   0.27820   0.00000  Uiso   1.00
O486   O     0.92106   0.48610   0.26767   0.00000  Uiso   1.00
O487   O     0.80467   0.40236   0.23607   0.00000  Uiso   1.00
O488   O     0.87104   0.58860   0.21805   0.00000  Uiso   1.00
Zn489  Zn    0.85910   0.47423   0.28277   0.00000  Uiso   1.00
Zn490  Zn    0.80125   0.45711   0.22257   0.00000  Uiso   1.00
Zn491  Zn    0.87833   0.52997   0.21188   0.00000  Uiso   1.00
Zn492  Zn    0.79465   0.53868   0.28277   0.00000  Uiso   1.00
C493   C     0.05276   0.82633   0.25883   0.00000  Uiso   1.00
C494   C     0.18463   0.78827   0.46304   0.00000  Uiso   1.00
C495   C     0.20196   0.76502   0.48304   0.00000  Uiso   1.00
C496   C     0.28105   0.84052   0.24146   0.00000  Uiso   1.00
C497   C     0.20106   0.77816   0.02248   0.00000  Uiso   1.00
C498   C     0.18259   0.81536   0.04163   0.00000  Uiso   1.00
C499   C     0.21659   0.75385   0.04379   0.00000  Uiso   1.00
C500   C     0.21360   0.76548   0.08331   0.00000  Uiso   1.00
C501   C     0.18229   0.82744   0.08123   0.00000  Uiso   1.00
C502   C     0.32719   0.84339   0.23807   0.00000  Uiso   1.00
C503   C     0.00785   0.82316   0.26199   0.00000  Uiso   1.00
C504   C     0.11406   0.89685   0.41948   0.00000  Uiso   1.00
C505   C     0.18126   0.98900   0.23839   0.00000  Uiso   1.00
C506   C     0.15145   0.67862   0.26173   0.00000  Uiso   1.00
C507   C     0.15592   0.72278   0.25878   0.00000  Uiso   1.00
C508   C     0.17694   0.94435   0.24137   0.00000  Uiso   1.00
C509   C     0.18829   0.81168   0.14411   0.00000  Uiso   1.00
C510   C     0.14577   0.85471   0.35602   0.00000  Uiso   1.00
C511   C     0.13816   0.86456   0.39874   0.00000  Uiso   1.00
C512   C     0.19659   0.80224   0.10185   0.00000  Uiso   1.00
C513   C     0.10924   0.90684   0.45962   0.00000  Uiso   1.00
C514   C     0.02440   0.86943   0.20798   0.00000  Uiso   1.00
C515   C     0.15639   0.84180   0.41870   0.00000  Uiso   1.00
C516   C     0.31344   0.79656   0.29238   0.00000  Uiso   1.00
C517   C     0.30067   0.75416   0.28200   0.00000  Uiso   1.00
C518   C     0.27377   0.72944   0.31060   0.00000  Uiso   1.00
C519   C     0.25982   0.74679   0.34966   0.00000  Uiso   1.00
C520   C     0.27293   0.78882   0.36025   0.00000  Uiso   1.00
C521   C     0.29973   0.81369   0.33174   0.00000  Uiso   1.00
C522   C     0.22055   0.72669   0.46148   0.00000  Uiso   1.00
C523   C     0.26526   0.72585   0.44990   0.00000  Uiso   1.00
C524   C     0.28281   0.69002   0.42866   0.00000  Uiso   1.00
C525   C     0.25589   0.98828   0.41878   0.00000  Uiso   1.00
C526   C     0.15026   0.84989   0.45956   0.00000  Uiso   1.00
C527   C     0.21138   0.98900   0.43007   0.00000  Uiso   1.00
C528   C     0.19369   0.69145   0.45127   0.00000  Uiso   1.00
C529   C     0.12755   0.88399   0.47965   0.00000  Uiso   1.00
C530   C     0.16682   0.82566   0.48073   0.00000  Uiso   1.00
C531   C     0.16420   0.83856   0.02103   0.00000  Uiso   1.00
C532   C     0.14197   0.87344   0.03969   0.00000  Uiso   1.00
C533   C     0.12353   0.89518   0.01946   0.00000  Uiso   1.00
H534   H     0.10630   0.92129   0.03510   0.00000  Uiso   1.00
H535   H     0.13698   0.88436   0.07037   0.00000  Uiso   1.00
H536   H     0.18450   0.77526   0.43361   0.00000  Uiso   1.00
H537   H     0.08180   0.87698   0.16711   0.00000  Uiso   1.00
H538   H     0.31115   0.74051   0.25178   0.00000  Uiso   1.00
H539   H     0.26362   0.69687   0.30247   0.00000  Uiso   1.00
H540   H     0.23887   0.72765   0.37169   0.00000  Uiso   1.00
H541   H     0.26225   0.80217   0.39053   0.00000  Uiso   1.00
H542   H     0.30948   0.84630   0.34017   0.00000  Uiso   1.00
H543   H     0.28639   0.75297   0.45718   0.00000  Uiso   1.00
H544   H     0.31728   0.68949   0.41976   0.00000  Uiso   1.00
H545   H     0.22980   0.72492   0.03054   0.00000  Uiso   1.00
H546   H     0.26953   0.96059   0.40230   0.00000  Uiso   1.00
H547   H     0.19063   0.96188   0.42225   0.00000  Uiso   1.00
H548   H     0.15917   0.69175   0.45972   0.00000  Uiso   1.00
H549   H     0.20889   0.66996   0.21708   0.00000  Uiso   1.00
H550   H     0.12324   0.99835   0.28286   0.00000  Uiso   1.00
H551   H     0.16993   0.85554   0.09757   0.00000  Uiso   1.00
H552   H     0.22404   0.74548   0.09962   0.00000  Uiso   1.00
H553   H     0.09145   0.93267   0.47496   0.00000  Uiso   1.00
H554   H     0.09986   0.91503   0.40456   0.00000  Uiso   1.00
H555   H     0.17640   0.81872   0.40132   0.00000  Uiso   1.00
O556   O     0.16667   0.83333   0.25000   0.00000  Uiso   1.00
O557   O     0.15693   0.79060   0.16625   0.00000  Uiso   1.00
O558   O     0.12687   0.87313   0.33749   0.00000  Uiso   1.00
O559   O     0.21088   0.84159   0.15877   0.00000  Uiso   1.00
O560   O     0.17198   0.82802   0.33749   0.00000  Uiso   1.00
O561   O     0.01419   0.90186   0.20161   0.00000  Uiso   1.00
O562   O     0.06432   0.85667   0.18655   0.00000  Uiso   1.00
O563   O     0.17849   0.74768   0.27820   0.00000  Uiso   1.00
O564   O     0.14581   0.92803   0.26767   0.00000  Uiso   1.00
O565   O     0.07452   0.79917   0.23607   0.00000  Uiso   1.00
O566   O     0.26785   0.85845   0.21805   0.00000  Uiso   1.00
O567   O     0.06990   0.85627   0.27820   0.00000  Uiso   1.00
O568   O     0.25440   0.81944   0.26767   0.00000  Uiso   1.00
O569   O     0.13800   0.73570   0.23607   0.00000  Uiso   1.00
O570   O     0.20437   0.92193   0.21805   0.00000  Uiso   1.00
Zn571  Zn    0.19244   0.80756   0.28277   0.00000  Uiso   1.00
Zn572  Zn    0.13459   0.79044   0.22257   0.00000  Uiso   1.00
Zn573  Zn    0.21166   0.86331   0.21188   0.00000  Uiso   1.00
Zn574  Zn    0.12798   0.87202   0.28277   0.00000  Uiso   1.00
C575   C     0.38609   0.82633   0.25883   0.00000  Uiso   1.00
C576   C     0.51796   0.78827   0.46304   0.00000  Uiso   1.00
C577   C     0.53530   0.76502   0.48304   0.00000  Uiso   1.00
C578   C     0.61438   0.84052   0.24146   0.00000  Uiso   1.00
C579   C     0.53439   0.77816   0.02248   0.00000  Uiso   1.00
C580   C     0.51592   0.81536   0.04163   0.00000  Uiso   1.00
C581   C     0.54992   0.75385   0.04379   0.00000  Uiso   1.00
C582   C     0.54694   0.76548   0.08331   0.00000  Uiso   1.00
C583   C     0.51562   0.82744   0.08123   0.00000  Uiso   1.00
C584   C     0.66052   0.84339   0.23807   0.00000  Uiso   1.00
C585   C     0.34118   0.82316   0.26199   0.00000  Uiso   1.00
C586   C     0.44739   0.89685   0.41948   0.00000  Uiso   1.00
C587   C     0.51459   0.98900   0.23839   0.00000  Uiso   1.00
C588   C     0.48478   0.67862   0.26173   0.00000  Uiso   1.00
C589   C     0.48925   0.72278   0.25878   0.00000  Uiso   1.00
C590   C     0.51027   0.94435   0.24137   0.00000  Uiso   1.00
C591   C     0.52162   0.81168   0.14411   0.00000  Uiso   1.00
C592   C     0.47911   0.85471   0.35602   0.00000  Uiso   1.00
C593   C     0.47150   0.86456   0.39874   0.00000  Uiso   1.00
C594   C     0.52992   0.80224   0.10185   0.00000  Uiso   1.00
C595   C     0.44257   0.90684   0.45962   0.00000  Uiso   1.00
C596   C     0.35774   0.86943   0.20798   0.00000  Uiso   1.00
C597   C     0.48972   0.84180   0.41870   0.00000  Uiso   1.00
C598   C     0.64677   0.79656   0.29238   0.00000  Uiso   1.00
C599   C     0.63401   0.75416   0.28200   0.00000  Uiso   1.00
C600   C     0.60710   0.72944   0.31060   0.00000  Uiso   1.00
C601   C     0.59315   0.74679   0.34966   0.00000  Uiso   1.00
C602   C     0.60626   0.78882   0.36025   0.00000  Uiso   1.00
C603   C     0.63306   0.81369   0.33174   0.00000  Uiso   1.00
C604   C     0.55389   0.72669   0.46148   0.00000  Uiso   1.00
C605   C     0.59859   0.72585   0.44990   0.00000  Uiso   1.00
C606   C     0.61614   0.69002   0.42866   0.00000  Uiso   1.00
C607   C     0.58923   0.98828   0.41878   0.00000  Uiso   1.00
C608   C     0.48360   0.84989   0.45956   0.00000  Uiso   1.00
C609   C     0.54472   0.98900   0.43007   0.00000  Uiso   1.00
C610   C     0.52703   0.69145   0.45127   0.00000  Uiso   1.00
C611   C     0.46088   0.88399   0.47965   0.00000  Uiso   1.00
C612   C     0.50015   0.82566   0.48073   0.00000  Uiso   1.00
C613   C     0.49754   0.83856   0.02103   0.00000  Uiso   1.00
C614   C     0.47530   0.87344   0.03969   0.00000  Uiso   1.00
C615   C     0.45686   0.89518   0.01946   0.00000  Uiso   1.00
H616   H     0.43963   0.92129   0.03510   0.00000  Uiso   1.00
H617   H     0.47031   0.88436   0.07037   0.00000  Uiso   1.00
H618   H     0.51783   0.77526   0.43361   0.00000  Uiso   1.00
H619   H     0.41513   0.87698   0.16711   0.00000  Uiso   1.00
H620   H     0.64448   0.74051   0.25178   0.00000  Uiso   1.00
H621   H     0.59696   0.69687   0.30247   0.00000  Uiso   1.00
H622   H     0.57220   0.72765   0.37169   0.00000  Uiso   1.00
H623   H     0.59558   0.80217   0.39053   0.00000  Uiso   1.00
H624   H     0.64281   0.84630   0.34017   0.00000  Uiso   1.00
H625   H     0.61973   0.75297   0.45718   0.00000  Uiso   1.00
H626   H     0.65062   0.68949   0.41976   0.00000  Uiso   1.00
H627   H     0.56313   0.72492   0.03054   0.00000  Uiso   1.00
H628   H     0.60286   0.96059   0.40230   0.00000  Uiso   1.00
H629   H     0.52397   0.96188   0.42225   0.00000  Uiso   1.00
H630   H     0.49251   0.69175   0.45972   0.00000  Uiso   1.00
H631   H     0.54223   0.66996   0.21708   0.00000  Uiso   1.00
H632   H     0.45658   0.99835   0.28286   0.00000  Uiso   1.00
H633   H     0.50326   0.85554   0.09757   0.00000  Uiso   1.00
H634   H     0.55737   0.74548   0.09962   0.00000  Uiso   1.00
H635   H     0.42478   0.93267   0.47496   0.00000  Uiso   1.00
H636   H     0.43319   0.91503   0.40456   0.00000  Uiso   1.00
H637   H     0.50973   0.81872   0.40132   0.00000  Uiso   1.00
O638   O     0.50000   0.83333   0.25000   0.00000  Uiso   1.00
O639   O     0.49027   0.79060   0.16625   0.00000  Uiso   1.00
O640   O     0.46020   0.87313   0.33749   0.00000  Uiso   1.00
O641   O     0.54421   0.84159   0.15877   0.00000  Uiso   1.00
O642   O     0.50532   0.82802   0.33749   0.00000  Uiso   1.00
O643   O     0.34752   0.90186   0.20161   0.00000  Uiso   1.00
O644   O     0.39765   0.85667   0.18655   0.00000  Uiso   1.00
O645   O     0.51182   0.74768   0.27820   0.00000  Uiso   1.00
O646   O     0.47914   0.92803   0.26767   0.00000  Uiso   1.00
O647   O     0.40785   0.79917   0.23607   0.00000  Uiso   1.00
O648   O     0.60119   0.85845   0.21805   0.00000  Uiso   1.00
O649   O     0.40323   0.85627   0.27820   0.00000  Uiso   1.00
O650   O     0.58773   0.81944   0.26767   0.00000  Uiso   1.00
O651   O     0.47133   0.73570   0.23607   0.00000  Uiso   1.00
O652   O     0.53771   0.92193   0.21805   0.00000  Uiso   1.00
Zn653  Zn    0.52577   0.80756   0.28277   0.00000  Uiso   1.00
Zn654  Zn    0.46792   0.79044   0.22257   0.00000  Uiso   1.00
Zn655  Zn    0.54500   0.86331   0.21188   0.00000  Uiso   1.00
Zn656  Zn    0.46131   0.87202   0.28277   0.00000  Uiso   1.00
C657   C     0.71943   0.82633   0.25883   0.00000  Uiso   1.00
C658   C     0.85129   0.78827   0.46304   0.00000  Uiso   1.00
C659   C     0.86863   0.76502   0.48304   0.00000  Uiso   1.00
C660   C     0.94771   0.84052   0.24146   0.00000  Uiso   1.00
C661   C     0.86773   0.77816   0.02248   0.00000  Uiso   1.00
C662   C     0.84926   0.81536   0.04163   0.00000  Uiso   1.00
C663   C     0.88326   0.75385   0.04379   0.00000  Uiso   1.00
C664   C     0.88027   0.76548   0.08331   0.00000  Uiso   1.00
C665   C     0.84895   0.82744   0.08123   0.00000  Uiso   1.00
C666   C     0.99385   0.84339   0.23807   0.00000  Uiso   1.00
C667   C     0.67451   0.82316   0.26199   0.00000  Uiso   1.00
C668   C     0.78073   0.89685   0.41948   0.00000  Uiso   1.00
C669   C     0.84793   0.98900   0.23839   0.00000  Uiso   1.00
C670   C     0.81811   0.67862   0.26173   0.00000  Uiso   1.00
C671   C     0.82258   0.72278   0.25878   0.00000  Uiso   1.00
C672   C     0.84361   0.94435   0.24137   0.00000  Uiso   1.00
C673   C     0.85495   0.81168   0.14411   0.00000  Uiso   1.00
C674   C     0.81244   0.85471   0.35602   0.00000  Uiso   1.00
C675   C     0.80483   0.86456   0.39874   0.00000  Uiso   1.00
C676   C     0.86326   0.80224   0.10185   0.00000  Uiso   1.00
C677   C     0.77591   0.90684   0.45962   0.00000  Uiso   1.00
C678   C     0.69107   0.86943   0.20798   0.00000  Uiso   1.00
C679   C     0.82305   0.84180   0.41870   0.00000  Uiso   1.00
C680   C     0.98010   0.79656   0.29238   0.00000  Uiso   1.00
C681   C     0.96734   0.75416   0.28200   0.00000  Uiso   1.00
C682   C     0.94043   0.72944   0.31060   0.00000  Uiso   1.00
C683   C     0.92648   0.74679   0.34966   0.00000  Uiso   1.00
C684   C     0.93959   0.78882   0.36025   0.00000  Uiso   1.00
C685   C     0.96639   0.81369   0.33174   0.00000  Uiso   1.00
C686   C     0.88722   0.72669   0.46148   0.00000  Uiso   1.00
C687   C     0.93192   0.72585   0.44990   0.00000  Uiso   1.00
C688   C     0.94948   0.69002   0.42866   0.00000  Uiso   1.00
C689   C     0.92256   0.98828   0.41878   0.00000  Uiso   1.00
C690   C     0.81693   0.84989   0.45956   0.00000  Uiso   1.00
C691   C     0.87805   0.98900   0.43007   0.00000  Uiso   1.00
C692   C     0.86036   0.69145   0.45127   0.00000  Uiso   1.00
C693   C     0.79421   0.88399   0.47965   0.00000  Uiso   1.00
C694   C     0.83348   0.82566   0.48073   0.00000  Uiso   1.00
C695   C     0.83087   0.83856   0.02103   0.00000  Uiso   1.00
C696   C     0.80863   0.87344   0.03969   0.00000  Uiso   1.00
C697   C     0.79020   0.89518   0.01946   0.00000  Uiso   1.00
H698   H     0.77296   0.92129   0.03510   0.00000  Uiso   1.00
H699   H     0.80364   0.88436   0.07037   0.00000  Uiso   1.00
H700   H     0.85116   0.77526   0.43361   0.00000  Uiso   1.00
H701   H     0.74846   0.87698   0.16711   0.00000  Uiso   1.00
H702   H     0.97781   0.74051   0.25178   0.00000  Uiso   1.00
H703   H     0.93029   0.69687   0.30247   0.00000  Uiso   1.00
H704   H     0.90553   0.72765   0.37169   0.00000  Uiso   1.00
H705   H     0.92891   0.80217   0.39053   0.00000  Uiso   1.00
H706   H     0.97614   0.84630   0.34017   0.00000  Uiso   1.00
H707   H     0.95306   0.75297   0.45718   0.00000  Uiso   1.00
H708   H     0.98395   0.68949   0.41976   0.00000  Uiso   1.00
H709   H     0.89647   0.72492   0.03054   0.00000  Uiso   1.00
H710   H     0.93619   0.96059   0.40230   0.00000  Uiso   1.00
H711   H     0.85730   0.96188   0.42225   0.00000  Uiso   1.00
H712   H     0.82584   0.69175   0.45972   0.00000  Uiso   1.00
H713   H     0.87556   0.66996   0.21708   0.00000  Uiso   1.00
H714   H     0.78991   0.99835   0.28286   0.00000  Uiso   1.00
H715   H     0.83659   0.85554   0.09757   0.00000  Uiso   1.00
H716   H     0.89070   0.74548   0.09962   0.00000  Uiso   1.00
H717   H     0.75812   0.93267   0.47496   0.00000  Uiso   1.00
H718   H     0.76653   0.91503   0.40456   0.00000  Uiso   1.00
H719   H     0.84306   0.81872   0.40132   0.00000  Uiso   1.00
O720   O     0.83333   0.83333   0.25000   0.00000  Uiso   1.00
O721   O     0.82360   0.79060   0.16625   0.00000  Uiso   1.00
O722   O     0.79354   0.87313   0.33749   0.00000  Uiso   1.00
O723   O     0.87755   0.84159   0.15877   0.00000  Uiso   1.00
O724   O     0.83865   0.82802   0.33749   0.00000  Uiso   1.00
O725   O     0.68086   0.90186   0.20161   0.00000  Uiso   1.00
O726   O     0.73099   0.85667   0.18655   0.00000  Uiso   1.00
O727   O     0.84515   0.74768   0.27820   0.00000  Uiso   1.00
O728   O     0.81247   0.92803   0.26767   0.00000  Uiso   1.00
O729   O     0.74119   0.79917   0.23607   0.00000  Uiso   1.00
O730   O     0.93452   0.85845   0.21805   0.00000  Uiso   1.00
O731   O     0.73656   0.85627   0.27820   0.00000  Uiso   1.00
O732   O     0.92106   0.81944   0.26767   0.00000  Uiso   1.00
O733   O     0.80467   0.73570   0.23607   0.00000  Uiso   1.00
O734   O     0.87104   0.92193   0.21805   0.00000  Uiso   1.00
Zn735  Zn    0.85910   0.80756   0.28277   0.00000  Uiso   1.00
Zn736  Zn    0.80125   0.79044   0.22257   0.00000  Uiso   1.00
Zn737  Zn    0.87833   0.86331   0.21188   0.00000  Uiso   1.00
Zn738  Zn    0.79465   0.87202   0.28277   0.00000  Uiso   1.00
C739   C     0.05276   0.15966   0.75883   0.00000  Uiso   1.00
C740   C     0.18463   0.12160   0.96304   0.00000  Uiso   1.00
C741   C     0.20196   0.09836   0.98304   0.00000  Uiso   1.00
C742   C     0.28105   0.17385   0.74146   0.00000  Uiso   1.00
C743   C     0.20106   0.11149   0.52248   0.00000  Uiso   1.00
C744   C     0.18259   0.14869   0.54163   0.00000  Uiso   1.00
C745   C     0.21659   0.08718   0.54379   0.00000  Uiso   1.00
C746   C     0.21360   0.09881   0.58331   0.00000  Uiso   1.00
C747   C     0.18229   0.16077   0.58123   0.00000  Uiso   1.00
C748   C     0.32719   0.17672   0.73807   0.00000  Uiso   1.00
C749   C     0.00785   0.15650   0.76199   0.00000  Uiso   1.00
C750   C     0.11406   0.23018   0.91948   0.00000  Uiso   1.00
C751   C     0.18126   0.32233   0.73839   0.00000  Uiso   1.00
C752   C     0.15145   0.01195   0.76173   0.00000  Uiso   1.00
C753   C     0.15592   0.05611   0.75878   0.00000  Uiso   1.00
C754   C     0.17694   0.27768   0.74137   0.00000  Uiso   1.00
C755   C     0.18829   0.14502   0.64411   0.00000  Uiso   1.00
C756   C     0.14577   0.18805   0.85602   0.00000  Uiso   1.00
C757   C     0.13816   0.19789   0.89874   0.00000  Uiso   1.00
C758   C     0.19659   0.13558   0.60185   0.00000  Uiso   1.00
C759   C     0.10924   0.24017   0.95962   0.00000  Uiso   1.00
C760   C     0.02440   0.20277   0.70798   0.00000  Uiso   1.00
C761   C     0.15639   0.17513   0.91870   0.00000  Uiso   1.00
C762   C     0.31344   0.12989   0.79238   0.00000  Uiso   1.00
C763   C     0.30067   0.08749   0.78200   0.00000  Uiso   1.00
C764   C     0.27377   0.06277   0.81060   0.00000  Uiso   1.00
C765   C     0.25982   0.08012   0.84966   0.00000  Uiso   1.00
C766   C     0.27293   0.12216   0.86025   0.00000  Uiso   1.00
C767   C     0.29973   0.14702   0.83174   0.00000  Uiso   1.00
C768   C     0.22055   0.06002   0.96148   0.00000  Uiso   1.00
C769   C     0.26526   0.05918   0.94990   0.00000  Uiso   1.00
C770   C     0.28281   0.02335   0.92866   0.00000  Uiso   1.00
C771   C     0.25589   0.32161   0.91878   0.00000  Uiso   1.00
C772   C     0.15026   0.18322   0.95956   0.00000  Uiso   1.00
C773   C     0.21138   0.32233   0.93007   0.00000  Uiso   1.00
C774   C     0.19369   0.02479   0.95127   0.00000  Uiso   1.00
C775   C     0.12755   0.21732   0.97965   0.00000  Uiso   1.00
C776   C     0.16682   0.15899   0.98073   0.00000  Uiso   1.00
C777   C     0.16420   0.17190   0.52103   0.00000  Uiso   1.00
C778   C     0.14197   0.20677   0.53969   0.00000  Uiso   1.00
C779   C     0.12353   0.22851   0.51946   0.00000  Uiso   1.00
H780   H     0.10630   0.25462   0.53510   0.00000  Uiso   1.00
H781   H     0.13698   0.21769   0.57037   0.00000  Uiso   1.00
H782   H     0.18450   0.10860   0.93361   0.00000  Uiso   1.00
H783   H     0.08180   0.21032   0.66711   0.00000  Uiso   1.00
H784   H     0.31115   0.07385   0.75178   0.00000  Uiso   1.00
H785   H     0.26362   0.03021   0.80247   0.00000  Uiso   1.00
H786   H     0.23887   0.06099   0.87169   0.00000  Uiso   1.00
H787   H     0.26225   0.13550   0.89053   0.00000  Uiso   1.00
H788   H     0.30948   0.17963   0.84017   0.00000  Uiso   1.00
H789   H     0.28639   0.08630   0.95718   0.00000  Uiso   1.00
H790   H     0.31728   0.02282   0.91976   0.00000  Uiso   1.00
H791   H     0.22980   0.05825   0.53054   0.00000  Uiso   1.00
H792   H     0.26953   0.29392   0.90230   0.00000  Uiso   1.00
H793   H     0.19063   0.29522   0.92225   0.00000  Uiso   1.00
H794   H     0.15917   0.02508   0.95972   0.00000  Uiso   1.00
H795   H     0.20889   0.00329   0.71708   0.00000  Uiso   1.00
H796   H     0.12324   0.33169   0.78286   0.00000  Uiso   1.00
H797   H     0.16993   0.18887   0.59757   0.00000  Uiso   1.00
H798   H     0.22404   0.07882   0.59962   0.00000  Uiso   1.00
H799   H     0.09145   0.26601   0.97496   0.00000  Uiso   1.00
H800   H     0.09986   0.24837   0.90456   0.00000  Uiso   1.00
H801   H     0.17640   0.15206   0.90132   0.00000  Uiso   1.00
O802   O     0.16667   0.16667   0.75000   0.00000  Uiso   1.00
O803   O     0.15693   0.12393   0.66625   0.00000  Uiso   1.00
O804   O     0.12687   0.20646   0.83749   0.00000  Uiso   1.00
O805   O     0.21088   0.17493   0.65877   0.00000  Uiso   1.00
O806   O     0.17198   0.16135   0.83749   0.00000  Uiso   1.00
O807   O     0.01419   0.23519   0.70161   0.00000  Uiso   1.00
O808   O     0.06432   0.19001   0.68655   0.00000  Uiso   1.00
O809   O     0.17849   0.08101   0.77820   0.00000  Uiso   1.00
O810   O     0.14581   0.26136   0.76767   0.00000  Uiso   1.00
O811   O     0.07452   0.13251   0.73607   0.00000  Uiso   1.00
O812   O     0.26785   0.19179   0.71805   0.00000  Uiso   1.00
O813   O     0.06990   0.18960   0.77820   0.00000  Uiso   1.00
O814   O     0.25440   0.15277   0.76767   0.00000  Uiso   1.00
O815   O     0.13800   0.06903   0.73607   0.00000  Uiso   1.00
O816   O     0.20437   0.25527   0.71805   0.00000  Uiso   1.00
Zn817  Zn    0.19244   0.14090   0.78277   0.00000  Uiso   1.00
Zn818  Zn    0.13459   0.12378   0.72257   0.00000  Uiso   1.00
Zn819  Zn    0.21166   0.19664   0.71188   0.00000  Uiso   1.00
Zn820  Zn    0.12798   0.20535   0.78277   0.00000  Uiso   1.00
C821   C     0.38609   0.15966   0.75883   0.00000  Uiso   1.00
C822   C     0.51796   0.12160   0.96304   0.00000  Uiso   1.00
C823   C     0.53530   0.09836   0.98304   0.00000  Uiso   1.00
C824   C     0.61438   0.17385   0.74146   0.00000  Uiso   1.00
C825   C     0.53439   0.11149   0.52248   0.00000  Uiso   1.00
C826   C     0.51592   0.14869   0.54163   0.00000  Uiso   1.00
C827   C     0.54992   0.08718   0.54379   0.00000  Uiso   1.00
C828   C     0.54694   0.09881   0.58331   0.00000  Uiso   1.00
C829   C     0.51562   0.16077   0.58123   0.00000  Uiso   1.00
C830   C     0.66052   0.17672   0.73807   0.00000  Uiso   1.00
C831   C     0.34118   0.15650   0.76199   0.00000  Uiso   1.00
C832   C     0.44739   0.23018   0.91948   0.00000  Uiso   1.00
C833   C     0.51459   0.32233   0.73839   0.00000  Uiso   1.00
C834   C     0.48478   0.01195   0.76173   0.00000  Uiso   1.00
C835   C     0.48925   0.05611   0.75878   0.00000  Uiso   1.00
C836   C     0.51027   0.27768   0.74137   0.00000  Uiso   1.00
C837   C     0.52162   0.14502   0.64411   0.00000  Uiso   1.00
C838   C     0.47911   0.18805   0.85602   0.00000  Uiso   1.00
C839   C     0.47150   0.19789   0.89874   0.00000  Uiso   1.00
C840   C     0.52992   0.13558   0.60185   0.00000  Uiso   1.00
C841   C     0.44257   0.24017   0.95962   0.00000  Uiso   1.00
C842   C     0.35774   0.20277   0.70798   0.00000  Uiso   1.00
C843   C     0.48972   0.17513   0.91870   0.00000  Uiso   1.00
C844   C     0.64677   0.12989   0.79238   0.00000  Uiso   1.00
C845   C     0.63401   0.08749   0.78200   0.00000  Uiso   1.00
C846   C     0.60710   0.06277   0.81060   0.00000  Uiso   1.00
C847   C     0.59315   0.08012   0.84966   0.00000  Uiso   1.00
C848   C     0.60626   0.12216   0.86025   0.00000  Uiso   1.00
C849   C     0.63306   0.14702   0.83174   0.00000  Uiso   1.00
C850   C     0.55389   0.06002   0.96148   0.00000  Uiso   1.00
C851   C     0.59859   0.05918   0.94990   0.00000  Uiso   1.00
C852   C     0.61614   0.02335   0.92866   0.00000  Uiso   1.00
C853   C     0.58923   0.32161   0.91878   0.00000  Uiso   1.00
C854   C     0.48360   0.18322   0.95956   0.00000  Uiso   1.00
C855   C     0.54472   0.32233   0.93007   0.00000  Uiso   1.00
C856   C     0.52703   0.02479   0.95127   0.00000  Uiso   1.00
C857   C     0.46088   0.21732   0.97965   0.00000  Uiso   1.00
C858   C     0.50015   0.15899   0.98073   0.00000  Uiso   1.00
C859   C     0.49754   0.17190   0.52103   0.00000  Uiso   1.00
C860   C     0.47530   0.20677   0.53969   0.00000  Uiso   1.00
C861   C     0.45686   0.22851   0.51946   0.00000  Uiso   1.00
H862   H     0.43963   0.25462   0.53510   0.00000  Uiso   1.00
H863   H     0.47031   0.21769   0.57037   0.00000  Uiso   1.00
H864   H     0.51783   0.10860   0.93361   0.00000  Uiso   1.00
H865   H     0.41513   0.21032   0.66711   0.00000  Uiso   1.00
H866   H     0.64448   0.07385   0.75178   0.00000  Uiso   1.00
H867   H     0.59696   0.03021   0.80247   0.00000  Uiso   1.00
H868   H     0.57220   0.06099   0.87169   0.00000  Uiso   1.00
H869   H     0.59558   0.13550   0.89053   0.00000  Uiso   1.00
H870   H     0.64281   0.17963   0.84017   0.00000  Uiso   1.00
H871   H     0.61973   0.08630   0.95718   0.00000  Uiso   1.00
H872   H     0.65062   0.02282   0.91976   0.00000  Uiso   1.00
H873   H     0.56313   0.05825   0.53054   0.00000  Uiso   1.00
H874   H     0.60286   0.29392   0.90230   0.00000  Uiso   1.00
H875   H     0.52397   0.29522   0.92225   0.00000  Uiso   1.00
H876   H     0.49251   0.02508   0.95972   0.00000  Uiso   1.00
H877   H     0.54223   0.00329   0.71708   0.00000  Uiso   1.00
H878   H     0.45658   0.33169   0.78286   0.00000  Uiso   1.00
H879   H     0.50326   0.18887   0.59757   0.00000  Uiso   1.00
H880   H     0.55737   0.07882   0.59962   0.00000  Uiso   1.00
H881   H     0.42478   0.26601   0.97496   0.00000  Uiso   1.00
H882   H     0.43319   0.24837   0.90456   0.00000  Uiso   1.00
H883   H     0.50973   0.15206   0.90132   0.00000  Uiso   1.00
O884   O     0.50000   0.16667   0.75000   0.00000  Uiso   1.00
O885   O     0.49027   0.12393   0.66625   0.00000  Uiso   1.00
O886   O     0.46020   0.20646   0.83749   0.00000  Uiso   1.00
O887   O     0.54421   0.17493   0.65877   0.00000  Uiso   1.00
O888   O     0.50532   0.16135   0.83749   0.00000  Uiso   1.00
O889   O     0.34752   0.23519   0.70161   0.00000  Uiso   1.00
O890   O     0.39765   0.19001   0.68655   0.00000  Uiso   1.00
O891   O     0.51182   0.08101   0.77820   0.00000  Uiso   1.00
O892   O     0.47914   0.26136   0.76767   0.00000  Uiso   1.00
O893   O     0.40785   0.13251   0.73607   0.00000  Uiso   1.00
O894   O     0.60119   0.19179   0.71805   0.00000  Uiso   1.00
O895   O     0.40323   0.18960   0.77820   0.00000  Uiso   1.00
O896   O     0.58773   0.15277   0.76767   0.00000  Uiso   1.00
O897   O     0.47133   0.06903   0.73607   0.00000  Uiso   1.00
O898   O     0.53771   0.25527   0.71805   0.00000  Uiso   1.00
Zn899  Zn    0.52577   0.14090   0.78277   0.00000  Uiso   1.00
Zn900  Zn    0.46792   0.12378   0.72257   0.00000  Uiso   1.00
Zn901  Zn    0.54500   0.19664   0.71188   0.00000  Uiso   1.00
Zn902  Zn    0.46131   0.20535   0.78277   0.00000  Uiso   1.00
C903   C     0.71943   0.15966   0.75883   0.00000  Uiso   1.00
C904   C     0.85129   0.12160   0.96304   0.00000  Uiso   1.00
C905   C     0.86863   0.09836   0.98304   0.00000  Uiso   1.00
C906   C     0.94771   0.17385   0.74146   0.00000  Uiso   1.00
C907   C     0.86773   0.11149   0.52248   0.00000  Uiso   1.00
C908   C     0.84926   0.14869   0.54163   0.00000  Uiso   1.00
C909   C     0.88326   0.08718   0.54379   0.00000  Uiso   1.00
C910   C     0.88027   0.09881   0.58331   0.00000  Uiso   1.00
C911   C     0.84895   0.16077   0.58123   0.00000  Uiso   1.00
C912   C     0.99385   0.17672   0.73807   0.00000  Uiso   1.00
C913   C     0.67451   0.15650   0.76199   0.00000  Uiso   1.00
C914   C     0.78073   0.23018   0.91948   0.00000  Uiso   1.00
C915   C     0.84793   0.32233   0.73839   0.00000  Uiso   1.00
C916   C     0.81811   0.01195   0.76173   0.00000  Uiso   1.00
C917   C     0.82258   0.05611   0.75878   0.00000  Uiso   1.00
C918   C     0.84361   0.27768   0.74137   0.00000  Uiso   1.00
C919   C     0.85495   0.14502   0.64411   0.00000  Uiso   1.00
C920   C     0.81244   0.18805   0.85602   0.00000  Uiso   1.00
C921   C     0.80483   0.19789   0.89874   0.00000  Uiso   1.00
C922   C     0.86326   0.13558   0.60185   0.00000  Uiso   1.00
C923   C     0.77591   0.24017   0.95962   0.00000  Uiso   1.00
C924   C     0.69107   0.20277   0.70798   0.00000  Uiso   1.00
C925   C     0.82305   0.17513   0.91870   0.00000  Uiso   1.00
C926   C     0.98010   0.12989   0.79238   0.00000  Uiso   1.00
C927   C     0.96734   0.08749   0.78200   0.00000  Uiso   1.00
C928   C     0.94043   0.06277   0.81060   0.00000  Uiso   1.00
C929   C     0.92648   0.08012   0.84966   0.00000  Uiso   1.00
C930   C     0.93959   0.12216   0.86025   0.00000  Uiso   1.00
C931   C     0.96639   0.14702   0.83174   0.00000  Uiso   1.00
C932   C     0.88722   0.06002   0.96148   0.00000  Uiso   1.00
C933   C     0.93192   0.05918   0.94990   0.00000  Uiso   1.00
C934   C     0.94948   0.02335   0.92866   0.00000  Uiso   1.00
C935   C     0.92256   0.32161   0.91878   0.00000  Uiso   1.00
C936   C     0.81693   0.18322   0.95956   0.00000  Uiso   1.00
C937   C     0.87805   0.32233   0.93007   0.00000  Uiso   1.00
C938   C     0.86036   0.02479   0.95127   0.00000  Uiso   1.00
C939   C     0.79421   0.21732   0.97965   0.00000  Uiso   1.00
C940   C     0.83348   0.15899   0.98073   0.00000  Uiso   1.00
C941   C     0.83087   0.17190   0.52103   0.00000  Uiso   1.00
C942   C     0.80863   0.20677   0.53969   0.00000  Uiso   1.00
C943   C     0.79020   0.22851   0.51946   0.00000  Uiso   1.00
H944   H     0.77296   0.25462   0.53510   0.00000  Uiso   1.00
H945   H     0.80364   0.21769   0.57037   0.00000  Uiso   1.00
H946   H     0.85116   0.10860   0.93361   0.00000  Uiso   1.00
H947   H     0.74846   0.21032   0.66711   0.00000  Uiso   1.00
H948   H     0.97781   0.07385   0.75178   0.00000  Uiso   1.00
H949   H     0.93029   0.03021   0.80247   0.00000  Uiso   1.00
H950   H     0.90553   0.06099   0.87169   0.00000  Uiso   1.00
H951   H     0.92891   0.13550   0.89053   0.00000  Uiso   1.00
H952   H     0.97614   0.17963   0.84017   0.00000  Uiso   1.00
H953   H     0.95306   0.08630   0.95718   0.00000  Uiso   1.00
H954   H     0.98395   0.02282   0.91976   0.00000  Uiso   1.00
H955   H     0.89647   0.05825   0.53054   0.00000  Uiso   1.00
H956   H     0.93619   0.29392   0.90230   0.00000  Uiso   1.00
H957   H     0.85730   0.29522   0.92225   0.00000  Uiso   1.00
H958   H     0.82584   0.02508   0.95972   0.00000  Uiso   1.00
H959   H     0.87556   0.00329   0.71708   0.00000  Uiso   1.00
H960   H     0.78991   0.33169   0.78286   0.00000  Uiso   1.00
H961   H     0.83659   0.18887   0.59757   0.00000  Uiso   1.00
H962   H     0.89070   0.07882   0.59962   0.00000  Uiso   1.00
H963   H     0.75812   0.26601   0.97496   0.00000  Uiso   1.00
H964   H     0.76653   0.24837   0.90456   0.00000  Uiso   1.00
H965   H     0.84306   0.15206   0.90132   0.00000  Uiso   1.00
O966   O     0.83333   0.16667   0.75000   0.00000  Uiso   1.00
O967   O     0.82360   0.12393   0.66625   0.00000  Uiso   1.00
O968   O     0.79354   0.20646   0.83749   0.00000  Uiso   1.00
O969   O     0.87755   0.17493   0.65877   0.00000  Uiso   1.00
O970   O     0.83865   0.16135   0.83749   0.00000  Uiso   1.00
O971   O     0.68086   0.23519   0.70161   0.00000  Uiso   1.00
O972   O     0.73099   0.19001   0.68655   0.00000  Uiso   1.00
O973   O     0.84515   0.08101   0.77820   0.00000  Uiso   1.00
O974   O     0.81247   0.26136   0.76767   0.00000  Uiso   1.00
O975   O     0.74119   0.13251   0.73607   0.00000  Uiso   1.00
O976   O     0.93452   0.19179   0.71805   0.00000  Uiso   1.00
O977   O     0.73656   0.18960   0.77820   0.00000  Uiso   1.00
O978   O     0.92106   0.15277   0.76767   0.00000  Uiso   1.00
O979   O     0.80467   0.06903   0.73607   0.00000  Uiso   1.00
O980   O     0.87104   0.25527   0.71805   0.00000  Uiso   1.00
Zn981  Zn    0.85910   0.14090   0.78277   0.00000  Uiso   1.00
Zn982  Zn    0.80125   0.12378   0.72257   0.00000  Uiso   1.00
Zn983  Zn    0.87833   0.19664   0.71188   0.00000  Uiso   1.00
Zn984  Zn    0.79465   0.20535   0.78277   0.00000  Uiso   1.00
C985   C     0.05276   0.49300   0.75883   0.00000  Uiso   1.00
C986   C     0.18463   0.45494   0.96304   0.00000  Uiso   1.00
C987   C     0.20196   0.43169   0.98304   0.00000  Uiso   1.00
C988   C     0.28105   0.50719   0.74146   0.00000  Uiso   1.00
C989   C     0.20106   0.44483   0.52248   0.00000  Uiso   1.00
C990   C     0.18259   0.48202   0.54163   0.00000  Uiso   1.00
C991   C     0.21659   0.42051   0.54379   0.00000  Uiso   1.00
C992   C     0.21360   0.43214   0.58331   0.00000  Uiso   1.00
C993   C     0.18229   0.49411   0.58123   0.00000  Uiso   1.00
C994   C     0.32719   0.51006   0.73807   0.00000  Uiso   1.00
C995   C     0.00785   0.48983   0.76199   0.00000  Uiso   1.00
C996   C     0.11406   0.56351   0.91948   0.00000  Uiso   1.00
C997   C     0.18126   0.65566   0.73839   0.00000  Uiso   1.00
C998   C     0.15145   0.34529   0.76173   0.00000  Uiso   1.00
C999   C     0.15592   0.38944   0.75878   0.00000  Uiso   1.00
C1000  C     0.17694   0.61101   0.74137   0.00000  Uiso   1.00
C1001  C     0.18829   0.47835   0.64411   0.00000  Uiso   1.00
C1002  C     0.14577   0.52138   0.85602   0.00000  Uiso   1.00
C1003  C     0.13816   0.53123   0.89874   0.00000  Uiso   1.00
C1004  C     0.19659   0.46891   0.60185   0.00000  Uiso   1.00
C1005  C     0.10924   0.57351   0.95962   0.00000  Uiso   1.00
C1006  C     0.02440   0.53610   0.70798   0.00000  Uiso   1.00
C1007  C     0.15639   0.50847   0.91870   0.00000  Uiso   1.00
C1008  C     0.31344   0.46323   0.79238   0.00000  Uiso   1.00
C1009  C     0.30067   0.42082   0.78200   0.00000  Uiso   1.00
C1010  C     0.27377   0.39611   0.81060   0.00000  Uiso   1.00
C1011  C     0.25982   0.41345   0.84966   0.00000  Uiso   1.00
C1012  C     0.27293   0.45549   0.86025   0.00000  Uiso   1.00
C1013  C     0.29973   0.48036   0.83174   0.00000  Uiso   1.00
C1014  C     0.22055   0.39335   0.96148   0.00000  Uiso   1.00
C1015  C     0.26526   0.39252   0.94990   0.00000  Uiso   1.00
C1016  C     0.28281   0.35669   0.92866   0.00000  Uiso   1.00
C1017  C     0.25589   0.65495   0.91878   0.00000  Uiso   1.00
C1018  C     0.15026   0.51656   0.95956   0.00000  Uiso   1.00
C1019  C     0.21138   0.65567   0.93007   0.00000  Uiso   1.00
C1020  C     0.19369   0.35812   0.95127   0.00000  Uiso   1.00
C1021  C     0.12755   0.55066   0.97965   0.00000  Uiso   1.00
C1022  C     0.16682   0.49232   0.98073   0.00000  Uiso   1.00
C1023  C     0.16420   0.50523   0.52103   0.00000  Uiso   1.00
C1024  C     0.14197   0.54011   0.53969   0.00000  Uiso   1.00
C1025  C     0.12353   0.56184   0.51946   0.00000  Uiso   1.00
H1026  H     0.10630   0.58795   0.53510   0.00000  Uiso   1.00
H1027  H     0.13698   0.55102   0.57037   0.00000  Uiso   1.00
H1028  H     0.18450   0.44193   0.93361   0.00000  Uiso   1.00
H1029  H     0.08180   0.54365   0.66711   0.00000  Uiso   1.00
H1030  H     0.31115   0.40718   0.75178   0.00000  Uiso   1.00
H1031  H     0.26362   0.36354   0.80247   0.00000  Uiso   1.00
H1032  H     0.23887   0.39432   0.87169   0.00000  Uiso   1.00
H1033  H     0.26225   0.46884   0.89053   0.00000  Uiso   1.00
H1034  H     0.30948   0.51297   0.84017   0.00000  Uiso   1.00
H1035  H     0.28639   0.41963   0.95718   0.00000  Uiso   1.00
H1036  H     0.31728   0.35615   0.91976   0.00000  Uiso   1.00
H1037  H     0.22980   0.39159   0.53054   0.00000  Uiso   1.00
H1038  H     0.26953   0.62726   0.90230   0.00000  Uiso   1.00
H1039  H     0.19063   0.62855   0.92225   0.00000  Uiso   1.00
H1040  H     0.15917   0.35841   0.95972   0.00000  Uiso   1.00
H1041  H     0.20889   0.33662   0.71708   0.00000  Uiso   1.00
H1042  H     0.12324   0.66502   0.78286   0.00000  Uiso   1.00
H1043  H     0.16993   0.52221   0.59757   0.00000  Uiso   1.00
H1044  H     0.22404   0.41215   0.59962   0.00000  Uiso   1.00
H1045  H     0.09145   0.59934   0.97496   0.00000  Uiso   1.00
H1046  H     0.09986   0.58170   0.90456   0.00000  Uiso   1.00
H1047  H     0.17640   0.48539   0.90132   0.00000  Uiso   1.00
O1048  O     0.16667   0.50000   0.75000   0.00000  Uiso   1.00
O1049  O     0.15693   0.45726   0.66625   0.00000  Uiso   1.00
O1050  O     0.12687   0.53979   0.83749   0.00000  Uiso   1.00
O1051  O     0.21088   0.50826   0.65877   0.00000  Uiso   1.00
O1052  O     0.17198   0.49468   0.83749   0.00000  Uiso   1.00
O1053  O     0.01419   0.56853   0.70161   0.00000  Uiso   1.00
O1054  O     0.06432   0.52334   0.68655   0.00000  Uiso   1.00
O1055  O     0.17849   0.41434   0.77820   0.00000  Uiso   1.00
O1056  O     0.14581   0.59469   0.76767   0.00000  Uiso   1.00
O1057  O     0.07452   0.46584   0.73607   0.00000  Uiso   1.00
O1058  O     0.26785   0.52512   0.71805   0.00000  Uiso   1.00
O1059  O     0.06990   0.52293   0.77820   0.00000  Uiso   1.00
O1060  O     0.25440   0.48610   0.76767   0.00000  Uiso   1.00
O1061  O     0.13800   0.40236   0.73607   0.00000  Uiso   1.00
O1062  O     0.20437   0.58860   0.71805   0.00000  Uiso   1.00
Zn1063 Zn    0.19244   0.47423   0.78277   0.00000  Uiso   1.00
Zn1064 Zn    0.13459   0.45711   0.72257   0.00000  Uiso   1.00
Zn1065 Zn    0.21166   0.52997   0.71188   0.00000  Uiso   1.00
Zn1066 Zn    0.12798   0.53868   0.78277   0.00000  Uiso   1.00
C1067  C     0.38609   0.49300   0.75883   0.00000  Uiso   1.00
C1068  C     0.51796   0.45494   0.96304   0.00000  Uiso   1.00
C1069  C     0.53530   0.43169   0.98304   0.00000  Uiso   1.00
C1070  C     0.61438   0.50719   0.74146   0.00000  Uiso   1.00
C1071  C     0.53439   0.44483   0.52248   0.00000  Uiso   1.00
C1072  C     0.51592   0.48202   0.54163   0.00000  Uiso   1.00
C1073  C     0.54992   0.42051   0.54379   0.00000  Uiso   1.00
C1074  C     0.54694   0.43214   0.58331   0.00000  Uiso   1.00
C1075  C     0.51562   0.49411   0.58123   0.00000  Uiso   1.00
C1076  C     0.66052   0.51006   0.73807   0.00000  Uiso   1.00
C1077  C     0.34118   0.48983   0.76199   0.00000  Uiso   1.00
C1078  C     0.44739   0.56351   0.91948   0.00000  Uiso   1.00
C1079  C     0.51459   0.65566   0.73839   0.00000  Uiso   1.00
C1080  C     0.48478   0.34529   0.76173   0.00000  Uiso   1.00
C1081  C     0.48925   0.38944   0.75878   0.00000  Uiso   1.00
C1082  C     0.51027   0.61101   0.74137   0.00000  Uiso   1.00
C1083  C     0.52162   0.47835   0.64411   0.00000  Uiso   1.00
C1084  C     0.47911   0.52138   0.85602   0.00000  Uiso   1.00
C1085  C     0.47150   0.53123   0.89874   0.00000  Uiso   1.00
C1086  C     0.52992   0.46891   0.60185   0.00000  Uiso   1.00
C1087  C     0.44257   0.57351   0.95962   0.00000  Uiso   1.00
C1088  C     0.35774   0.53610   0.70798   0.00000  Uiso   1.00
C1089  C     0.48972   0.50847   0.91870   0.00000  Uiso   1.00
C1090  C     0.64677   0.46323   0.79238   0.00000  Uiso   1.00
C1091  C     0.63401   0.42082   0.78200   0.00000  Uiso   1.00
C1092  C     0.60710   0.39611   0.81060   0.00000  Uiso   1.00
C1093  C     0.59315   0.41345   0.84966   0.00000  Uiso   1.00
C1094  C     0.60626   0.45549   0.86025   0.00000  Uiso   1.00
C1095  C     0.63306   0.48036   0.83174   0.00000  Uiso   1.00
C1096  C     0.55389   0.39335   0.96148   0.00000  Uiso   1.00
C1097  C     0.59859   0.39252   0.94990   0.00000  Uiso   1.00
C1098  C     0.61614   0.35669   0.92866   0.00000  Uiso   1.00
C1099  C     0.58923   0.65495   0.91878   0.00000  Uiso   1.00
C1100  C     0.48360   0.51656   0.95956   0.00000  Uiso   1.00
C1101  C     0.54472   0.65567   0.93007   0.00000  Uiso   1.00
C1102  C     0.52703   0.35812   0.95127   0.00000  Uiso   1.00
C1103  C     0.46088   0.55066   0.97965   0.00000  Uiso   1.00
C1104  C     0.50015   0.49232   0.98073   0.00000  Uiso   1.00
C1105  C     0.49754   0.50523   0.52103   0.00000  Uiso   1.00
C1106  C     0.47530   0.54011   0.53969   0.00000  Uiso   1.00
C1107  C     0.45686   0.56184   0.51946   0.00000  Uiso   1.00
H1108  H     0.43963   0.58795   0.53510   0.00000  Uiso   1.00
H1109  H     0.47031   0.55102   0.57037   0.00000  Uiso   1.00
H1110  H     0.51783   0.44193   0.93361   0.00000  Uiso   1.00
H1111  H     0.41513   0.54365   0.66711   0.00000  Uiso   1.00
H1112  H     0.64448   0.40718   0.75178   0.00000  Uiso   1.00
H1113  H     0.59696   0.36354   0.80247   0.00000  Uiso   1.00
H1114  H     0.57220   0.39432   0.87169   0.00000  Uiso   1.00
H1115  H     0.59558   0.46884   0.89053   0.00000  Uiso   1.00
H1116  H     0.64281   0.51297   0.84017   0.00000  Uiso   1.00
H1117  H     0.61973   0.41963   0.95718   0.00000  Uiso   1.00
H1118  H     0.65062   0.35615   0.91976   0.00000  Uiso   1.00
H1119  H     0.56313   0.39159   0.53054   0.00000  Uiso   1.00
H1120  H     0.60286   0.62726   0.90230   0.00000  Uiso   1.00
H1121  H     0.52397   0.62855   0.92225   0.00000  Uiso   1.00
H1122  H     0.49251   0.35841   0.95972   0.00000  Uiso   1.00
H1123  H     0.54223   0.33662   0.71708   0.00000  Uiso   1.00
H1124  H     0.45658   0.66502   0.78286   0.00000  Uiso   1.00
H1125  H     0.50326   0.52221   0.59757   0.00000  Uiso   1.00
H1126  H     0.55737   0.41215   0.59962   0.00000  Uiso   1.00
H1127  H     0.42478   0.59934   0.97496   0.00000  Uiso   1.00
H1128  H     0.43319   0.58170   0.90456   0.00000  Uiso   1.00
H1129  H     0.50973   0.48539   0.90132   0.00000  Uiso   1.00
O1130  O     0.50000   0.50000   0.75000   0.00000  Uiso   1.00
O1131  O     0.49027   0.45726   0.66625   0.00000  Uiso   1.00
O1132  O     0.46020   0.53979   0.83749   0.00000  Uiso   1.00
O1133  O     0.54421   0.50826   0.65877   0.00000  Uiso   1.00
O1134  O     0.50532   0.49468   0.83749   0.00000  Uiso   1.00
O1135  O     0.34752   0.56853   0.70161   0.00000  Uiso   1.00
O1136  O     0.39765   0.52334   0.68655   0.00000  Uiso   1.00
O1137  O     0.51182   0.41434   0.77820   0.00000  Uiso   1.00
O1138  O     0.47914   0.59469   0.76767   0.00000  Uiso   1.00
O1139  O     0.40785   0.46584   0.73607   0.00000  Uiso   1.00
O1140  O     0.60119   0.52512   0.71805   0.00000  Uiso   1.00
O1141  O     0.40323   0.52293   0.77820   0.00000  Uiso   1.00
O1142  O     0.58773   0.48610   0.76767   0.00000  Uiso   1.00
O1143  O     0.47133   0.40236   0.73607   0.00000  Uiso   1.00
O1144  O     0.53771   0.58860   0.71805   0.00000  Uiso   1.00
Zn1145 Zn    0.52577   0.47423   0.78277   0.00000  Uiso   1.00
Zn1146 Zn    0.46792   0.45711   0.72257   0.00000  Uiso   1.00
Zn1147 Zn    0.54500   0.52997   0.71188   0.00000  Uiso   1.00
Zn1148 Zn    0.46131   0.53868   0.78277   0.00000  Uiso   1.00
C1149  C     0.71943   0.49300   0.75883   0.00000  Uiso   1.00
C1150  C     0.85129   0.45494   0.96304   0.00000  Uiso   1.00
C1151  C     0.86863   0.43169   0.98304   0.00000  Uiso   1.00
C1152  C     0.94771   0.50719   0.74146   0.00000  Uiso   1.00
C1153  C     0.86773   0.44483   0.52248   0.00000  Uiso   1.00
C1154  C     0.84926   0.48202   0.54163   0.00000  Uiso   1.00
C1155  C     0.88326   0.42051   0.54379   0.00000  Uiso   1.00
C1156  C     0.88027   0.43214   0.58331   0.00000  Uiso   1.00
C1157  C     0.84895   0.49411   0.58123   0.00000  Uiso   1.00
C1158  C     0.99385   0.51006   0.73807   0.00000  Uiso   1.00
C1159  C     0.67451   0.48983   0.76199   0.00000  Uiso   1.00
C1160  C     0.78073   0.56351   0.91948   0.00000  Uiso   1.00
C1161  C     0.84793   0.65566   0.73839   0.00000  Uiso   1.00
C1162  C     0.81811   0.34529   0.76173   0.00000  Uiso   1.00
C1163  C     0.82258   0.38944   0.75878   0.00000  Uiso   1.00
C1164  C     0.84361   0.61101   0.74137   0.00000  Uiso   1.00
C1165  C     0.85495   0.47835   0.64411   0.00000  Uiso   1.00
C1166  C     0.81244   0.52138   0.85602   0.00000  Uiso   1.00
C1167  C     0.80483   0.53123   0.89874   0.00000  Uiso   1.00
C1168  C     0.86326   0.46891   0.60185   0.00000  Uiso   1.00
C1169  C     0.77591   0.57351   0.95962   0.00000  Uiso   1.00
C1170  C     0.69107   0.53610   0.70798   0.00000  Uiso   1.00
C1171  C     0.82305   0.50847   0.91870   0.00000  Uiso   1.00
C1172  C     0.98010   0.46323   0.79238   0.00000  Uiso   1.00
C1173  C     0.96734   0.42082   0.78200   0.00000  Uiso   1.00
C1174  C     0.94043   0.39611   0.81060   0.00000  Uiso   1.00
C1175  C     0.92648   0.41345   0.84966   0.00000  Uiso   1.00
C1176  C     0.93959   0.45549   0.86025   0.00000  Uiso   1.00
C1177  C     0.96639   0.48036   0.83174   0.00000  Uiso   1.00
C1178  C     0.88722   0.39335   0.96148   0.00000  Uiso   1.00
C1179  C     0.93192   0.39252   0.94990   0.00000  Uiso   1.00
C1180  C     0.94948   0.35669   0.92866   0.00000  Uiso   1.00
C1181  C     0.92256   0.65495   0.91878   0.00000  Uiso   1.00
C1182  C     0.81693   0.51656   0.95956   0.00000  Uiso   1.00
C1183  C     0.87805   0.65567   0.93007   0.00000  Uiso   1.00
C1184  C     0.86036   0.35812   0.95127   0.00000  Uiso   1.00
C1185  C     0.79421   0.55066   0.97965   0.00000  Uiso   1.00
C1186  C     0.83348   0.49232   0.98073   0.00000  Uiso   1.00
C1187  C     0.83087   0.50523   0.52103   0.00000  Uiso   1.00
C1188  C     0.80863   0.54011   0.53969   0.00000  Uiso   1.00
C1189  C     0.79020   0.56184   0.51946   0.00000  Uiso   1.00
H1190  H     0.77296   0.58795   0.53510   0.00000  Uiso   1.00
H1191  H     0.80364   0.55102   0.57037   0.00000  Uiso   1.00
H1192  H     0.85116   0.44193   0.93361   0.00000  Uiso   1.00
H1193  H     0.74846   0.54365   0.66711   0.00000  Uiso   1.00
H1194  H     0.97781   0.40718   0.75178   0.00000  Uiso   1.00
H1195  H     0.93029   0.36354   0.80247   0.00000  Uiso   1.00
H1196  H     0.90553   0.39432   0.87169   0.00000  Uiso   1.00
H1197  H     0.92891   0.46884   0.89053   0.00000  Uiso   1.00
H1198  H     0.97614   0.51297   0.84017   0.00000  Uiso   1.00
H1199  H     0.95306   0.41963   0.95718   0.00000  Uiso   1.00
H1200  H     0.98395   0.35615   0.91976   0.00000  Uiso   1.00
H1201  H     0.89647   0.39159   0.53054   0.00000  Uiso   1.00
H1202  H     0.93619   0.62726   0.90230   0.00000  Uiso   1.00
H1203  H     0.85730   0.62855   0.92225   0.00000  Uiso   1.00
H1204  H     0.82584   0.35841   0.95972   0.00000  Uiso   1.00
H1205  H     0.87556   0.33662   0.71708   0.00000  Uiso   1.00
H1206  H     0.78991   0.66502   0.78286   0.00000  Uiso   1.00
H1207  H     0.83659   0.52221   0.59757   0.00000  Uiso   1.00
H1208  H     0.89070   0.41215   0.59962   0.00000  Uiso   1.00
H1209  H     0.75812   0.59934   0.97496   0.00000  Uiso   1.00
H1210  H     0.76653   0.58170   0.90456   0.00000  Uiso   1.00
H1211  H     0.84306   0.48539   0.90132   0.00000  Uiso   1.00
O1212  O     0.83333   0.50000   0.75000   0.00000  Uiso   1.00
O1213  O     0.82360   0.45726   0.66625   0.00000  Uiso   1.00
O1214  O     0.79354   0.53979   0.83749   0.00000  Uiso   1.00
O1215  O     0.87755   0.50826   0.65877   0.00000  Uiso   1.00
O1216  O     0.83865   0.49468   0.83749   0.00000  Uiso   1.00
O1217  O     0.68086   0.56853   0.70161   0.00000  Uiso   1.00
O1218  O     0.73099   0.52334   0.68655   0.00000  Uiso   1.00
O1219  O     0.84515   0.41434   0.77820   0.00000  Uiso   1.00
O1220  O     0.81247   0.59469   0.76767   0.00000  Uiso   1.00
O1221  O     0.74119   0.46584   0.73607   0.00000  Uiso   1.00
O1222  O     0.93452   0.52512   0.71805   0.00000  Uiso   1.00
O1223  O     0.73656   0.52293   0.77820   0.00000  Uiso   1.00
O1224  O     0.92106   0.48610   0.76767   0.00000  Uiso   1.00
O1225  O     0.80467   0.40236   0.73607   0.00000  Uiso   1.00
O1226  O     0.87104   0.58860   0.71805   0.00000  Uiso   1.00
Zn1227 Zn    0.85910   0.47423   0.78277   0.00000  Uiso   1.00
Zn1228 Zn    0.80125   0.45711   0.72257   0.00000  Uiso   1.00
Zn1229 Zn    0.87833   0.52997   0.71188   0.00000  Uiso   1.00
Zn1230 Zn    0.79465   0.53868   0.78277   0.00000  Uiso   1.00
C1231  C     0.05276   0.82633   0.75883   0.00000  Uiso   1.00
C1232  C     0.18463   0.78827   0.96304   0.00000  Uiso   1.00
C1233  C     0.20196   0.76502   0.98304   0.00000  Uiso   1.00
C1234  C     0.28105   0.84052   0.74146   0.00000  Uiso   1.00
C1235  C     0.20106   0.77816   0.52248   0.00000  Uiso   1.00
C1236  C     0.18259   0.81536   0.54163   0.00000  Uiso   1.00
C1237  C     0.21659   0.75385   0.54379   0.00000  Uiso   1.00
C1238  C     0.21360   0.76548   0.58331   0.00000  Uiso   1.00
C1239  C     0.18229   0.82744   0.58123   0.00000  Uiso   1.00
C1240  C     0.32719   0.84339   0.73807   0.00000  Uiso   1.00
C1241  C     0.00785   0.82316   0.76199   0.00000  Uiso   1.00
C1242  C     0.11406   0.89685   0.91948   0.00000  Uiso   1.00
C1243  C     0.18126   0.98900   0.73839   0.00000  Uiso   1.00
C1244  C     0.15145   0.67862   0.76173   0.00000  Uiso   1.00
C1245  C     0.15592   0.72278   0.75878   0.00000  Uiso   1.00
C1246  C     0.17694   0.94435   0.74137   0.00000  Uiso   1.00
C1247  C     0.18829   0.81168   0.64411   0.00000  Uiso   1.00
C1248  C     0.14577   0.85471   0.85602   0.00000  Uiso   1.00
C1249  C     0.13816   0.86456   0.89874   0.00000  Uiso   1.00
C1250  C     0.19659   0.80224   0.60185   0.00000  Uiso   1.00
C1251  C     0.10924   0.90684   0.95962   0.00000  Uiso   1.00
C1252  C     0.02440   0.86943   0.70798   0.00000  Uiso   1.00
C1253  C     0.15639   0.84180   0.91870   0.00000  Uiso   1.00
C1254  C     0.31344   0.79656   0.79238   0.00000  Uiso   1.00
C1255  C     0.30067   0.75416   0.78200   0.00000  Uiso   1.00
C1256  C     0.27377   0.72944   0.81060   0.00000  Uiso   1.00
C1257  C     0.25982   0.74679   0.84966   0.00000  Uiso   1.00
C1258  C     0.27293   0.78882   0.86025   0.00000  Uiso   1.00
C1259  C     0.29973   0.81369   0.83174   0.00000  Uiso   1.00
C1260  C     0.22055   0.72669   0.96148   0.00000  Uiso   1.00
C1261  C     0.26526   0.72585   0.94990   0.00000  Uiso   1.00
C1262  C     0.28281   0.69002   0.92866   0.00000  Uiso   1.00
C1263  C     0.25589   0.98828   0.91878   0.00000  Uiso   1.00
C1264  C     0.15026   0.84989   0.95956   0.00000  Uiso   1.00
C1265  C     0.21138   0.98900   0.93007   0.00000  Uiso   1.00
C1266  C     0.19369   0.69145   0.95127   0.00000  Uiso   1.00
C1267  C     0.12755   0.88399   0.97965   0.00000  Uiso   1.00
C1268  C     0.16682   0.82566   0.98073   0.00000  Uiso   1.00
C1269  C     0.16420   0.83856   0.52103   0.00000  Uiso   1.00
C1270  C     0.14197   0.87344   0.53969   0.00000  Uiso   1.00
C1271  C     0.12353   0.89518   0.51946   0.00000  Uiso   1.00
H1272  H     0.10630   0.92129   0.53510   0.00000  Uiso   1.00
H1273  H     0.13698   0.88436   0.57037   0.00000  Uiso   1.00
H1274  H     0.18450   0.77526   0.93361   0.00000  Uiso   1.00
H1275  H     0.08180   0.87698   0.66711   0.00000  Uiso   1.00
H1276  H     0.31115   0.74051   0.75178   0.00000  Uiso   1.00
H1277  H     0.26362   0.69687   0.80247   0.00000  Uiso   1.00
H1278  H     0.23887   0.72765   0.87169   0.00000  Uiso   1.00
H1279  H     0.26225   0.80217   0.89053   0.00000  Uiso   1.00
H1280  H     0.30948   0.84630   0.84017   0.00000  Uiso   1.00
H1281  H     0.28639   0.75297   0.95718   0.00000  Uiso   1.00
H1282  H     0.31728   0.68949   0.91976   0.00000  Uiso   1.00
H1283  H     0.22980   0.72492   0.53054   0.00000  Uiso   1.00
H1284  H     0.26953   0.96059   0.90230   0.00000  Uiso   1.00
H1285  H     0.19063   0.96188   0.92225   0.00000  Uiso   1.00
H1286  H     0.15917   0.69175   0.95972   0.00000  Uiso   1.00
H1287  H     0.20889   0.66996   0.71708   0.00000  Uiso   1.00
H1288  H     0.12324   0.99835   0.78286   0.00000  Uiso   1.00
H1289  H     0.16993   0.85554   0.59757   0.00000  Uiso   1.00
H1290  H     0.22404   0.74548   0.59962   0.00000  Uiso   1.00
H1291  H     0.09145   0.93267   0.97496   0.00000  Uiso   1.00
H1292  H     0.09986   0.91503   0.90456   0.00000  Uiso   1.00
H1293  H     0.17640   0.81872   0.90132   0.00000  Uiso   1.00
O1294  O     0.16667   0.83333   0.75000   0.00000  Uiso   1.00
O1295  O     0.15693   0.79060   0.66625   0.00000  Uiso   1.00
O1296  O     0.12687   0.87313   0.83749   0.00000  Uiso   1.00
O1297  O     0.21088   0.84159   0.65877   0.00000  Uiso   1.00
O1298  O     0.17198   0.82802   0.83749   0.00000  Uiso   1.00
O1299  O     0.01419   0.90186   0.70161   0.00000  Uiso   1.00
O1300  O     0.06432   0.85667   0.68655   0.00000  Uiso   1.00
O1301  O     0.17849   0.74768   0.77820   0.00000  Uiso   1.00
O1302  O     0.14581   0.92803   0.76767   0.00000  Uiso   1.00
O1303  O     0.07452   0.79917   0.73607   0.00000  Uiso   1.00
O1304  O     0.26785   0.85845   0.71805   0.00000  Uiso   1.00
O1305  O     0.06990   0.85627   0.77820   0.00000  Uiso   1.00
O1306  O     0.25440   0.81944   0.76767   0.00000  Uiso   1.00
O1307  O     0.13800   0.73570   0.73607   0.00000  Uiso   1.00
O1308  O     0.20437   0.92193   0.71805   0.00000  Uiso   1.00
Zn1309 Zn    0.19244   0.80756   0.78277   0.00000  Uiso   1.00
Zn1310 Zn    0.13459   0.79044   0.72257   0.00000  Uiso   1.00
Zn1311 Zn    0.21166   0.86331   0.71188   0.00000  Uiso   1.00
Zn1312 Zn    0.12798   0.87202   0.78277   0.00000  Uiso   1.00
C1313  C     0.38609   0.82633   0.75883   0.00000  Uiso   1.00
C1314  C     0.51796   0.78827   0.96304   0.00000  Uiso   1.00
C1315  C     0.53530   0.76502   0.98304   0.00000  Uiso   1.00
C1316  C     0.61438   0.84052   0.74146   0.00000  Uiso   1.00
C1317  C     0.53439   0.77816   0.52248   0.00000  Uiso   1.00
C1318  C     0.51592   0.81536   0.54163   0.00000  Uiso   1.00
C1319  C     0.54992   0.75385   0.54379   0.00000  Uiso   1.00
C1320  C     0.54694   0.76548   0.58331   0.00000  Uiso   1.00
C1321  C     0.51562   0.82744   0.58123   0.00000  Uiso   1.00
C1322  C     0.66052   0.84339   0.73807   0.00000  Uiso   1.00
C1323  C     0.34118   0.82316   0.76199   0.00000  Uiso   1.00
C1324  C     0.44739   0.89685   0.91948   0.00000  Uiso   1.00
C1325  C     0.51459   0.98900   0.73839   0.00000  Uiso   1.00
C1326  C     0.48478   0.67862   0.76173   0.00000  Uiso   1.00
C1327  C     0.48925   0.72278   0.75878   0.00000  Uiso   1.00
C1328  C     0.51027   0.94435   0.74137   0.00000  Uiso   1.00
C1329  C     0.52162   0.81168   0.64411   0.00000  Uiso   1.00
C1330  C     0.47911   0.85471   0.85602   0.00000  Uiso   1.00
C1331  C     0.47150   0.86456   0.89874   0.00000  Uiso   1.00
C1332  C     0.52992   0.80224   0.60185   0.00000  Uiso   1.00
C1333  C     0.44257   0.90684   0.95962   0.00000  Uiso   1.00
C1334  C     0.35774   0.86943   0.70798   0.00000  Uiso   1.00
C1335  C     0.48972   0.84180   0.91870   0.00000  Uiso   1.00
C1336  C     0.64677   0.79656   0.79238   0.00000  Uiso   1.00
C1337  C     0.63401   0.75416   0.78200   0.00000  Uiso   1.00
C1338  C     0.60710   0.72944   0.81060   0.00000  Uiso   1.00
C1339  C     0.59315   0.74679   0.84966   0.00000  Uiso   1.00
C1340  C     0.60626   0.78882   0.86025   0.00000  Uiso   1.00
C1341  C     0.63306   0.81369   0.83174   0.00000  Uiso   1.00
C1342  C     0.55389   0.72669   0.96148   0.00000  Uiso   1.00
C1343  C     0.59859   0.72585   0.94990   0.00000  Uiso   1.00
C1344  C     0.61614   0.69002   0.92866   0.00000  Uiso   1.00
C1345  C     0.58923   0.98828   0.91878   0.00000  Uiso   1.00
C1346  C     0.48360   0.84989   0.95956   0.00000  Uiso   1.00
C1347  C     0.54472   0.98900   0.93007   0.00000  Uiso   1.00
C1348  C     0.52703   0.69145   0.95127   0.00000  Uiso   1.00
C1349  C     0.46088   0.88399   0.97965   0.00000  Uiso   1.00
C1350  C     0.50015   0.82566   0.98073   0.00000  Uiso   1.00
C1351  C     0.49754   0.83856   0.52103   0.00000  Uiso   1.00
C1352  C     0.47530   0.87344   0.53969   0.00000  Uiso   1.00
C1353  C     0.45686   0.89518   0.51946   0.00000  Uiso   1.00
H1354  H     0.43963   0.92129   0.53510   0.00000  Uiso   1.00
H1355  H     0.47031   0.88436   0.57037   0.00000  Uiso   1.00
H1356  H     0.51783   0.77526   0.93361   0.00000  Uiso   1.00
H1357  H     0.41513   0.87698   0.66711   0.00000  Uiso   1.00
H1358  H     0.64448   0.74051   0.75178   0.00000  Uiso   1.00
H1359  H     0.59696   0.69687   0.80247   0.00000  Uiso   1.00
H1360  H     0.57220   0.72765   0.87169   0.00000  Uiso   1.00
H1361  H     0.59558   0.80217   0.89053   0.00000  Uiso   1.00
H1362  H     0.64281   0.84630   0.84017   0.00000  Uiso   1.00
H1363  H     0.61973   0.75297   0.95718   0.00000  Uiso   1.00
H1364  H     0.65062   0.68949   0.91976   0.00000  Uiso   1.00
H1365  H     0.56313   0.72492   0.53054   0.00000  Uiso   1.00
H1366  H     0.60286   0.96059   0.90230   0.00000  Uiso   1.00
H1367  H     0.52397   0.96188   0.92225   0.00000  Uiso   1.00
H1368  H     0.49251   0.69175   0.95972   0.00000  Uiso   1.00
H1369  H     0.54223   0.66996   0.71708   0.00000  Uiso   1.00
H1370  H     0.45658   0.99835   0.78286   0.00000  Uiso   1.00
H1371  H     0.50326   0.85554   0.59757   0.00000  Uiso   1.00
H1372  H     0.55737   0.74548   0.59962   0.00000  Uiso   1.00
H1373  H     0.42478   0.93267   0.97496   0.00000  Uiso   1.00
H1374  H     0.43319   0.91503   0.90456   0.00000  Uiso   1.00
H1375  H     0.50973   0.81872   0.90132   0.00000  Uiso   1.00
O1376  O     0.50000   0.83333   0.75000   0.00000  Uiso   1.00
O1377  O     0.49027   0.79060   0.66625   0.00000  Uiso   1.00
O1378  O     0.46020   0.87313   0.83749   0.00000  Uiso   1.00
O1379  O     0.54421   0.84159   0.65877   0.00000  Uiso   1.00
O1380  O     0.50532   0.82802   0.83749   0.00000  Uiso   1.00
O1381  O     0.34752   0.90186   0.70161   0.00000  Uiso   1.00
O1382  O     0.39765   0.85667   0.68655   0.00000  Uiso   1.00
O1383  O     0.51182   0.74768   0.77820   0.00000  Uiso   1.00
O1384  O     0.47914   0.92803   0.76767   0.00000  Uiso   1.00
O1385  O     0.40785   0.79917   0.73607   0.00000  Uiso   1.00
O1386  O     0.60119   0.85845   0.71805   0.00000  Uiso   1.00
O1387  O     0.40323   0.85627   0.77820   0.00000  Uiso   1.00
O1388  O     0.58773   0.81944   0.76767   0.00000  Uiso   1.00
O1389  O     0.47133   0.73570   0.73607   0.00000  Uiso   1.00
O1390  O     0.53771   0.92193   0.71805   0.00000  Uiso   1.00
Zn1391 Zn    0.52577   0.80756   0.78277   0.00000  Uiso   1.00
Zn1392 Zn    0.46792   0.79044   0.72257   0.00000  Uiso   1.00
Zn1393 Zn    0.54500   0.86331   0.71188   0.00000  Uiso   1.00
Zn1394 Zn    0.46131   0.87202   0.78277   0.00000  Uiso   1.00
C1395  C     0.71943   0.82633   0.75883   0.00000  Uiso   1.00
C1396  C     0.85129   0.78827   0.96304   0.00000  Uiso   1.00
C1397  C     0.86863   0.76502   0.98304   0.00000  Uiso   1.00
C1398  C     0.94771   0.84052   0.74146   0.00000  Uiso   1.00
C1399  C     0.86773   0.77816   0.52248   0.00000  Uiso   1.00
C1400  C     0.84926   0.81536   0.54163   0.00000  Uiso   1.00
C1401  C     0.88326   0.75385   0.54379   0.00000  Uiso   1.00
C1402  C     0.88027   0.76548   0.58331   0.00000  Uiso   1.00
C1403  C     0.84895   0.82744   0.58123   0.00000  Uiso   1.00
C1404  C     0.99385   0.84339   0.73807   0.00000  Uiso   1.00
C1405  C     0.67451   0.82316   0.76199   0.00000  Uiso   1.00
C1406  C     0.78073   0.89685   0.91948   0.00000  Uiso   1.00
C1407  C     0.84793   0.98900   0.73839   0.00000  Uiso   1.00
C1408  C     0.81811   0.67862   0.76173   0.00000  Uiso   1.00
C1409  C     0.82258   0.72278   0.75878   0.00000  Uiso   1.00
C1410  C     0.84361   0.94435   0.74137   0.00000  Uiso   1.00
C1411  C     0.85495   0.81168   0.64411   0.00000  Uiso   1.00
C1412  C     0.81244   0.85471   0.85602   0.00000  Uiso   1.00
C1413  C     0.80483   0.86456   0.89874   0.00000  Uiso   1.00
C1414  C     0.86326   0.80224   0.60185   0.00000  Uiso   1.00
C1415  C     0.77591   0.90684   0.95962   0.00000  Uiso   1.00
C1416  C     0.69107   0.86943   0.70798   0.00000  Uiso   1.00
C1417  C     0.82305   0.84180   0.91870   0.00000  Uiso   1.00
C1418  C     0.98010   0.79656   0.79238   0.00000  Uiso   1.00
C1419  C     0.96734   0.75416   0.78200   0.00000  Uiso   1.00
C1420  C     0.94043   0.72944   0.81060   0.00000  Uiso   1.00
C1421  C     0.92648   0.74679   0.84966   0.00000  Uiso   1.00
C1422  C     0.93959   0.78882   0.86025   0.00000  Uiso   1.00
C1423  C     0.96639   0.81369   0.83174   0.00000  Uiso   1.00
C1424  C     0.88722   0.72669   0.96148   0.00000  Uiso   1.00
C1425  C     0.93192   0.72585   0.94990   0.00000  Uiso   1.00
C1426  C     0.94948   0.69002   0.92866   0.00000  Uiso   1.00
C1427  C     0.92256   0.98828   0.91878   0.00000  Uiso   1.00
C1428  C     0.81693   0.84989   0.95956   0.00000  Uiso   1.00
C1429  C     0.87805   0.98900   0.93007   0.00000  Uiso   1.00
C1430  C     0.86036   0.69145   0.95127   0.00000  Uiso   1.00
C1431  C     0.79421   0.88399   0.97965   0.00000  Uiso   1.00
C1432  C     0.83348   0.82566   0.98073   0.00000  Uiso   1.00
C1433  C     0.83087   0.83856   0.52103   0.00000  Uiso   1.00
C1434  C     0.80863   0.87344   0.53969   0.00000  Uiso   1.00
C1435  C     0.79020   0.89518   0.51946   0.00000  Uiso   1.00
H1436  H     0.77296   0.92129   0.53510   0.00000  Uiso   1.00
H1437  H     0.80364   0.88436   0.57037   0.00000  Uiso   1.00
H1438  H     0.85116   0.77526   0.93361   0.00000  Uiso   1.00
H1439  H     0.74846   0.87698   0.66711   0.00000  Uiso   1.00
H1440  H     0.97781   0.74051   0.75178   0.00000  Uiso   1.00
H1441  H     0.93029   0.69687   0.80247   0.00000  Uiso   1.00
H1442  H     0.90553   0.72765   0.87169   0.00000  Uiso   1.00
H1443  H     0.92891   0.80217   0.89053   0.00000  Uiso   1.00
H1444  H     0.97614   0.84630   0.84017   0.00000  Uiso   1.00
H1445  H     0.95306   0.75297   0.95718   0.00000  Uiso   1.00
H1446  H     0.98395   0.68949   0.91976   0.00000  Uiso   1.00
H1447  H     0.89647   0.72492   0.53054   0.00000  Uiso   1.00
H1448  H     0.93619   0.96059   0.90230   0.00000  Uiso   1.00
H1449  H     0.85730   0.96188   0.92225   0.00000  Uiso   1.00
H1450  H     0.82584   0.69175   0.95972   0.00000  Uiso   1.00
H1451  H     0.87556   0.66996   0.71708   0.00000  Uiso   1.00
H1452  H     0.78991   0.99835   0.78286   0.00000  Uiso   1.00
H1453  H     0.83659   0.85554   0.59757   0.00000  Uiso   1.00
H1454  H     0.89070   0.74548   0.59962   0.00000  Uiso   1.00
H1455  H     0.75812   0.93267   0.97496   0.00000  Uiso   1.00
H1456  H     0.76653   0.91503   0.90456   0.00000  Uiso   1.00
H1457  H     0.84306   0.81872   0.90132   0.00000  Uiso   1.00
O1458  O     0.83333   0.83333   0.75000   0.00000  Uiso   1.00
O1459  O     0.82360   0.79060   0.66625   0.00000  Uiso   1.00
O1460  O     0.79354   0.87313   0.83749   0.00000  Uiso   1.00
O1461  O     0.87755   0.84159   0.65877   0.00000  Uiso   1.00
O1462  O     0.83865   0.82802   0.83749   0.00000  Uiso   1.00
O1463  O     0.68086   0.90186   0.70161   0.00000  Uiso   1.00
O1464  O     0.73099   0.85667   0.68655   0.00000  Uiso   1.00
O1465  O     0.84515   0.74768   0.77820   0.00000  Uiso   1.00
O1466  O     0.81247   0.92803   0.76767   0.00000  Uiso   1.00
O1467  O     0.74119   0.79917   0.73607   0.00000  Uiso   1.00
O1468  O     0.93452   0.85845   0.71805   0.00000  Uiso   1.00
O1469  O     0.73656   0.85627   0.77820   0.00000  Uiso   1.00
O1470  O     0.92106   0.81944   0.76767   0.00000  Uiso   1.00
O1471  O     0.80467   0.73570   0.73607   0.00000  Uiso   1.00
O1472  O     0.87104   0.92193   0.71805   0.00000  Uiso   1.00
Zn1473 Zn    0.85910   0.80756   0.78277   0.00000  Uiso   1.00
Zn1474 Zn    0.80125   0.79044   0.72257   0.00000  Uiso   1.00
Zn1475 Zn    0.87833   0.86331   0.71188   0.00000  Uiso   1.00
Zn1476 Zn    0.79465   0.87202   0.78277   0.00000  Uiso   1.00
loop_
_geom_bond_atom_site_label_1
_geom_bond_atom_site_label_2
_geom_bond_distance
_geom_bond_site_symmetry_2
_ccdc_geom_bond_type
C1     C11     1.431   .     S
C1     O75     1.267   .     A
C1     O73     1.263   .     A
C2     H44     1.077   .     S
C2     C38     1.412   .     A
C2     C3      1.390   .     A
C3     C30     1.482   .     S
C3     C743    1.407   .     S
C4     O74     1.288   .     A
C4     C10     1.470   .     S
C4     O76     1.277   .     A
C5     C6      1.427   .     A
C5     C7      1.411   .     A
C5     C741    1.407   1_554 S
C6     C9      1.412   .     A
C6     C39     1.427   .     A
C7     C8      1.388   .     A
C7     H53     1.082   .     S
C8     C20     1.391   .     A
C8     H60     1.084   .     S
C9     H59     1.076   .     S
C9     C20     1.389   .     A
C10    C93     1.364   .     S
C10    C104    1.498   .     S
C11    C174    1.364   1_455 S
C11    C188    1.484   1_455 S
C12    C21     1.392   .     A
C12    H62     1.083   .     S
C12    C19     1.400   .     A
C13    C16     1.451   .     S
C13    C260    1.332   .     S
C13    H303    1.088   .     S
C14    C15     1.434   .     S
C14    C505    1.332   1_545 S
C14    H550    1.086   1_545 S
C15    O71     1.280   .     A
C15    O77     1.279   .     A
C16    O72     1.273   .     A
C16    O78     1.273   .     A
C17    C20     1.450   .     S
C17    O67     1.274   .     A
C17    O65     1.270   .     A
C18    O68     1.288   .     A
C18    C19     1.469   .     S
C18    O66     1.285   .     A
C19    C23     1.397   .     A
C21    H61     1.084   .     S
C21    C37     1.403   .     A
C22    O69     1.223   .     D
C22    O70     1.399   .     S
C22    C174    1.498   1_455 S
C23    H63     1.075   .     S
C23    C34     1.407   .     A
C24    C29     1.404   .     A
C24    C25     1.404   .     A
C24    C93     1.484   .     S
C25    C26     1.399   .     A
C25    H46     1.083   .     S
C26    C27     1.398   .     A
C26    H47     1.082   .     S
C27    H48     1.082   .     S
C27    C28     1.398   .     A
C28    C29     1.399   .     A
C28    H49     1.082   .     S
C29    H50     1.083   .     S
C30    C31     1.404   .     A
C30    C36     1.405   .     A
C31    C32     1.399   .     A
C31    H51     1.083   .     S
C32    H52     1.082   .     S
C32    C525    1.398   1_545 S
C33    H54     1.082   .     S
C33    C35     1.398   .     A
C33    C278    1.398   .     S
C34    C37     1.417   .     A
C34    C38     1.426   .     A
C35    H55     1.082   .     S
C35    C282    1.399   .     S
C36    H56     1.083   .     S
C36    C527    1.399   1_545 S
C37    C779    1.390   .     S
C38    C777    1.423   .     S
C39    C40     1.418   .     A
C39    C776    1.423   1_554 S
C40    H43     1.075   .     S
C40    C41     1.387   .     A
C41    H42     1.084   .     S
C41    C775    1.390   1_554 S
H45    O70     1.014   .     S
H57    C505    1.088   1_545 S
H58    C260    1.086   .     S
O64    Zn80    1.940   .     S
O64    Zn82    1.937   .     S
O64    Zn79    1.968   .     S
O64    Zn81    1.934   .     S
O65    Zn80    1.932   .     S
O66    Zn82    1.942   .     S
O67    Zn81    1.934   .     S
O68    Zn79    1.927   .     S
O71    Zn79    1.921   .     S
O72    Zn82    1.926   .     S
O73    Zn80    1.940   .     S
O74    Zn81    1.951   .     S
O75    Zn82    1.941   .     S
O76    Zn79    1.933   .     S
O77    Zn80    1.936   .     S
O78    Zn81    1.928   .     S
C83    C93     1.431   .     S
C83    O157    1.267   .     A
C83    O155    1.263   .     A
C84    H126    1.077   .     S
C84    C120    1.412   .     A
C84    C85     1.390   .     A
C85    C112    1.482   .     S
C85    C825    1.407   .     S
C86    O156    1.288   .     A
C86    C92     1.470   .     S
C86    O158    1.277   .     A
C87    C88     1.427   .     A
C87    C89     1.411   .     A
C87    C823    1.407   1_554 S
C88    C91     1.412   .     A
C88    C121    1.427   .     A
C89    C90     1.388   .     A
C89    H135    1.082   .     S
C90    C102    1.391   .     A
C90    H142    1.084   .     S
C91    H141    1.076   .     S
C91    C102    1.389   .     A
C92    C175    1.364   .     S
C92    C186    1.498   .     S
C94    C103    1.392   .     A
C94    H144    1.083   .     S
C94    C101    1.400   .     A
C95    C98     1.451   .     S
C95    C342    1.332   .     S
C95    H385    1.088   .     S
C96    C97     1.434   .     S
C96    C587    1.332   1_545 S
C96    H632    1.086   1_545 S
C97    O153    1.280   .     A
C97    O159    1.279   .     A
C98    O154    1.273   .     A
C98    O160    1.273   .     A
C99    C102    1.450   .     S
C99    O149    1.274   .     A
C99    O147    1.270   .     A
C100   O150    1.288   .     A
C100   C101    1.469   .     S
C100   O148    1.285   .     A
C101   C105    1.397   .     A
C103   H143    1.084   .     S
C103   C119    1.403   .     A
C104   O151    1.223   .     D
C104   O152    1.399   .     S
C105   H145    1.075   .     S
C105   C116    1.407   .     A
C106   C111    1.404   .     A
C106   C107    1.404   .     A
C106   C175    1.484   .     S
C107   C108    1.399   .     A
C107   H128    1.083   .     S
C108   C109    1.398   .     A
C108   H129    1.082   .     S
C109   H130    1.082   .     S
C109   C110    1.398   .     A
C110   C111    1.399   .     A
C110   H131    1.082   .     S
C111   H132    1.083   .     S
C112   C113    1.404   .     A
C112   C118    1.405   .     A
C113   C114    1.399   .     A
C113   H133    1.083   .     S
C114   H134    1.082   .     S
C114   C607    1.398   1_545 S
C115   H136    1.082   .     S
C115   C117    1.398   .     A
C115   C360    1.398   .     S
C116   C119    1.417   .     A
C116   C120    1.426   .     A
C117   H137    1.082   .     S
C117   C364    1.399   .     S
C118   H138    1.083   .     S
C118   C609    1.399   1_545 S
C119   C861    1.390   .     S
C120   C859    1.423   .     S
C121   C122    1.418   .     A
C121   C858    1.423   1_554 S
C122   H125    1.075   .     S
C122   C123    1.387   .     A
C123   H124    1.084   .     S
C123   C857    1.390   1_554 S
H127   O152    1.014   .     S
H139   C587    1.088   1_545 S
H140   C342    1.086   .     S
O146   Zn162   1.940   .     S
O146   Zn164   1.937   .     S
O146   Zn161   1.968   .     S
O146   Zn163   1.934   .     S
O147   Zn162   1.932   .     S
O148   Zn164   1.942   .     S
O149   Zn163   1.934   .     S
O150   Zn161   1.927   .     S
O153   Zn161   1.921   .     S
O154   Zn164   1.926   .     S
O155   Zn162   1.940   .     S
O156   Zn163   1.951   .     S
O157   Zn164   1.941   .     S
O158   Zn161   1.933   .     S
O159   Zn162   1.936   .     S
O160   Zn163   1.928   .     S
C165   C175    1.431   .     S
C165   O239    1.267   .     A
C165   O237    1.263   .     A
C166   H208    1.077   .     S
C166   C202    1.412   .     A
C166   C167    1.390   .     A
C167   C194    1.482   .     S
C167   C907    1.407   .     S
C168   O238    1.288   .     A
C168   C174    1.470   .     S
C168   O240    1.277   .     A
C169   C170    1.427   .     A
C169   C171    1.411   .     A
C169   C905    1.407   1_554 S
C170   C173    1.412   .     A
C170   C203    1.427   .     A
C171   C172    1.388   .     A
C171   H217    1.082   .     S
C172   C184    1.391   .     A
C172   H224    1.084   .     S
C173   H223    1.076   .     S
C173   C184    1.389   .     A
C174   C11     1.364   1_655 S
C174   C22     1.498   1_655 S
C176   C185    1.392   .     A
C176   H226    1.083   .     S
C176   C183    1.400   .     A
C177   C180    1.451   .     S
C177   C424    1.332   .     S
C177   H467    1.088   .     S
C178   C179    1.434   .     S
C178   C669    1.332   1_545 S
C178   H714    1.086   1_545 S
C179   O235    1.280   .     A
C179   O241    1.279   .     A
C180   O236    1.273   .     A
C180   O242    1.273   .     A
C181   C184    1.450   .     S
C181   O231    1.274   .     A
C181   O229    1.270   .     A
C182   O232    1.288   .     A
C182   C183    1.469   .     S
C182   O230    1.285   .     A
C183   C187    1.397   .     A
C185   H225    1.084   .     S
C185   C201    1.403   .     A
C186   O233    1.223   .     D
C186   O234    1.399   .     S
C187   H227    1.075   .     S
C187   C198    1.407   .     A
C188   C193    1.404   .     A
C188   C189    1.404   .     A
C188   C11     1.484   1_655 S
C189   C190    1.399   .     A
C189   H210    1.083   .     S
C190   C191    1.398   .     A
C190   H211    1.082   .     S
C191   H212    1.082   .     S
C191   C192    1.398   .     A
C192   C193    1.399   .     A
C192   H213    1.082   .     S
C193   H214    1.083   .     S
C194   C195    1.404   .     A
C194   C200    1.405   .     A
C195   C196    1.399   .     A
C195   H215    1.083   .     S
C196   H216    1.082   .     S
C196   C689    1.398   1_545 S
C197   H218    1.082   .     S
C197   C199    1.398   .     A
C197   C442    1.398   .     S
C198   C201    1.417   .     A
C198   C202    1.426   .     A
C199   H219    1.082   .     S
C199   C446    1.399   .     S
C200   H220    1.083   .     S
C200   C691    1.399   1_545 S
C201   C943    1.390   .     S
C202   C941    1.423   .     S
C203   C204    1.418   .     A
C203   C940    1.423   1_554 S
C204   H207    1.075   .     S
C204   C205    1.387   .     A
C205   H206    1.084   .     S
C205   C939    1.390   1_554 S
H209   O234    1.014   .     S
H221   C669    1.088   1_545 S
H222   C424    1.086   .     S
O228   Zn244   1.940   .     S
O228   Zn246   1.937   .     S
O228   Zn243   1.968   .     S
O228   Zn245   1.934   .     S
O229   Zn244   1.932   .     S
O230   Zn246   1.942   .     S
O231   Zn245   1.934   .     S
O232   Zn243   1.927   .     S
O235   Zn243   1.921   .     S
O236   Zn246   1.926   .     S
O237   Zn244   1.940   .     S
O238   Zn245   1.951   .     S
O239   Zn246   1.941   .     S
O240   Zn243   1.933   .     S
O241   Zn244   1.936   .     S
O242   Zn245   1.928   .     S
C247   C257    1.431   .     S
C247   O321    1.267   .     A
C247   O319    1.263   .     A
C248   H290    1.077   .     S
C248   C284    1.412   .     A
C248   C249    1.390   .     A
C249   C276    1.482   .     S
C249   C989    1.407   .     S
C250   O320    1.288   .     A
C250   C256    1.470   .     S
C250   O322    1.277   .     A
C251   C252    1.427   .     A
C251   C253    1.411   .     A
C251   C987    1.407   1_554 S
C252   C255    1.412   .     A
C252   C285    1.427   .     A
C253   C254    1.388   .     A
C253   H299    1.082   .     S
C254   C266    1.391   .     A
C254   H306    1.084   .     S
C255   H305    1.076   .     S
C255   C266    1.389   .     A
C256   C339    1.364   .     S
C256   C350    1.498   .     S
C257   C420    1.364   1_455 S
C257   C434    1.484   1_455 S
C258   C267    1.392   .     A
C258   H308    1.083   .     S
C258   C265    1.400   .     A
C259   C262    1.451   .     S
C259   C506    1.332   .     S
C259   H549    1.088   .     S
C260   C261    1.434   .     S
C261   O317    1.280   .     A
C261   O323    1.279   .     A
C262   O318    1.273   .     A
C262   O324    1.273   .     A
C263   C266    1.450   .     S
C263   O313    1.274   .     A
C263   O311    1.270   .     A
C264   O314    1.288   .     A
C264   C265    1.469   .     S
C264   O312    1.285   .     A
C265   C269    1.397   .     A
C267   H307    1.084   .     S
C267   C283    1.403   .     A
C268   O315    1.223   .     D
C268   O316    1.399   .     S
C268   C420    1.498   1_455 S
C269   H309    1.075   .     S
C269   C280    1.407   .     A
C270   C275    1.404   .     A
C270   C271    1.404   .     A
C270   C339    1.484   .     S
C271   C272    1.399   .     A
C271   H292    1.083   .     S
C272   C273    1.398   .     A
C272   H293    1.082   .     S
C273   H294    1.082   .     S
C273   C274    1.398   .     A
C274   C275    1.399   .     A
C274   H295    1.082   .     S
C275   H296    1.083   .     S
C276   C277    1.404   .     A
C276   C282    1.405   .     A
C277   C278    1.399   .     A
C277   H297    1.083   .     S
C278   H298    1.082   .     S
C279   H300    1.082   .     S
C279   C281    1.398   .     A
C279   C524    1.398   .     S
C280   C283    1.417   .     A
C280   C284    1.426   .     A
C281   H301    1.082   .     S
C281   C528    1.399   .     S
C282   H302    1.083   .     S
C283   C1025   1.390   .     S
C284   C1023   1.423   .     S
C285   C286    1.418   .     A
C285   C1022   1.423   1_554 S
C286   H289    1.075   .     S
C286   C287    1.387   .     A
C287   H288    1.084   .     S
C287   C1021   1.390   1_554 S
H291   O316    1.014   .     S
H304   C506    1.086   .     S
O310   Zn326   1.940   .     S
O310   Zn328   1.937   .     S
O310   Zn325   1.968   .     S
O310   Zn327   1.934   .     S
O311   Zn326   1.932   .     S
O312   Zn328   1.942   .     S
O313   Zn327   1.934   .     S
O314   Zn325   1.927   .     S
O317   Zn325   1.921   .     S
O318   Zn328   1.926   .     S
O319   Zn326   1.940   .     S
O320   Zn327   1.951   .     S
O321   Zn328   1.941   .     S
O322   Zn325   1.933   .     S
O323   Zn326   1.936   .     S
O324   Zn327   1.928   .     S
C329   C339    1.431   .     S
C329   O403    1.267   .     A
C329   O401    1.263   .     A
C330   H372    1.077   .     S
C330   C366    1.412   .     A
C330   C331    1.390   .     A
C331   C358    1.482   .     S
C331   C1071   1.407   .     S
C332   O402    1.288   .     A
C332   C338    1.470   .     S
C332   O404    1.277   .     A
C333   C334    1.427   .     A
C333   C335    1.411   .     A
C333   C1069   1.407   1_554 S
C334   C337    1.412   .     A
C334   C367    1.427   .     A
C335   C336    1.388   .     A
C335   H381    1.082   .     S
C336   C348    1.391   .     A
C336   H388    1.084   .     S
C337   H387    1.076   .     S
C337   C348    1.389   .     A
C338   C421    1.364   .     S
C338   C432    1.498   .     S
C340   C349    1.392   .     A
C340   H390    1.083   .     S
C340   C347    1.400   .     A
C341   C344    1.451   .     S
C341   C588    1.332   .     S
C341   H631    1.088   .     S
C342   C343    1.434   .     S
C343   O399    1.280   .     A
C343   O405    1.279   .     A
C344   O400    1.273   .     A
C344   O406    1.273   .     A
C345   C348    1.450   .     S
C345   O395    1.274   .     A
C345   O393    1.270   .     A
C346   O396    1.288   .     A
C346   C347    1.469   .     S
C346   O394    1.285   .     A
C347   C351    1.397   .     A
C349   H389    1.084   .     S
C349   C365    1.403   .     A
C350   O397    1.223   .     D
C350   O398    1.399   .     S
C351   H391    1.075   .     S
C351   C362    1.407   .     A
C352   C357    1.404   .     A
C352   C353    1.404   .     A
C352   C421    1.484   .     S
C353   C354    1.399   .     A
C353   H374    1.083   .     S
C354   C355    1.398   .     A
C354   H375    1.082   .     S
C355   H376    1.082   .     S
C355   C356    1.398   .     A
C356   C357    1.399   .     A
C356   H377    1.082   .     S
C357   H378    1.083   .     S
C358   C359    1.404   .     A
C358   C364    1.405   .     A
C359   C360    1.399   .     A
C359   H379    1.083   .     S
C360   H380    1.082   .     S
C361   H382    1.082   .     S
C361   C363    1.398   .     A
C361   C606    1.398   .     S
C362   C365    1.417   .     A
C362   C366    1.426   .     A
C363   H383    1.082   .     S
C363   C610    1.399   .     S
C364   H384    1.083   .     S
C365   C1107   1.390   .     S
C366   C1105   1.423   .     S
C367   C368    1.418   .     A
C367   C1104   1.423   1_554 S
C368   H371    1.075   .     S
C368   C369    1.387   .     A
C369   H370    1.084   .     S
C369   C1103   1.390   1_554 S
H373   O398    1.014   .     S
H386   C588    1.086   .     S
O392   Zn408   1.940   .     S
O392   Zn410   1.937   .     S
O392   Zn407   1.968   .     S
O392   Zn409   1.934   .     S
O393   Zn408   1.932   .     S
O394   Zn410   1.942   .     S
O395   Zn409   1.934   .     S
O396   Zn407   1.927   .     S
O399   Zn407   1.921   .     S
O400   Zn410   1.926   .     S
O401   Zn408   1.940   .     S
O402   Zn409   1.951   .     S
O403   Zn410   1.941   .     S
O404   Zn407   1.933   .     S
O405   Zn408   1.936   .     S
O406   Zn409   1.928   .     S
C411   C421    1.431   .     S
C411   O485    1.267   .     A
C411   O483    1.263   .     A
C412   H454    1.077   .     S
C412   C448    1.412   .     A
C412   C413    1.390   .     A
C413   C440    1.482   .     S
C413   C1153   1.407   .     S
C414   O484    1.288   .     A
C414   C420    1.470   .     S
C414   O486    1.277   .     A
C415   C416    1.427   .     A
C415   C417    1.411   .     A
C415   C1151   1.407   1_554 S
C416   C419    1.412   .     A
C416   C449    1.427   .     A
C417   C418    1.388   .     A
C417   H463    1.082   .     S
C418   C430    1.391   .     A
C418   H470    1.084   .     S
C419   H469    1.076   .     S
C419   C430    1.389   .     A
C420   C257    1.364   1_655 S
C420   C268    1.498   1_655 S
C422   C431    1.392   .     A
C422   H472    1.083   .     S
C422   C429    1.400   .     A
C423   C426    1.451   .     S
C423   C670    1.332   .     S
C423   H713    1.088   .     S
C424   C425    1.434   .     S
C425   O481    1.280   .     A
C425   O487    1.279   .     A
C426   O482    1.273   .     A
C426   O488    1.273   .     A
C427   C430    1.450   .     S
C427   O477    1.274   .     A
C427   O475    1.270   .     A
C428   O478    1.288   .     A
C428   C429    1.469   .     S
C428   O476    1.285   .     A
C429   C433    1.397   .     A
C431   H471    1.084   .     S
C431   C447    1.403   .     A
C432   O479    1.223   .     D
C432   O480    1.399   .     S
C433   H473    1.075   .     S
C433   C444    1.407   .     A
C434   C439    1.404   .     A
C434   C435    1.404   .     A
C434   C257    1.484   1_655 S
C435   C436    1.399   .     A
C435   H456    1.083   .     S
C436   C437    1.398   .     A
C436   H457    1.082   .     S
C437   H458    1.082   .     S
C437   C438    1.398   .     A
C438   C439    1.399   .     A
C438   H459    1.082   .     S
C439   H460    1.083   .     S
C440   C441    1.404   .     A
C440   C446    1.405   .     A
C441   C442    1.399   .     A
C441   H461    1.083   .     S
C442   H462    1.082   .     S
C443   H464    1.082   .     S
C443   C445    1.398   .     A
C443   C688    1.398   .     S
C444   C447    1.417   .     A
C444   C448    1.426   .     A
C445   H465    1.082   .     S
C445   C692    1.399   .     S
C446   H466    1.083   .     S
C447   C1189   1.390   .     S
C448   C1187   1.423   .     S
C449   C450    1.418   .     A
C449   C1186   1.423   1_554 S
C450   H453    1.075   .     S
C450   C451    1.387   .     A
C451   H452    1.084   .     S
C451   C1185   1.390   1_554 S
H455   O480    1.014   .     S
H468   C670    1.086   .     S
O474   Zn490   1.940   .     S
O474   Zn492   1.937   .     S
O474   Zn489   1.968   .     S
O474   Zn491   1.934   .     S
O475   Zn490   1.932   .     S
O476   Zn492   1.942   .     S
O477   Zn491   1.934   .     S
O478   Zn489   1.927   .     S
O481   Zn489   1.921   .     S
O482   Zn492   1.926   .     S
O483   Zn490   1.940   .     S
O484   Zn491   1.951   .     S
O485   Zn492   1.941   .     S
O486   Zn489   1.933   .     S
O487   Zn490   1.936   .     S
O488   Zn491   1.928   .     S
C493   C503    1.431   .     S
C493   O567    1.267   .     A
C493   O565    1.263   .     A
C494   H536    1.077   .     S
C494   C530    1.412   .     A
C494   C495    1.390   .     A
C495   C522    1.482   .     S
C495   C1235   1.407   .     S
C496   O566    1.288   .     A
C496   C502    1.470   .     S
C496   O568    1.277   .     A
C497   C498    1.427   .     A
C497   C499    1.411   .     A
C497   C1233   1.407   1_554 S
C498   C501    1.412   .     A
C498   C531    1.427   .     A
C499   C500    1.388   .     A
C499   H545    1.082   .     S
C500   C512    1.391   .     A
C500   H552    1.084   .     S
C501   H551    1.076   .     S
C501   C512    1.389   .     A
C502   C585    1.364   .     S
C502   C596    1.498   .     S
C503   C666    1.364   1_455 S
C503   C680    1.484   1_455 S
C504   C513    1.392   .     A
C504   H554    1.083   .     S
C504   C511    1.400   .     A
C505   C508    1.451   .     S
C505   C14     1.332   1_565 S
C505   H57     1.088   1_565 S
C506   C507    1.434   .     S
C507   O563    1.280   .     A
C507   O569    1.279   .     A
C508   O564    1.273   .     A
C508   O570    1.273   .     A
C509   C512    1.450   .     S
C509   O559    1.274   .     A
C509   O557    1.270   .     A
C510   O560    1.288   .     A
C510   C511    1.469   .     S
C510   O558    1.285   .     A
C511   C515    1.397   .     A
C513   H553    1.084   .     S
C513   C529    1.403   .     A
C514   O561    1.223   .     D
C514   O562    1.399   .     S
C514   C666    1.498   1_455 S
C515   H555    1.075   .     S
C515   C526    1.407   .     A
C516   C521    1.404   .     A
C516   C517    1.404   .     A
C516   C585    1.484   .     S
C517   C518    1.399   .     A
C517   H538    1.083   .     S
C518   C519    1.398   .     A
C518   H539    1.082   .     S
C519   H540    1.082   .     S
C519   C520    1.398   .     A
C520   C521    1.399   .     A
C520   H541    1.082   .     S
C521   H542    1.083   .     S
C522   C523    1.404   .     A
C522   C528    1.405   .     A
C523   C524    1.399   .     A
C523   H543    1.083   .     S
C524   H544    1.082   .     S
C525   H546    1.082   .     S
C525   C527    1.398   .     A
C525   C32     1.398   1_565 S
C526   C529    1.417   .     A
C526   C530    1.426   .     A
C527   H547    1.082   .     S
C527   C36     1.399   1_565 S
C528   H548    1.083   .     S
C529   C1271   1.390   .     S
C530   C1269   1.423   .     S
C531   C532    1.418   .     A
C531   C1268   1.423   1_554 S
C532   H535    1.075   .     S
C532   C533    1.387   .     A
C533   H534    1.084   .     S
C533   C1267   1.390   1_554 S
H537   O562    1.014   .     S
H550   C14     1.086   1_565 S
O556   Zn572   1.940   .     S
O556   Zn574   1.937   .     S
O556   Zn571   1.968   .     S
O556   Zn573   1.934   .     S
O557   Zn572   1.932   .     S
O558   Zn574   1.942   .     S
O559   Zn573   1.934   .     S
O560   Zn571   1.927   .     S
O563   Zn571   1.921   .     S
O564   Zn574   1.926   .     S
O565   Zn572   1.940   .     S
O566   Zn573   1.951   .     S
O567   Zn574   1.941   .     S
O568   Zn571   1.933   .     S
O569   Zn572   1.936   .     S
O570   Zn573   1.928   .     S
C575   C585    1.431   .     S
C575   O649    1.267   .     A
C575   O647    1.263   .     A
C576   H618    1.077   .     S
C576   C612    1.412   .     A
C576   C577    1.390   .     A
C577   C604    1.482   .     S
C577   C1317   1.407   .     S
C578   O648    1.288   .     A
C578   C584    1.470   .     S
C578   O650    1.277   .     A
C579   C580    1.427   .     A
C579   C581    1.411   .     A
C579   C1315   1.407   1_554 S
C580   C583    1.412   .     A
C580   C613    1.427   .     A
C581   C582    1.388   .     A
C581   H627    1.082   .     S
C582   C594    1.391   .     A
C582   H634    1.084   .     S
C583   H633    1.076   .     S
C583   C594    1.389   .     A
C584   C667    1.364   .     S
C584   C678    1.498   .     S
C586   C595    1.392   .     A
C586   H636    1.083   .     S
C586   C593    1.400   .     A
C587   C590    1.451   .     S
C587   C96     1.332   1_565 S
C587   H139    1.088   1_565 S
C588   C589    1.434   .     S
C589   O645    1.280   .     A
C589   O651    1.279   .     A
C590   O646    1.273   .     A
C590   O652    1.273   .     A
C591   C594    1.450   .     S
C591   O641    1.274   .     A
C591   O639    1.270   .     A
C592   O642    1.288   .     A
C592   C593    1.469   .     S
C592   O640    1.285   .     A
C593   C597    1.397   .     A
C595   H635    1.084   .     S
C595   C611    1.403   .     A
C596   O643    1.223   .     D
C596   O644    1.399   .     S
C597   H637    1.075   .     S
C597   C608    1.407   .     A
C598   C603    1.404   .     A
C598   C599    1.404   .     A
C598   C667    1.484   .     S
C599   C600    1.399   .     A
C599   H620    1.083   .     S
C600   C601    1.398   .     A
C600   H621    1.082   .     S
C601   H622    1.082   .     S
C601   C602    1.398   .     A
C602   C603    1.399   .     A
C602   H623    1.082   .     S
C603   H624    1.083   .     S
C604   C605    1.404   .     A
C604   C610    1.405   .     A
C605   C606    1.399   .     A
C605   H625    1.083   .     S
C606   H626    1.082   .     S
C607   H628    1.082   .     S
C607   C609    1.398   .     A
C607   C114    1.398   1_565 S
C608   C611    1.417   .     A
C608   C612    1.426   .     A
C609   H629    1.082   .     S
C609   C118    1.399   1_565 S
C610   H630    1.083   .     S
C611   C1353   1.390   .     S
C612   C1351   1.423   .     S
C613   C614    1.418   .     A
C613   C1350   1.423   1_554 S
C614   H617    1.075   .     S
C614   C615    1.387   .     A
C615   H616    1.084   .     S
C615   C1349   1.390   1_554 S
H619   O644    1.014   .     S
H632   C96     1.086   1_565 S
O638   Zn654   1.940   .     S
O638   Zn656   1.937   .     S
O638   Zn653   1.968   .     S
O638   Zn655   1.934   .     S
O639   Zn654   1.932   .     S
O640   Zn656   1.942   .     S
O641   Zn655   1.934   .     S
O642   Zn653   1.927   .     S
O645   Zn653   1.921   .     S
O646   Zn656   1.926   .     S
O647   Zn654   1.940   .     S
O648   Zn655   1.951   .     S
O649   Zn656   1.941   .     S
O650   Zn653   1.933   .     S
O651   Zn654   1.936   .     S
O652   Zn655   1.928   .     S
C657   C667    1.431   .     S
C657   O731    1.267   .     A
C657   O729    1.263   .     A
C658   H700    1.077   .     S
C658   C694    1.412   .     A
C658   C659    1.390   .     A
C659   C686    1.482   .     S
C659   C1399   1.407   .     S
C660   O730    1.288   .     A
C660   C666    1.470   .     S
C660   O732    1.277   .     A
C661   C662    1.427   .     A
C661   C663    1.411   .     A
C661   C1397   1.407   1_554 S
C662   C665    1.412   .     A
C662   C695    1.427   .     A
C663   C664    1.388   .     A
C663   H709    1.082   .     S
C664   C676    1.391   .     A
C664   H716    1.084   .     S
C665   H715    1.076   .     S
C665   C676    1.389   .     A
C666   C503    1.364   1_655 S
C666   C514    1.498   1_655 S
C668   C677    1.392   .     A
C668   H718    1.083   .     S
C668   C675    1.400   .     A
C669   C672    1.451   .     S
C669   C178    1.332   1_565 S
C669   H221    1.088   1_565 S
C670   C671    1.434   .     S
C671   O727    1.280   .     A
C671   O733    1.279   .     A
C672   O728    1.273   .     A
C672   O734    1.273   .     A
C673   C676    1.450   .     S
C673   O723    1.274   .     A
C673   O721    1.270   .     A
C674   O724    1.288   .     A
C674   C675    1.469   .     S
C674   O722    1.285   .     A
C675   C679    1.397   .     A
C677   H717    1.084   .     S
C677   C693    1.403   .     A
C678   O725    1.223   .     D
C678   O726    1.399   .     S
C679   H719    1.075   .     S
C679   C690    1.407   .     A
C680   C685    1.404   .     A
C680   C681    1.404   .     A
C680   C503    1.484   1_655 S
C681   C682    1.399   .     A
C681   H702    1.083   .     S
C682   C683    1.398   .     A
C682   H703    1.082   .     S
C683   H704    1.082   .     S
C683   C684    1.398   .     A
C684   C685    1.399   .     A
C684   H705    1.082   .     S
C685   H706    1.083   .     S
C686   C687    1.404   .     A
C686   C692    1.405   .     A
C687   C688    1.399   .     A
C687   H707    1.083   .     S
C688   H708    1.082   .     S
C689   H710    1.082   .     S
C689   C691    1.398   .     A
C689   C196    1.398   1_565 S
C690   C693    1.417   .     A
C690   C694    1.426   .     A
C691   H711    1.082   .     S
C691   C200    1.399   1_565 S
C692   H712    1.083   .     S
C693   C1435   1.390   .     S
C694   C1433   1.423   .     S
C695   C696    1.418   .     A
C695   C1432   1.423   1_554 S
C696   H699    1.075   .     S
C696   C697    1.387   .     A
C697   H698    1.084   .     S
C697   C1431   1.390   1_554 S
H701   O726    1.014   .     S
H714   C178    1.086   1_565 S
O720   Zn736   1.940   .     S
O720   Zn738   1.937   .     S
O720   Zn735   1.968   .     S
O720   Zn737   1.934   .     S
O721   Zn736   1.932   .     S
O722   Zn738   1.942   .     S
O723   Zn737   1.934   .     S
O724   Zn735   1.927   .     S
O727   Zn735   1.921   .     S
O728   Zn738   1.926   .     S
O729   Zn736   1.940   .     S
O730   Zn737   1.951   .     S
O731   Zn738   1.941   .     S
O732   Zn735   1.933   .     S
O733   Zn736   1.936   .     S
O734   Zn737   1.928   .     S
C739   C749    1.431   .     S
C739   O813    1.267   .     A
C739   O811    1.263   .     A
C740   H782    1.077   .     S
C740   C776    1.412   .     A
C740   C741    1.390   .     A
C741   C768    1.482   .     S
C741   C5      1.407   1_556 S
C742   O812    1.288   .     A
C742   C748    1.470   .     S
C742   O814    1.277   .     A
C743   C744    1.427   .     A
C743   C745    1.411   .     A
C744   C747    1.412   .     A
C744   C777    1.427   .     A
C745   C746    1.388   .     A
C745   H791    1.082   .     S
C746   C758    1.391   .     A
C746   H798    1.084   .     S
C747   H797    1.076   .     S
C747   C758    1.389   .     A
C748   C831    1.364   .     S
C748   C842    1.498   .     S
C749   C912    1.364   1_455 S
C749   C926    1.484   1_455 S
C750   C759    1.392   .     A
C750   H800    1.083   .     S
C750   C757    1.400   .     A
C751   C754    1.451   .     S
C751   C998    1.332   .     S
C751   H1041   1.088   .     S
C752   C753    1.434   .     S
C752   C1243   1.332   1_545 S
C752   H1288   1.086   1_545 S
C753   O809    1.280   .     A
C753   O815    1.279   .     A
C754   O810    1.273   .     A
C754   O816    1.273   .     A
C755   C758    1.450   .     S
C755   O805    1.274   .     A
C755   O803    1.270   .     A
C756   O806    1.288   .     A
C756   C757    1.469   .     S
C756   O804    1.285   .     A
C757   C761    1.397   .     A
C759   H799    1.084   .     S
C759   C775    1.403   .     A
C760   O807    1.223   .     D
C760   O808    1.399   .     S
C760   C912    1.498   1_455 S
C761   H801    1.075   .     S
C761   C772    1.407   .     A
C762   C767    1.404   .     A
C762   C763    1.404   .     A
C762   C831    1.484   .     S
C763   C764    1.399   .     A
C763   H784    1.083   .     S
C764   C765    1.398   .     A
C764   H785    1.082   .     S
C765   H786    1.082   .     S
C765   C766    1.398   .     A
C766   C767    1.399   .     A
C766   H787    1.082   .     S
C767   H788    1.083   .     S
C768   C769    1.404   .     A
C768   C774    1.405   .     A
C769   C770    1.399   .     A
C769   H789    1.083   .     S
C770   H790    1.082   .     S
C770   C1263   1.398   1_545 S
C771   H792    1.082   .     S
C771   C773    1.398   .     A
C771   C1016   1.398   .     S
C772   C775    1.417   .     A
C772   C776    1.426   .     A
C773   H793    1.082   .     S
C773   C1020   1.399   .     S
C774   H794    1.083   .     S
C774   C1265   1.399   1_545 S
C775   C41     1.390   1_556 S
C776   C39     1.423   1_556 S
C777   C778    1.418   .     A
C778   H781    1.075   .     S
C778   C779    1.387   .     A
C779   H780    1.084   .     S
H783   O808    1.014   .     S
H795   C1243   1.088   1_545 S
H796   C998    1.086   .     S
O802   Zn818   1.940   .     S
O802   Zn820   1.937   .     S
O802   Zn817   1.968   .     S
O802   Zn819   1.934   .     S
O803   Zn818   1.932   .     S
O804   Zn820   1.942   .     S
O805   Zn819   1.934   .     S
O806   Zn817   1.927   .     S
O809   Zn817   1.921   .     S
O810   Zn820   1.926   .     S
O811   Zn818   1.940   .     S
O812   Zn819   1.951   .     S
O813   Zn820   1.941   .     S
O814   Zn817   1.933   .     S
O815   Zn818   1.936   .     S
O816   Zn819   1.928   .     S
C821   C831    1.431   .     S
C821   O895    1.267   .     A
C821   O893    1.263   .     A
C822   H864    1.077   .     S
C822   C858    1.412   .     A
C822   C823    1.390   .     A
C823   C850    1.482   .     S
C823   C87     1.407   1_556 S
C824   O894    1.288   .     A
C824   C830    1.470   .     S
C824   O896    1.277   .     A
C825   C826    1.427   .     A
C825   C827    1.411   .     A
C826   C829    1.412   .     A
C826   C859    1.427   .     A
C827   C828    1.388   .     A
C827   H873    1.082   .     S
C828   C840    1.391   .     A
C828   H880    1.084   .     S
C829   H879    1.076   .     S
C829   C840    1.389   .     A
C830   C913    1.364   .     S
C830   C924    1.498   .     S
C832   C841    1.392   .     A
C832   H882    1.083   .     S
C832   C839    1.400   .     A
C833   C836    1.451   .     S
C833   C1080   1.332   .     S
C833   H1123   1.088   .     S
C834   C835    1.434   .     S
C834   C1325   1.332   1_545 S
C834   H1370   1.086   1_545 S
C835   O891    1.280   .     A
C835   O897    1.279   .     A
C836   O892    1.273   .     A
C836   O898    1.273   .     A
C837   C840    1.450   .     S
C837   O887    1.274   .     A
C837   O885    1.270   .     A
C838   O888    1.288   .     A
C838   C839    1.469   .     S
C838   O886    1.285   .     A
C839   C843    1.397   .     A
C841   H881    1.084   .     S
C841   C857    1.403   .     A
C842   O889    1.223   .     D
C842   O890    1.399   .     S
C843   H883    1.075   .     S
C843   C854    1.407   .     A
C844   C849    1.404   .     A
C844   C845    1.404   .     A
C844   C913    1.484   .     S
C845   C846    1.399   .     A
C845   H866    1.083   .     S
C846   C847    1.398   .     A
C846   H867    1.082   .     S
C847   H868    1.082   .     S
C847   C848    1.398   .     A
C848   C849    1.399   .     A
C848   H869    1.082   .     S
C849   H870    1.083   .     S
C850   C851    1.404   .     A
C850   C856    1.405   .     A
C851   C852    1.399   .     A
C851   H871    1.083   .     S
C852   H872    1.082   .     S
C852   C1345   1.398   1_545 S
C853   H874    1.082   .     S
C853   C855    1.398   .     A
C853   C1098   1.398   .     S
C854   C857    1.417   .     A
C854   C858    1.426   .     A
C855   H875    1.082   .     S
C855   C1102   1.399   .     S
C856   H876    1.083   .     S
C856   C1347   1.399   1_545 S
C857   C123    1.390   1_556 S
C858   C121    1.423   1_556 S
C859   C860    1.418   .     A
C860   H863    1.075   .     S
C860   C861    1.387   .     A
C861   H862    1.084   .     S
H865   O890    1.014   .     S
H877   C1325   1.088   1_545 S
H878   C1080   1.086   .     S
O884   Zn900   1.940   .     S
O884   Zn902   1.937   .     S
O884   Zn899   1.968   .     S
O884   Zn901   1.934   .     S
O885   Zn900   1.932   .     S
O886   Zn902   1.942   .     S
O887   Zn901   1.934   .     S
O888   Zn899   1.927   .     S
O891   Zn899   1.921   .     S
O892   Zn902   1.926   .     S
O893   Zn900   1.940   .     S
O894   Zn901   1.951   .     S
O895   Zn902   1.941   .     S
O896   Zn899   1.933   .     S
O897   Zn900   1.936   .     S
O898   Zn901   1.928   .     S
C903   C913    1.431   .     S
C903   O977    1.267   .     A
C903   O975    1.263   .     A
C904   H946    1.077   .     S
C904   C940    1.412   .     A
C904   C905    1.390   .     A
C905   C932    1.482   .     S
C905   C169    1.407   1_556 S
C906   O976    1.288   .     A
C906   C912    1.470   .     S
C906   O978    1.277   .     A
C907   C908    1.427   .     A
C907   C909    1.411   .     A
C908   C911    1.412   .     A
C908   C941    1.427   .     A
C909   C910    1.388   .     A
C909   H955    1.082   .     S
C910   C922    1.391   .     A
C910   H962    1.084   .     S
C911   H961    1.076   .     S
C911   C922    1.389   .     A
C912   C749    1.364   1_655 S
C912   C760    1.498   1_655 S
C914   C923    1.392   .     A
C914   H964    1.083   .     S
C914   C921    1.400   .     A
C915   C918    1.451   .     S
C915   C1162   1.332   .     S
C915   H1205   1.088   .     S
C916   C917    1.434   .     S
C916   C1407   1.332   1_545 S
C916   H1452   1.086   1_545 S
C917   O973    1.280   .     A
C917   O979    1.279   .     A
C918   O974    1.273   .     A
C918   O980    1.273   .     A
C919   C922    1.450   .     S
C919   O969    1.274   .     A
C919   O967    1.270   .     A
C920   O970    1.288   .     A
C920   C921    1.469   .     S
C920   O968    1.285   .     A
C921   C925    1.397   .     A
C923   H963    1.084   .     S
C923   C939    1.403   .     A
C924   O971    1.223   .     D
C924   O972    1.399   .     S
C925   H965    1.075   .     S
C925   C936    1.407   .     A
C926   C931    1.404   .     A
C926   C927    1.404   .     A
C926   C749    1.484   1_655 S
C927   C928    1.399   .     A
C927   H948    1.083   .     S
C928   C929    1.398   .     A
C928   H949    1.082   .     S
C929   H950    1.082   .     S
C929   C930    1.398   .     A
C930   C931    1.399   .     A
C930   H951    1.082   .     S
C931   H952    1.083   .     S
C932   C933    1.404   .     A
C932   C938    1.405   .     A
C933   C934    1.399   .     A
C933   H953    1.083   .     S
C934   H954    1.082   .     S
C934   C1427   1.398   1_545 S
C935   H956    1.082   .     S
C935   C937    1.398   .     A
C935   C1180   1.398   .     S
C936   C939    1.417   .     A
C936   C940    1.426   .     A
C937   H957    1.082   .     S
C937   C1184   1.399   .     S
C938   H958    1.083   .     S
C938   C1429   1.399   1_545 S
C939   C205    1.390   1_556 S
C940   C203    1.423   1_556 S
C941   C942    1.418   .     A
C942   H945    1.075   .     S
C942   C943    1.387   .     A
C943   H944    1.084   .     S
H947   O972    1.014   .     S
H959   C1407   1.088   1_545 S
H960   C1162   1.086   .     S
O966   Zn982   1.940   .     S
O966   Zn984   1.937   .     S
O966   Zn981   1.968   .     S
O966   Zn983   1.934   .     S
O967   Zn982   1.932   .     S
O968   Zn984   1.942   .     S
O969   Zn983   1.934   .     S
O970   Zn981   1.927   .     S
O973   Zn981   1.921   .     S
O974   Zn984   1.926   .     S
O975   Zn982   1.940   .     S
O976   Zn983   1.951   .     S
O977   Zn984   1.941   .     S
O978   Zn981   1.933   .     S
O979   Zn982   1.936   .     S
O980   Zn983   1.928   .     S
C985   C995    1.431   .     S
C985   O1059   1.267   .     A
C985   O1057   1.263   .     A
C986   H1028   1.077   .     S
C986   C1022   1.412   .     A
C986   C987    1.390   .     A
C987   C1014   1.482   .     S
C987   C251    1.407   1_556 S
C988   O1058   1.288   .     A
C988   C994    1.470   .     S
C988   O1060   1.277   .     A
C989   C990    1.427   .     A
C989   C991    1.411   .     A
C990   C993    1.412   .     A
C990   C1023   1.427   .     A
C991   C992    1.388   .     A
C991   H1037   1.082   .     S
C992   C1004   1.391   .     A
C992   H1044   1.084   .     S
C993   H1043   1.076   .     S
C993   C1004   1.389   .     A
C994   C1077   1.364   .     S
C994   C1088   1.498   .     S
C995   C1158   1.364   1_455 S
C995   C1172   1.484   1_455 S
C996   C1005   1.392   .     A
C996   H1046   1.083   .     S
C996   C1003   1.400   .     A
C997   C1000   1.451   .     S
C997   C1244   1.332   .     S
C997   H1287   1.088   .     S
C998   C999    1.434   .     S
C999   O1055   1.280   .     A
C999   O1061   1.279   .     A
C1000  O1056   1.273   .     A
C1000  O1062   1.273   .     A
C1001  C1004   1.450   .     S
C1001  O1051   1.274   .     A
C1001  O1049   1.270   .     A
C1002  O1052   1.288   .     A
C1002  C1003   1.469   .     S
C1002  O1050   1.285   .     A
C1003  C1007   1.397   .     A
C1005  H1045   1.084   .     S
C1005  C1021   1.403   .     A
C1006  O1053   1.223   .     D
C1006  O1054   1.399   .     S
C1006  C1158   1.498   1_455 S
C1007  H1047   1.075   .     S
C1007  C1018   1.407   .     A
C1008  C1013   1.404   .     A
C1008  C1009   1.404   .     A
C1008  C1077   1.484   .     S
C1009  C1010   1.399   .     A
C1009  H1030   1.083   .     S
C1010  C1011   1.398   .     A
C1010  H1031   1.082   .     S
C1011  H1032   1.082   .     S
C1011  C1012   1.398   .     A
C1012  C1013   1.399   .     A
C1012  H1033   1.082   .     S
C1013  H1034   1.083   .     S
C1014  C1015   1.404   .     A
C1014  C1020   1.405   .     A
C1015  C1016   1.399   .     A
C1015  H1035   1.083   .     S
C1016  H1036   1.082   .     S
C1017  H1038   1.082   .     S
C1017  C1019   1.398   .     A
C1017  C1262   1.398   .     S
C1018  C1021   1.417   .     A
C1018  C1022   1.426   .     A
C1019  H1039   1.082   .     S
C1019  C1266   1.399   .     S
C1020  H1040   1.083   .     S
C1021  C287    1.390   1_556 S
C1022  C285    1.423   1_556 S
C1023  C1024   1.418   .     A
C1024  H1027   1.075   .     S
C1024  C1025   1.387   .     A
C1025  H1026   1.084   .     S
H1029  O1054   1.014   .     S
H1042  C1244   1.086   .     S
O1048  Zn1064  1.940   .     S
O1048  Zn1066  1.937   .     S
O1048  Zn1063  1.968   .     S
O1048  Zn1065  1.934   .     S
O1049  Zn1064  1.932   .     S
O1050  Zn1066  1.942   .     S
O1051  Zn1065  1.934   .     S
O1052  Zn1063  1.927   .     S
O1055  Zn1063  1.921   .     S
O1056  Zn1066  1.926   .     S
O1057  Zn1064  1.940   .     S
O1058  Zn1065  1.951   .     S
O1059  Zn1066  1.941   .     S
O1060  Zn1063  1.933   .     S
O1061  Zn1064  1.936   .     S
O1062  Zn1065  1.928   .     S
C1067  C1077   1.431   .     S
C1067  O1141   1.267   .     A
C1067  O1139   1.263   .     A
C1068  H1110   1.077   .     S
C1068  C1104   1.412   .     A
C1068  C1069   1.390   .     A
C1069  C1096   1.482   .     S
C1069  C333    1.407   1_556 S
C1070  O1140   1.288   .     A
C1070  C1076   1.470   .     S
C1070  O1142   1.277   .     A
C1071  C1072   1.427   .     A
C1071  C1073   1.411   .     A
C1072  C1075   1.412   .     A
C1072  C1105   1.427   .     A
C1073  C1074   1.388   .     A
C1073  H1119   1.082   .     S
C1074  C1086   1.391   .     A
C1074  H1126   1.084   .     S
C1075  H1125   1.076   .     S
C1075  C1086   1.389   .     A
C1076  C1159   1.364   .     S
C1076  C1170   1.498   .     S
C1078  C1087   1.392   .     A
C1078  H1128   1.083   .     S
C1078  C1085   1.400   .     A
C1079  C1082   1.451   .     S
C1079  C1326   1.332   .     S
C1079  H1369   1.088   .     S
C1080  C1081   1.434   .     S
C1081  O1137   1.280   .     A
C1081  O1143   1.279   .     A
C1082  O1138   1.273   .     A
C1082  O1144   1.273   .     A
C1083  C1086   1.450   .     S
C1083  O1133   1.274   .     A
C1083  O1131   1.270   .     A
C1084  O1134   1.288   .     A
C1084  C1085   1.469   .     S
C1084  O1132   1.285   .     A
C1085  C1089   1.397   .     A
C1087  H1127   1.084   .     S
C1087  C1103   1.403   .     A
C1088  O1135   1.223   .     D
C1088  O1136   1.399   .     S
C1089  H1129   1.075   .     S
C1089  C1100   1.407   .     A
C1090  C1095   1.404   .     A
C1090  C1091   1.404   .     A
C1090  C1159   1.484   .     S
C1091  C1092   1.399   .     A
C1091  H1112   1.083   .     S
C1092  C1093   1.398   .     A
C1092  H1113   1.082   .     S
C1093  H1114   1.082   .     S
C1093  C1094   1.398   .     A
C1094  C1095   1.399   .     A
C1094  H1115   1.082   .     S
C1095  H1116   1.083   .     S
C1096  C1097   1.404   .     A
C1096  C1102   1.405   .     A
C1097  C1098   1.399   .     A
C1097  H1117   1.083   .     S
C1098  H1118   1.082   .     S
C1099  H1120   1.082   .     S
C1099  C1101   1.398   .     A
C1099  C1344   1.398   .     S
C1100  C1103   1.417   .     A
C1100  C1104   1.426   .     A
C1101  H1121   1.082   .     S
C1101  C1348   1.399   .     S
C1102  H1122   1.083   .     S
C1103  C369    1.390   1_556 S
C1104  C367    1.423   1_556 S
C1105  C1106   1.418   .     A
C1106  H1109   1.075   .     S
C1106  C1107   1.387   .     A
C1107  H1108   1.084   .     S
H1111  O1136   1.014   .     S
H1124  C1326   1.086   .     S
O1130  Zn1146  1.940   .     S
O1130  Zn1148  1.937   .     S
O1130  Zn1145  1.968   .     S
O1130  Zn1147  1.934   .     S
O1131  Zn1146  1.932   .     S
O1132  Zn1148  1.942   .     S
O1133  Zn1147  1.934   .     S
O1134  Zn1145  1.927   .     S
O1137  Zn1145  1.921   .     S
O1138  Zn1148  1.926   .     S
O1139  Zn1146  1.940   .     S
O1140  Zn1147  1.951   .     S
O1141  Zn1148  1.941   .     S
O1142  Zn1145  1.933   .     S
O1143  Zn1146  1.936   .     S
O1144  Zn1147  1.928   .     S
C1149  C1159   1.431   .     S
C1149  O1223   1.267   .     A
C1149  O1221   1.263   .     A
C1150  H1192   1.077   .     S
C1150  C1186   1.412   .     A
C1150  C1151   1.390   .     A
C1151  C1178   1.482   .     S
C1151  C415    1.407   1_556 S
C1152  O1222   1.288   .     A
C1152  C1158   1.470   .     S
C1152  O1224   1.277   .     A
C1153  C1154   1.427   .     A
C1153  C1155   1.411   .     A
C1154  C1157   1.412   .     A
C1154  C1187   1.427   .     A
C1155  C1156   1.388   .     A
C1155  H1201   1.082   .     S
C1156  C1168   1.391   .     A
C1156  H1208   1.084   .     S
C1157  H1207   1.076   .     S
C1157  C1168   1.389   .     A
C1158  C995    1.364   1_655 S
C1158  C1006   1.498   1_655 S
C1160  C1169   1.392   .     A
C1160  H1210   1.083   .     S
C1160  C1167   1.400   .     A
C1161  C1164   1.451   .     S
C1161  C1408   1.332   .     S
C1161  H1451   1.088   .     S
C1162  C1163   1.434   .     S
C1163  O1219   1.280   .     A
C1163  O1225   1.279   .     A
C1164  O1220   1.273   .     A
C1164  O1226   1.273   .     A
C1165  C1168   1.450   .     S
C1165  O1215   1.274   .     A
C1165  O1213   1.270   .     A
C1166  O1216   1.288   .     A
C1166  C1167   1.469   .     S
C1166  O1214   1.285   .     A
C1167  C1171   1.397   .     A
C1169  H1209   1.084   .     S
C1169  C1185   1.403   .     A
C1170  O1217   1.223   .     D
C1170  O1218   1.399   .     S
C1171  H1211   1.075   .     S
C1171  C1182   1.407   .     A
C1172  C1177   1.404   .     A
C1172  C1173   1.404   .     A
C1172  C995    1.484   1_655 S
C1173  C1174   1.399   .     A
C1173  H1194   1.083   .     S
C1174  C1175   1.398   .     A
C1174  H1195   1.082   .     S
C1175  H1196   1.082   .     S
C1175  C1176   1.398   .     A
C1176  C1177   1.399   .     A
C1176  H1197   1.082   .     S
C1177  H1198   1.083   .     S
C1178  C1179   1.404   .     A
C1178  C1184   1.405   .     A
C1179  C1180   1.399   .     A
C1179  H1199   1.083   .     S
C1180  H1200   1.082   .     S
C1181  H1202   1.082   .     S
C1181  C1183   1.398   .     A
C1181  C1426   1.398   .     S
C1182  C1185   1.417   .     A
C1182  C1186   1.426   .     A
C1183  H1203   1.082   .     S
C1183  C1430   1.399   .     S
C1184  H1204   1.083   .     S
C1185  C451    1.390   1_556 S
C1186  C449    1.423   1_556 S
C1187  C1188   1.418   .     A
C1188  H1191   1.075   .     S
C1188  C1189   1.387   .     A
C1189  H1190   1.084   .     S
H1193  O1218   1.014   .     S
H1206  C1408   1.086   .     S
O1212  Zn1228  1.940   .     S
O1212  Zn1230  1.937   .     S
O1212  Zn1227  1.968   .     S
O1212  Zn1229  1.934   .     S
O1213  Zn1228  1.932   .     S
O1214  Zn1230  1.942   .     S
O1215  Zn1229  1.934   .     S
O1216  Zn1227  1.927   .     S
O1219  Zn1227  1.921   .     S
O1220  Zn1230  1.926   .     S
O1221  Zn1228  1.940   .     S
O1222  Zn1229  1.951   .     S
O1223  Zn1230  1.941   .     S
O1224  Zn1227  1.933   .     S
O1225  Zn1228  1.936   .     S
O1226  Zn1229  1.928   .     S
C1231  C1241   1.431   .     S
C1231  O1305   1.267   .     A
C1231  O1303   1.263   .     A
C1232  H1274   1.077   .     S
C1232  C1268   1.412   .     A
C1232  C1233   1.390   .     A
C1233  C1260   1.482   .     S
C1233  C497    1.407   1_556 S
C1234  O1304   1.288   .     A
C1234  C1240   1.470   .     S
C1234  O1306   1.277   .     A
C1235  C1236   1.427   .     A
C1235  C1237   1.411   .     A
C1236  C1239   1.412   .     A
C1236  C1269   1.427   .     A
C1237  C1238   1.388   .     A
C1237  H1283   1.082   .     S
C1238  C1250   1.391   .     A
C1238  H1290   1.084   .     S
C1239  H1289   1.076   .     S
C1239  C1250   1.389   .     A
C1240  C1323   1.364   .     S
C1240  C1334   1.498   .     S
C1241  C1404   1.364   1_455 S
C1241  C1418   1.484   1_455 S
C1242  C1251   1.392   .     A
C1242  H1292   1.083   .     S
C1242  C1249   1.400   .     A
C1243  C1246   1.451   .     S
C1243  C752    1.332   1_565 S
C1243  H795    1.088   1_565 S
C1244  C1245   1.434   .     S
C1245  O1301   1.280   .     A
C1245  O1307   1.279   .     A
C1246  O1302   1.273   .     A
C1246  O1308   1.273   .     A
C1247  C1250   1.450   .     S
C1247  O1297   1.274   .     A
C1247  O1295   1.270   .     A
C1248  O1298   1.288   .     A
C1248  C1249   1.469   .     S
C1248  O1296   1.285   .     A
C1249  C1253   1.397   .     A
C1251  H1291   1.084   .     S
C1251  C1267   1.403   .     A
C1252  O1299   1.223   .     D
C1252  O1300   1.399   .     S
C1252  C1404   1.498   1_455 S
C1253  H1293   1.075   .     S
C1253  C1264   1.407   .     A
C1254  C1259   1.404   .     A
C1254  C1255   1.404   .     A
C1254  C1323   1.484   .     S
C1255  C1256   1.399   .     A
C1255  H1276   1.083   .     S
C1256  C1257   1.398   .     A
C1256  H1277   1.082   .     S
C1257  H1278   1.082   .     S
C1257  C1258   1.398   .     A
C1258  C1259   1.399   .     A
C1258  H1279   1.082   .     S
C1259  H1280   1.083   .     S
C1260  C1261   1.404   .     A
C1260  C1266   1.405   .     A
C1261  C1262   1.399   .     A
C1261  H1281   1.083   .     S
C1262  H1282   1.082   .     S
C1263  H1284   1.082   .     S
C1263  C1265   1.398   .     A
C1263  C770    1.398   1_565 S
C1264  C1267   1.417   .     A
C1264  C1268   1.426   .     A
C1265  H1285   1.082   .     S
C1265  C774    1.399   1_565 S
C1266  H1286   1.083   .     S
C1267  C533    1.390   1_556 S
C1268  C531    1.423   1_556 S
C1269  C1270   1.418   .     A
C1270  H1273   1.075   .     S
C1270  C1271   1.387   .     A
C1271  H1272   1.084   .     S
H1275  O1300   1.014   .     S
H1288  C752    1.086   1_565 S
O1294  Zn1310  1.940   .     S
O1294  Zn1312  1.937   .     S
O1294  Zn1309  1.968   .     S
O1294  Zn1311  1.934   .     S
O1295  Zn1310  1.932   .     S
O1296  Zn1312  1.942   .     S
O1297  Zn1311  1.934   .     S
O1298  Zn1309  1.927   .     S
O1301  Zn1309  1.921   .     S
O1302  Zn1312  1.926   .     S
O1303  Zn1310  1.940   .     S
O1304  Zn1311  1.951   .     S
O1305  Zn1312  1.941   .     S
O1306  Zn1309  1.933   .     S
O1307  Zn1310  1.936   .     S
O1308  Zn1311  1.928   .     S
C1313  C1323   1.431   .     S
C1313  O1387   1.267   .     A
C1313  O1385   1.263   .     A
C1314  H1356   1.077   .     S
C1314  C1350   1.412   .     A
C1314  C1315   1.390   .     A
C1315  C1342   1.482   .     S
C1315  C579    1.407   1_556 S
C1316  O1386   1.288   .     A
C1316  C1322   1.470   .     S
C1316  O1388   1.277   .     A
C1317  C1318   1.427   .     A
C1317  C1319   1.411   .     A
C1318  C1321   1.412   .     A
C1318  C1351   1.427   .     A
C1319  C1320   1.388   .     A
C1319  H1365   1.082   .     S
C1320  C1332   1.391   .     A
C1320  H1372   1.084   .     S
C1321  H1371   1.076   .     S
C1321  C1332   1.389   .     A
C1322  C1405   1.364   .     S
C1322  C1416   1.498   .     S
C1324  C1333   1.392   .     A
C1324  H1374   1.083   .     S
C1324  C1331   1.400   .     A
C1325  C1328   1.451   .     S
C1325  C834    1.332   1_565 S
C1325  H877    1.088   1_565 S
C1326  C1327   1.434   .     S
C1327  O1383   1.280   .     A
C1327  O1389   1.279   .     A
C1328  O1384   1.273   .     A
C1328  O1390   1.273   .     A
C1329  C1332   1.450   .     S
C1329  O1379   1.274   .     A
C1329  O1377   1.270   .     A
C1330  O1380   1.288   .     A
C1330  C1331   1.469   .     S
C1330  O1378   1.285   .     A
C1331  C1335   1.397   .     A
C1333  H1373   1.084   .     S
C1333  C1349   1.403   .     A
C1334  O1381   1.223   .     D
C1334  O1382   1.399   .     S
C1335  H1375   1.075   .     S
C1335  C1346   1.407   .     A
C1336  C1341   1.404   .     A
C1336  C1337   1.404   .     A
C1336  C1405   1.484   .     S
C1337  C1338   1.399   .     A
C1337  H1358   1.083   .     S
C1338  C1339   1.398   .     A
C1338  H1359   1.082   .     S
C1339  H1360   1.082   .     S
C1339  C1340   1.398   .     A
C1340  C1341   1.399   .     A
C1340  H1361   1.082   .     S
C1341  H1362   1.083   .     S
C1342  C1343   1.404   .     A
C1342  C1348   1.405   .     A
C1343  C1344   1.399   .     A
C1343  H1363   1.083   .     S
C1344  H1364   1.082   .     S
C1345  H1366   1.082   .     S
C1345  C1347   1.398   .     A
C1345  C852    1.398   1_565 S
C1346  C1349   1.417   .     A
C1346  C1350   1.426   .     A
C1347  H1367   1.082   .     S
C1347  C856    1.399   1_565 S
C1348  H1368   1.083   .     S
C1349  C615    1.390   1_556 S
C1350  C613    1.423   1_556 S
C1351  C1352   1.418   .     A
C1352  H1355   1.075   .     S
C1352  C1353   1.387   .     A
C1353  H1354   1.084   .     S
H1357  O1382   1.014   .     S
H1370  C834    1.086   1_565 S
O1376  Zn1392  1.940   .     S
O1376  Zn1394  1.937   .     S
O1376  Zn1391  1.968   .     S
O1376  Zn1393  1.934   .     S
O1377  Zn1392  1.932   .     S
O1378  Zn1394  1.942   .     S
O1379  Zn1393  1.934   .     S
O1380  Zn1391  1.927   .     S
O1383  Zn1391  1.921   .     S
O1384  Zn1394  1.926   .     S
O1385  Zn1392  1.940   .     S
O1386  Zn1393  1.951   .     S
O1387  Zn1394  1.941   .     S
O1388  Zn1391  1.933   .     S
O1389  Zn1392  1.936   .     S
O1390  Zn1393  1.928   .     S
C1395  C1405   1.431   .     S
C1395  O1469   1.267   .     A
C1395  O1467   1.263   .     A
C1396  H1438   1.077   .     S
C1396  C1432   1.412   .     A
C1396  C1397   1.390   .     A
C1397  C1424   1.482   .     S
C1397  C661    1.407   1_556 S
C1398  O1468   1.288   .     A
C1398  C1404   1.470   .     S
C1398  O1470   1.277   .     A
C1399  C1400   1.427   .     A
C1399  C1401   1.411   .     A
C1400  C1403   1.412   .     A
C1400  C1433   1.427   .     A
C1401  C1402   1.388   .     A
C1401  H1447   1.082   .     S
C1402  C1414   1.391   .     A
C1402  H1454   1.084   .     S
C1403  H1453   1.076   .     S
C1403  C1414   1.389   .     A
C1404  C1241   1.364   1_655 S
C1404  C1252   1.498   1_655 S
C1406  C1415   1.392   .     A
C1406  H1456   1.083   .     S
C1406  C1413   1.400   .     A
C1407  C1410   1.451   .     S
C1407  C916    1.332   1_565 S
C1407  H959    1.088   1_565 S
C1408  C1409   1.434   .     S
C1409  O1465   1.280   .     A
C1409  O1471   1.279   .     A
C1410  O1466   1.273   .     A
C1410  O1472   1.273   .     A
C1411  C1414   1.450   .     S
C1411  O1461   1.274   .     A
C1411  O1459   1.270   .     A
C1412  O1462   1.288   .     A
C1412  C1413   1.469   .     S
C1412  O1460   1.285   .     A
C1413  C1417   1.397   .     A
C1415  H1455   1.084   .     S
C1415  C1431   1.403   .     A
C1416  O1463   1.223   .     D
C1416  O1464   1.399   .     S
C1417  H1457   1.075   .     S
C1417  C1428   1.407   .     A
C1418  C1423   1.404   .     A
C1418  C1419   1.404   .     A
C1418  C1241   1.484   1_655 S
C1419  C1420   1.399   .     A
C1419  H1440   1.083   .     S
C1420  C1421   1.398   .     A
C1420  H1441   1.082   .     S
C1421  H1442   1.082   .     S
C1421  C1422   1.398   .     A
C1422  C1423   1.399   .     A
C1422  H1443   1.082   .     S
C1423  H1444   1.083   .     S
C1424  C1425   1.404   .     A
C1424  C1430   1.405   .     A
C1425  C1426   1.399   .     A
C1425  H1445   1.083   .     S
C1426  H1446   1.082   .     S
C1427  H1448   1.082   .     S
C1427  C1429   1.398   .     A
C1427  C934    1.398   1_565 S
C1428  C1431   1.417   .     A
C1428  C1432   1.426   .     A
C1429  H1449   1.082   .     S
C1429  C938    1.399   1_565 S
C1430  H1450   1.083   .     S
C1431  C697    1.390   1_556 S
C1432  C695    1.423   1_556 S
C1433  C1434   1.418   .     A
C1434  H1437   1.075   .     S
C1434  C1435   1.387   .     A
C1435  H1436   1.084   .     S
H1439  O1464   1.014   .     S
H1452  C916    1.086   1_565 S
O1458  Zn1474  1.940   .     S
O1458  Zn1476  1.937   .     S
O1458  Zn1473  1.968   .     S
O1458  Zn1475  1.934   .     S
O1459  Zn1474  1.932   .     S
O1460  Zn1476  1.942   .     S
O1461  Zn1475  1.934   .     S
O1462  Zn1473  1.927   .     S
O1465  Zn1473  1.921   .     S
O1466  Zn1476  1.926   .     S
O1467  Zn1474  1.940   .     S
O1468  Zn1475  1.951   .     S
O1469  Zn1476  1.941   .     S
O1470  Zn1473  1.933   .     S
O1471  Zn1474  1.936   .     S
O1472  Zn1475  1.928   .     S
