data_str_m1_o10_o18_pcu_sym.21
_audit_creation_date              2020-01-03
_audit_creation_method            'Materials Studio'
_symmetry_space_group_name_H-M    'P1'
_symmetry_Int_Tables_number       1
_symmetry_cell_setting            triclinic
loop_
_symmetry_equiv_pos_as_xyz
  x,y,z
_cell_length_a                    32.4711
_cell_length_b                    32.6934
_cell_length_c                    35.7375
_cell_angle_alpha                 97.9987
_cell_angle_beta                  72.5813
_cell_angle_gamma                 98.3964
loop_
_atom_site_label
_atom_site_type_symbol
_atom_site_fract_x
_atom_site_fract_y
_atom_site_fract_z
_atom_site_U_iso_or_equiv
_atom_site_adp_type
_atom_site_occupancy
C1     C     0.05251   0.16008   0.25881   0.00000  Uiso   1.00
C2     C     0.19565   0.12721   0.45992   0.00000  Uiso   1.00
C3     C     0.22438   0.11798   0.47893   0.00000  Uiso   1.00
C4     C     0.28111   0.17368   0.24119   0.00000  Uiso   1.00
C5     C     0.21726   0.12788   0.01939   0.00000  Uiso   1.00
C6     C     0.17867   0.14521   0.04193   0.00000  Uiso   1.00
C7     C     0.24734   0.11847   0.03759   0.00000  Uiso   1.00
C8     C     0.23793   0.12573   0.07882   0.00000  Uiso   1.00
C9     C     0.16847   0.14772   0.08331   0.00000  Uiso   1.00
C10    C     0.32722   0.17645   0.23759   0.00000  Uiso   1.00
C11    C     0.00704   0.15806   0.26242   0.00000  Uiso   1.00
C12    C     0.09367   0.20945   0.42083   0.00000  Uiso   1.00
C13    C     0.18082   0.32255   0.24109   0.00000  Uiso   1.00
C14    C     0.14941   0.01265   0.26300   0.00000  Uiso   1.00
C15    C     0.15615   0.05628   0.25865   0.00000  Uiso   1.00
C16    C     0.17671   0.27774   0.24172   0.00000  Uiso   1.00
C17    C     0.18833   0.14562   0.14401   0.00000  Uiso   1.00
C18    C     0.14528   0.18770   0.35622   0.00000  Uiso   1.00
C19    C     0.13213   0.19276   0.39962   0.00000  Uiso   1.00
C20    C     0.19789   0.13826   0.10137   0.00000  Uiso   1.00
C21    C     0.07911   0.21098   0.46204   0.00000  Uiso   1.00
C22    C     0.30363   0.07674   0.02723   0.00000  Uiso   1.00
C23    C     0.15633   0.17747   0.41974   0.00000  Uiso   1.00
C24    C     0.01189   0.09442   0.03835   0.00000  Uiso   1.00
C25    C     0.03197   0.06083   0.05042   0.00000  Uiso   1.00
C26    C     0.10544   0.32971   0.28684   0.00000  Uiso   1.00
C27    C     0.09942   0.31610   0.32392   0.00000  Uiso   1.00
C28    C     0.05800   0.30148   0.34639   0.00000  Uiso   1.00
C29    C     0.02219   0.30060   0.33216   0.00000  Uiso   1.00
C30    C     0.02779   0.31420   0.29539   0.00000  Uiso   1.00
C31    C     0.06920   0.32877   0.27280   0.00000  Uiso   1.00
C32    C     0.03820   0.22993   0.48233   0.00000  Uiso   1.00
C33    C     0.03326   0.26952   0.47424   0.00000  Uiso   1.00
C34    C     0.14062   0.17400   0.46050   0.00000  Uiso   1.00
C35    C     0.32737   0.28653   0.49141   0.00000  Uiso   1.00
C36    C     0.29283   0.26446   0.01704   0.00000  Uiso   1.00
C37    C     0.29734   0.22508   0.02523   0.00000  Uiso   1.00
C38    C     0.00300   0.20767   0.00767   0.00000  Uiso   1.00
C39    C     0.19565   0.10205   0.42198   0.00000  Uiso   1.00
C40    C     0.15662   0.08069   0.41688   0.00000  Uiso   1.00
C41    C     0.15629   0.05616   0.38180   0.00000  Uiso   1.00
C42    C     0.19502   0.05184   0.35178   0.00000  Uiso   1.00
C43    C     0.23402   0.07306   0.35645   0.00000  Uiso   1.00
C44    C     0.23444   0.09815   0.39138   0.00000  Uiso   1.00
C45    C     0.10315   0.19371   0.48223   0.00000  Uiso   1.00
C46    C     0.16302   0.15376   0.48034   0.00000  Uiso   1.00
C47    C     0.15235   0.16003   0.02224   0.00000  Uiso   1.00
C48    C     0.11665   0.18213   0.04294   0.00000  Uiso   1.00
C49    C     0.09213   0.19765   0.02344   0.00000  Uiso   1.00
H50    H     0.06566   0.21472   0.04125   0.00000  Uiso   1.00
H51    H     0.10710   0.18890   0.07450   0.00000  Uiso   1.00
H52    H     0.31197   0.05236   0.00221   0.00000  Uiso   1.00
H53    H     0.27964   0.06091   0.05178   0.00000  Uiso   1.00
H54    H     0.03590   0.10820   0.01267   0.00000  Uiso   1.00
H55    H     0.00466   0.11940   0.06307   0.00000  Uiso   1.00
H56    H     0.00884   0.04686   0.07639   0.00000  Uiso   1.00
H57    H     0.06195   0.07477   0.05832   0.00000  Uiso   1.00
H58    H     0.04066   0.03611   0.02566   0.00000  Uiso   1.00
H59    H     0.12704   0.31542   0.33472   0.00000  Uiso   1.00
H60    H     0.05373   0.29062   0.37472   0.00000  Uiso   1.00
H61    H     0.01719   0.19336   0.21465   0.00000  Uiso   1.00
H62    H     0.32347   0.28923   0.34954   0.00000  Uiso   1.00
H63    H     0.00003   0.31343   0.28436   0.00000  Uiso   1.00
H64    H     0.07303   0.00571   0.24431   0.00000  Uiso   1.00
H65    H     0.05969   0.28712   0.45444   0.00000  Uiso   1.00
H66    H     0.32373   0.31672   0.48460   0.00000  Uiso   1.00
H67    H     0.26253   0.27777   0.03039   0.00000  Uiso   1.00
H68    H     0.27052   0.20802   0.04503   0.00000  Uiso   1.00
H69    H     0.00582   0.17691   0.01376   0.00000  Uiso   1.00
H70    H     0.12641   0.08296   0.44012   0.00000  Uiso   1.00
H71    H     0.12584   0.04051   0.37830   0.00000  Uiso   1.00
H72    H     0.31771   0.14118   0.28570   0.00000  Uiso   1.00
H73    H     0.19489   0.03210   0.32490   0.00000  Uiso   1.00
H74    H     0.26393   0.07000   0.33304   0.00000  Uiso   1.00
H75    H     0.26488   0.11459   0.39452   0.00000  Uiso   1.00
H76    H     0.21056   0.00384   0.22214   0.00000  Uiso   1.00
H77    H     0.13832   0.15761   0.10247   0.00000  Uiso   1.00
H78    H     0.26149   0.12152   0.09352   0.00000  Uiso   1.00
H79    H     0.25050   0.09964   0.46256   0.00000  Uiso   1.00
H80    H     0.07446   0.22089   0.40520   0.00000  Uiso   1.00
H81    H     0.18799   0.16895   0.40296   0.00000  Uiso   1.00
O82    O     0.16667   0.16667   0.25000   0.00000  Uiso   1.00
O83    O     0.15693   0.12393   0.16625   0.00000  Uiso   1.00
O84    O     0.12687   0.20646   0.33749   0.00000  Uiso   1.00
O85    O     0.21088   0.17493   0.15877   0.00000  Uiso   1.00
O86    O     0.17198   0.16135   0.33749   0.00000  Uiso   1.00
O87    O     0.28778   0.10827   0.01375   0.00000  Uiso   1.00
O88    O     0.17849   0.08101   0.27820   0.00000  Uiso   1.00
O89    O     0.14581   0.26136   0.26767   0.00000  Uiso   1.00
O90    O     0.07452   0.13251   0.23607   0.00000  Uiso   1.00
O91    O     0.26785   0.19179   0.21805   0.00000  Uiso   1.00
O92    O     0.06990   0.18960   0.27820   0.00000  Uiso   1.00
O93    O     0.25440   0.15277   0.26767   0.00000  Uiso   1.00
O94    O     0.13800   0.06903   0.23607   0.00000  Uiso   1.00
O95    O     0.20437   0.25527   0.21806   0.00000  Uiso   1.00
Zn96   Zn    0.19244   0.14090   0.28277   0.00000  Uiso   1.00
Zn97   Zn    0.13459   0.12378   0.22257   0.00000  Uiso   1.00
Zn98   Zn    0.21166   0.19664   0.21188   0.00000  Uiso   1.00
Zn99   Zn    0.12798   0.20535   0.28277   0.00000  Uiso   1.00
C100   C     0.38585   0.16008   0.25881   0.00000  Uiso   1.00
C101   C     0.52898   0.12721   0.45992   0.00000  Uiso   1.00
C102   C     0.55772   0.11798   0.47893   0.00000  Uiso   1.00
C103   C     0.61445   0.17368   0.24119   0.00000  Uiso   1.00
C104   C     0.55059   0.12788   0.01939   0.00000  Uiso   1.00
C105   C     0.51201   0.14521   0.04193   0.00000  Uiso   1.00
C106   C     0.58067   0.11847   0.03759   0.00000  Uiso   1.00
C107   C     0.57127   0.12573   0.07882   0.00000  Uiso   1.00
C108   C     0.50181   0.14772   0.08331   0.00000  Uiso   1.00
C109   C     0.66055   0.17645   0.23759   0.00000  Uiso   1.00
C110   C     0.34037   0.15806   0.26242   0.00000  Uiso   1.00
C111   C     0.42700   0.20945   0.42083   0.00000  Uiso   1.00
C112   C     0.51415   0.32255   0.24109   0.00000  Uiso   1.00
C113   C     0.48274   0.01265   0.26300   0.00000  Uiso   1.00
C114   C     0.48948   0.05628   0.25865   0.00000  Uiso   1.00
C115   C     0.51004   0.27774   0.24172   0.00000  Uiso   1.00
C116   C     0.52166   0.14562   0.14401   0.00000  Uiso   1.00
C117   C     0.47861   0.18770   0.35622   0.00000  Uiso   1.00
C118   C     0.46546   0.19276   0.39962   0.00000  Uiso   1.00
C119   C     0.53122   0.13826   0.10137   0.00000  Uiso   1.00
C120   C     0.41245   0.21098   0.46204   0.00000  Uiso   1.00
C121   C     0.63696   0.07674   0.02723   0.00000  Uiso   1.00
C122   C     0.48967   0.17747   0.41974   0.00000  Uiso   1.00
C123   C     0.34523   0.09442   0.03835   0.00000  Uiso   1.00
C124   C     0.36530   0.06083   0.05042   0.00000  Uiso   1.00
C125   C     0.43877   0.32971   0.28684   0.00000  Uiso   1.00
C126   C     0.43275   0.31610   0.32392   0.00000  Uiso   1.00
C127   C     0.39133   0.30148   0.34639   0.00000  Uiso   1.00
C128   C     0.35552   0.30060   0.33216   0.00000  Uiso   1.00
C129   C     0.36112   0.31420   0.29539   0.00000  Uiso   1.00
C130   C     0.40254   0.32877   0.27280   0.00000  Uiso   1.00
C131   C     0.37154   0.22993   0.48233   0.00000  Uiso   1.00
C132   C     0.36659   0.26952   0.47424   0.00000  Uiso   1.00
C133   C     0.47395   0.17400   0.46050   0.00000  Uiso   1.00
C134   C     0.66071   0.28653   0.49141   0.00000  Uiso   1.00
C135   C     0.62617   0.26446   0.01704   0.00000  Uiso   1.00
C136   C     0.63068   0.22508   0.02523   0.00000  Uiso   1.00
C137   C     0.33633   0.20767   0.00767   0.00000  Uiso   1.00
C138   C     0.52899   0.10205   0.42198   0.00000  Uiso   1.00
C139   C     0.48995   0.08069   0.41688   0.00000  Uiso   1.00
C140   C     0.48963   0.05616   0.38180   0.00000  Uiso   1.00
C141   C     0.52835   0.05184   0.35178   0.00000  Uiso   1.00
C142   C     0.56735   0.07306   0.35645   0.00000  Uiso   1.00
C143   C     0.56777   0.09815   0.39138   0.00000  Uiso   1.00
C144   C     0.43648   0.19371   0.48223   0.00000  Uiso   1.00
C145   C     0.49636   0.15376   0.48034   0.00000  Uiso   1.00
C146   C     0.48568   0.16003   0.02224   0.00000  Uiso   1.00
C147   C     0.44998   0.18213   0.04294   0.00000  Uiso   1.00
C148   C     0.42546   0.19765   0.02344   0.00000  Uiso   1.00
H149   H     0.39900   0.21472   0.04125   0.00000  Uiso   1.00
H150   H     0.44043   0.18890   0.07450   0.00000  Uiso   1.00
H151   H     0.64531   0.05236   0.00221   0.00000  Uiso   1.00
H152   H     0.61297   0.06091   0.05178   0.00000  Uiso   1.00
H153   H     0.36923   0.10820   0.01267   0.00000  Uiso   1.00
H154   H     0.33799   0.11940   0.06307   0.00000  Uiso   1.00
H155   H     0.34217   0.04686   0.07639   0.00000  Uiso   1.00
H156   H     0.39528   0.07477   0.05832   0.00000  Uiso   1.00
H157   H     0.37400   0.03611   0.02566   0.00000  Uiso   1.00
H158   H     0.46037   0.31542   0.33472   0.00000  Uiso   1.00
H159   H     0.38706   0.29062   0.37472   0.00000  Uiso   1.00
H160   H     0.35052   0.19336   0.21465   0.00000  Uiso   1.00
H161   H     0.65680   0.28923   0.34954   0.00000  Uiso   1.00
H162   H     0.33336   0.31343   0.28436   0.00000  Uiso   1.00
H163   H     0.40637   0.00571   0.24431   0.00000  Uiso   1.00
H164   H     0.39303   0.28712   0.45444   0.00000  Uiso   1.00
H165   H     0.65706   0.31672   0.48460   0.00000  Uiso   1.00
H166   H     0.59586   0.27777   0.03039   0.00000  Uiso   1.00
H167   H     0.60385   0.20802   0.04503   0.00000  Uiso   1.00
H168   H     0.33916   0.17691   0.01376   0.00000  Uiso   1.00
H169   H     0.45975   0.08296   0.44012   0.00000  Uiso   1.00
H170   H     0.45918   0.04051   0.37830   0.00000  Uiso   1.00
H171   H     0.65105   0.14118   0.28570   0.00000  Uiso   1.00
H172   H     0.52823   0.03210   0.32490   0.00000  Uiso   1.00
H173   H     0.59726   0.07000   0.33304   0.00000  Uiso   1.00
H174   H     0.59821   0.11459   0.39452   0.00000  Uiso   1.00
H175   H     0.54389   0.00384   0.22214   0.00000  Uiso   1.00
H176   H     0.47166   0.15761   0.10247   0.00000  Uiso   1.00
H177   H     0.59482   0.12152   0.09352   0.00000  Uiso   1.00
H178   H     0.58383   0.09964   0.46256   0.00000  Uiso   1.00
H179   H     0.40779   0.22089   0.40520   0.00000  Uiso   1.00
H180   H     0.52133   0.16895   0.40296   0.00000  Uiso   1.00
O181   O     0.50000   0.16667   0.25000   0.00000  Uiso   1.00
O182   O     0.49027   0.12393   0.16625   0.00000  Uiso   1.00
O183   O     0.46020   0.20646   0.33749   0.00000  Uiso   1.00
O184   O     0.54421   0.17493   0.15877   0.00000  Uiso   1.00
O185   O     0.50532   0.16135   0.33749   0.00000  Uiso   1.00
O186   O     0.62111   0.10827   0.01375   0.00000  Uiso   1.00
O187   O     0.51182   0.08101   0.27820   0.00000  Uiso   1.00
O188   O     0.47914   0.26136   0.26767   0.00000  Uiso   1.00
O189   O     0.40785   0.13251   0.23607   0.00000  Uiso   1.00
O190   O     0.60119   0.19179   0.21805   0.00000  Uiso   1.00
O191   O     0.40323   0.18960   0.27820   0.00000  Uiso   1.00
O192   O     0.58773   0.15277   0.26767   0.00000  Uiso   1.00
O193   O     0.47133   0.06903   0.23607   0.00000  Uiso   1.00
O194   O     0.53771   0.25527   0.21806   0.00000  Uiso   1.00
Zn195  Zn    0.52577   0.14090   0.28277   0.00000  Uiso   1.00
Zn196  Zn    0.46792   0.12378   0.22257   0.00000  Uiso   1.00
Zn197  Zn    0.54500   0.19664   0.21188   0.00000  Uiso   1.00
Zn198  Zn    0.46131   0.20535   0.28277   0.00000  Uiso   1.00
C199   C     0.71918   0.16008   0.25881   0.00000  Uiso   1.00
C200   C     0.86231   0.12721   0.45992   0.00000  Uiso   1.00
C201   C     0.89105   0.11798   0.47893   0.00000  Uiso   1.00
C202   C     0.94778   0.17368   0.24119   0.00000  Uiso   1.00
C203   C     0.88393   0.12788   0.01939   0.00000  Uiso   1.00
C204   C     0.84534   0.14521   0.04193   0.00000  Uiso   1.00
C205   C     0.91401   0.11847   0.03759   0.00000  Uiso   1.00
C206   C     0.90460   0.12573   0.07882   0.00000  Uiso   1.00
C207   C     0.83514   0.14772   0.08331   0.00000  Uiso   1.00
C208   C     0.99388   0.17645   0.23759   0.00000  Uiso   1.00
C209   C     0.67370   0.15806   0.26242   0.00000  Uiso   1.00
C210   C     0.76033   0.20945   0.42083   0.00000  Uiso   1.00
C211   C     0.84749   0.32255   0.24109   0.00000  Uiso   1.00
C212   C     0.81607   0.01265   0.26300   0.00000  Uiso   1.00
C213   C     0.82281   0.05628   0.25865   0.00000  Uiso   1.00
C214   C     0.84337   0.27774   0.24172   0.00000  Uiso   1.00
C215   C     0.85500   0.14562   0.14401   0.00000  Uiso   1.00
C216   C     0.81194   0.18770   0.35622   0.00000  Uiso   1.00
C217   C     0.79880   0.19276   0.39962   0.00000  Uiso   1.00
C218   C     0.86455   0.13826   0.10137   0.00000  Uiso   1.00
C219   C     0.74578   0.21098   0.46204   0.00000  Uiso   1.00
C220   C     0.97029   0.07674   0.02723   0.00000  Uiso   1.00
C221   C     0.82300   0.17747   0.41974   0.00000  Uiso   1.00
C222   C     0.67856   0.09442   0.03835   0.00000  Uiso   1.00
C223   C     0.69864   0.06083   0.05042   0.00000  Uiso   1.00
C224   C     0.77211   0.32971   0.28684   0.00000  Uiso   1.00
C225   C     0.76609   0.31610   0.32392   0.00000  Uiso   1.00
C226   C     0.72467   0.30148   0.34639   0.00000  Uiso   1.00
C227   C     0.68886   0.30060   0.33216   0.00000  Uiso   1.00
C228   C     0.69445   0.31420   0.29539   0.00000  Uiso   1.00
C229   C     0.73587   0.32877   0.27280   0.00000  Uiso   1.00
C230   C     0.70487   0.22993   0.48233   0.00000  Uiso   1.00
C231   C     0.69993   0.26952   0.47424   0.00000  Uiso   1.00
C232   C     0.80728   0.17400   0.46050   0.00000  Uiso   1.00
C233   C     0.99404   0.28653   0.49141   0.00000  Uiso   1.00
C234   C     0.95950   0.26446   0.01704   0.00000  Uiso   1.00
C235   C     0.96401   0.22508   0.02523   0.00000  Uiso   1.00
C236   C     0.66967   0.20767   0.00767   0.00000  Uiso   1.00
C237   C     0.86232   0.10205   0.42198   0.00000  Uiso   1.00
C238   C     0.82329   0.08069   0.41688   0.00000  Uiso   1.00
C239   C     0.82296   0.05616   0.38180   0.00000  Uiso   1.00
C240   C     0.86168   0.05184   0.35178   0.00000  Uiso   1.00
C241   C     0.90069   0.07306   0.35645   0.00000  Uiso   1.00
C242   C     0.90111   0.09815   0.39138   0.00000  Uiso   1.00
C243   C     0.76981   0.19371   0.48223   0.00000  Uiso   1.00
C244   C     0.82969   0.15376   0.48034   0.00000  Uiso   1.00
C245   C     0.81901   0.16003   0.02224   0.00000  Uiso   1.00
C246   C     0.78331   0.18213   0.04294   0.00000  Uiso   1.00
C247   C     0.75880   0.19765   0.02344   0.00000  Uiso   1.00
H248   H     0.73233   0.21472   0.04125   0.00000  Uiso   1.00
H249   H     0.77376   0.18890   0.07450   0.00000  Uiso   1.00
H250   H     0.97864   0.05236   0.00221   0.00000  Uiso   1.00
H251   H     0.94631   0.06091   0.05178   0.00000  Uiso   1.00
H252   H     0.70257   0.10820   0.01267   0.00000  Uiso   1.00
H253   H     0.67133   0.11940   0.06307   0.00000  Uiso   1.00
H254   H     0.67551   0.04686   0.07639   0.00000  Uiso   1.00
H255   H     0.72861   0.07477   0.05832   0.00000  Uiso   1.00
H256   H     0.70733   0.03611   0.02566   0.00000  Uiso   1.00
H257   H     0.79371   0.31542   0.33472   0.00000  Uiso   1.00
H258   H     0.72039   0.29062   0.37472   0.00000  Uiso   1.00
H259   H     0.68386   0.19336   0.21465   0.00000  Uiso   1.00
H260   H     0.99013   0.28923   0.34954   0.00000  Uiso   1.00
H261   H     0.66669   0.31343   0.28436   0.00000  Uiso   1.00
H262   H     0.73970   0.00571   0.24431   0.00000  Uiso   1.00
H263   H     0.72636   0.28712   0.45444   0.00000  Uiso   1.00
H264   H     0.99040   0.31672   0.48460   0.00000  Uiso   1.00
H265   H     0.92920   0.27777   0.03039   0.00000  Uiso   1.00
H266   H     0.93718   0.20802   0.04503   0.00000  Uiso   1.00
H267   H     0.67249   0.17691   0.01376   0.00000  Uiso   1.00
H268   H     0.79308   0.08296   0.44012   0.00000  Uiso   1.00
H269   H     0.79251   0.04051   0.37830   0.00000  Uiso   1.00
H270   H     0.98438   0.14118   0.28570   0.00000  Uiso   1.00
H271   H     0.86156   0.03210   0.32490   0.00000  Uiso   1.00
H272   H     0.93060   0.07000   0.33304   0.00000  Uiso   1.00
H273   H     0.93155   0.11459   0.39452   0.00000  Uiso   1.00
H274   H     0.87723   0.00384   0.22214   0.00000  Uiso   1.00
H275   H     0.80499   0.15761   0.10247   0.00000  Uiso   1.00
H276   H     0.92815   0.12152   0.09352   0.00000  Uiso   1.00
H277   H     0.91717   0.09964   0.46256   0.00000  Uiso   1.00
H278   H     0.74112   0.22089   0.40520   0.00000  Uiso   1.00
H279   H     0.85466   0.16895   0.40296   0.00000  Uiso   1.00
O280   O     0.83333   0.16667   0.25000   0.00000  Uiso   1.00
O281   O     0.82360   0.12393   0.16625   0.00000  Uiso   1.00
O282   O     0.79354   0.20646   0.33749   0.00000  Uiso   1.00
O283   O     0.87755   0.17493   0.15877   0.00000  Uiso   1.00
O284   O     0.83865   0.16135   0.33749   0.00000  Uiso   1.00
O285   O     0.95444   0.10827   0.01375   0.00000  Uiso   1.00
O286   O     0.84515   0.08101   0.27820   0.00000  Uiso   1.00
O287   O     0.81247   0.26136   0.26767   0.00000  Uiso   1.00
O288   O     0.74119   0.13251   0.23607   0.00000  Uiso   1.00
O289   O     0.93452   0.19179   0.21805   0.00000  Uiso   1.00
O290   O     0.73656   0.18960   0.27820   0.00000  Uiso   1.00
O291   O     0.92106   0.15277   0.26767   0.00000  Uiso   1.00
O292   O     0.80467   0.06903   0.23607   0.00000  Uiso   1.00
O293   O     0.87104   0.25527   0.21806   0.00000  Uiso   1.00
Zn294  Zn    0.85910   0.14090   0.28277   0.00000  Uiso   1.00
Zn295  Zn    0.80125   0.12378   0.22257   0.00000  Uiso   1.00
Zn296  Zn    0.87833   0.19664   0.21188   0.00000  Uiso   1.00
Zn297  Zn    0.79465   0.20535   0.28277   0.00000  Uiso   1.00
C298   C     0.05251   0.49341   0.25881   0.00000  Uiso   1.00
C299   C     0.19565   0.46055   0.45992   0.00000  Uiso   1.00
C300   C     0.22438   0.45132   0.47893   0.00000  Uiso   1.00
C301   C     0.28111   0.50701   0.24119   0.00000  Uiso   1.00
C302   C     0.21726   0.46121   0.01939   0.00000  Uiso   1.00
C303   C     0.17867   0.47854   0.04193   0.00000  Uiso   1.00
C304   C     0.24734   0.45181   0.03759   0.00000  Uiso   1.00
C305   C     0.23793   0.45906   0.07882   0.00000  Uiso   1.00
C306   C     0.16847   0.48105   0.08331   0.00000  Uiso   1.00
C307   C     0.32722   0.50978   0.23759   0.00000  Uiso   1.00
C308   C     0.00704   0.49139   0.26242   0.00000  Uiso   1.00
C309   C     0.09367   0.54279   0.42083   0.00000  Uiso   1.00
C310   C     0.18082   0.65588   0.24109   0.00000  Uiso   1.00
C311   C     0.14941   0.34598   0.26300   0.00000  Uiso   1.00
C312   C     0.15615   0.38962   0.25865   0.00000  Uiso   1.00
C313   C     0.17671   0.61107   0.24172   0.00000  Uiso   1.00
C314   C     0.18833   0.47895   0.14401   0.00000  Uiso   1.00
C315   C     0.14528   0.52103   0.35622   0.00000  Uiso   1.00
C316   C     0.13213   0.52610   0.39962   0.00000  Uiso   1.00
C317   C     0.19789   0.47159   0.10137   0.00000  Uiso   1.00
C318   C     0.07911   0.54431   0.46204   0.00000  Uiso   1.00
C319   C     0.30363   0.41007   0.02723   0.00000  Uiso   1.00
C320   C     0.15633   0.51081   0.41974   0.00000  Uiso   1.00
C321   C     0.01189   0.42775   0.03835   0.00000  Uiso   1.00
C322   C     0.03197   0.39416   0.05042   0.00000  Uiso   1.00
C323   C     0.10544   0.66305   0.28684   0.00000  Uiso   1.00
C324   C     0.09942   0.64943   0.32392   0.00000  Uiso   1.00
C325   C     0.05800   0.63482   0.34639   0.00000  Uiso   1.00
C326   C     0.02219   0.63393   0.33216   0.00000  Uiso   1.00
C327   C     0.02779   0.64754   0.29539   0.00000  Uiso   1.00
C328   C     0.06920   0.66211   0.27280   0.00000  Uiso   1.00
C329   C     0.03820   0.56326   0.48233   0.00000  Uiso   1.00
C330   C     0.03326   0.60286   0.47424   0.00000  Uiso   1.00
C331   C     0.14062   0.50733   0.46050   0.00000  Uiso   1.00
C332   C     0.32737   0.61987   0.49141   0.00000  Uiso   1.00
C333   C     0.29283   0.59779   0.01704   0.00000  Uiso   1.00
C334   C     0.29734   0.55842   0.02523   0.00000  Uiso   1.00
C335   C     0.00300   0.54100   0.00767   0.00000  Uiso   1.00
C336   C     0.19565   0.43539   0.42198   0.00000  Uiso   1.00
C337   C     0.15662   0.41402   0.41688   0.00000  Uiso   1.00
C338   C     0.15629   0.38949   0.38180   0.00000  Uiso   1.00
C339   C     0.19502   0.38518   0.35178   0.00000  Uiso   1.00
C340   C     0.23402   0.40639   0.35645   0.00000  Uiso   1.00
C341   C     0.23444   0.43148   0.39138   0.00000  Uiso   1.00
C342   C     0.10315   0.52704   0.48223   0.00000  Uiso   1.00
C343   C     0.16302   0.48710   0.48034   0.00000  Uiso   1.00
C344   C     0.15235   0.49337   0.02224   0.00000  Uiso   1.00
C345   C     0.11665   0.51547   0.04294   0.00000  Uiso   1.00
C346   C     0.09213   0.53098   0.02344   0.00000  Uiso   1.00
H347   H     0.06566   0.54805   0.04125   0.00000  Uiso   1.00
H348   H     0.10710   0.52223   0.07450   0.00000  Uiso   1.00
H349   H     0.31197   0.38569   0.00221   0.00000  Uiso   1.00
H350   H     0.27964   0.39424   0.05178   0.00000  Uiso   1.00
H351   H     0.03590   0.44153   0.01267   0.00000  Uiso   1.00
H352   H     0.00466   0.45273   0.06307   0.00000  Uiso   1.00
H353   H     0.00884   0.38020   0.07639   0.00000  Uiso   1.00
H354   H     0.06195   0.40811   0.05832   0.00000  Uiso   1.00
H355   H     0.04066   0.36944   0.02566   0.00000  Uiso   1.00
H356   H     0.12704   0.64875   0.33472   0.00000  Uiso   1.00
H357   H     0.05373   0.62395   0.37472   0.00000  Uiso   1.00
H358   H     0.01719   0.52669   0.21465   0.00000  Uiso   1.00
H359   H     0.32347   0.62257   0.34954   0.00000  Uiso   1.00
H360   H     0.00003   0.64676   0.28436   0.00000  Uiso   1.00
H361   H     0.07303   0.33905   0.24431   0.00000  Uiso   1.00
H362   H     0.05969   0.62045   0.45444   0.00000  Uiso   1.00
H363   H     0.32373   0.65005   0.48460   0.00000  Uiso   1.00
H364   H     0.26253   0.61110   0.03039   0.00000  Uiso   1.00
H365   H     0.27052   0.54136   0.04503   0.00000  Uiso   1.00
H366   H     0.00582   0.51025   0.01376   0.00000  Uiso   1.00
H367   H     0.12641   0.41630   0.44012   0.00000  Uiso   1.00
H368   H     0.12584   0.37384   0.37830   0.00000  Uiso   1.00
H369   H     0.31771   0.47452   0.28570   0.00000  Uiso   1.00
H370   H     0.19489   0.36544   0.32490   0.00000  Uiso   1.00
H371   H     0.26393   0.40333   0.33304   0.00000  Uiso   1.00
H372   H     0.26488   0.44792   0.39452   0.00000  Uiso   1.00
H373   H     0.21056   0.33717   0.22214   0.00000  Uiso   1.00
H374   H     0.13832   0.49094   0.10247   0.00000  Uiso   1.00
H375   H     0.26149   0.45485   0.09352   0.00000  Uiso   1.00
H376   H     0.25050   0.43297   0.46256   0.00000  Uiso   1.00
H377   H     0.07446   0.55423   0.40520   0.00000  Uiso   1.00
H378   H     0.18799   0.50229   0.40296   0.00000  Uiso   1.00
O379   O     0.16667   0.50000   0.25000   0.00000  Uiso   1.00
O380   O     0.15693   0.45726   0.16625   0.00000  Uiso   1.00
O381   O     0.12687   0.53979   0.33749   0.00000  Uiso   1.00
O382   O     0.21088   0.50826   0.15877   0.00000  Uiso   1.00
O383   O     0.17198   0.49468   0.33749   0.00000  Uiso   1.00
O384   O     0.28778   0.44161   0.01375   0.00000  Uiso   1.00
O385   O     0.17849   0.41434   0.27820   0.00000  Uiso   1.00
O386   O     0.14581   0.59469   0.26767   0.00000  Uiso   1.00
O387   O     0.07452   0.46584   0.23607   0.00000  Uiso   1.00
O388   O     0.26785   0.52512   0.21805   0.00000  Uiso   1.00
O389   O     0.06990   0.52293   0.27820   0.00000  Uiso   1.00
O390   O     0.25440   0.48610   0.26767   0.00000  Uiso   1.00
O391   O     0.13800   0.40236   0.23607   0.00000  Uiso   1.00
O392   O     0.20437   0.58860   0.21806   0.00000  Uiso   1.00
Zn393  Zn    0.19244   0.47423   0.28277   0.00000  Uiso   1.00
Zn394  Zn    0.13459   0.45711   0.22257   0.00000  Uiso   1.00
Zn395  Zn    0.21166   0.52997   0.21188   0.00000  Uiso   1.00
Zn396  Zn    0.12798   0.53868   0.28277   0.00000  Uiso   1.00
C397   C     0.38585   0.49341   0.25881   0.00000  Uiso   1.00
C398   C     0.52898   0.46055   0.45992   0.00000  Uiso   1.00
C399   C     0.55772   0.45132   0.47893   0.00000  Uiso   1.00
C400   C     0.61445   0.50701   0.24119   0.00000  Uiso   1.00
C401   C     0.55059   0.46121   0.01939   0.00000  Uiso   1.00
C402   C     0.51201   0.47854   0.04193   0.00000  Uiso   1.00
C403   C     0.58067   0.45181   0.03759   0.00000  Uiso   1.00
C404   C     0.57127   0.45906   0.07882   0.00000  Uiso   1.00
C405   C     0.50181   0.48105   0.08331   0.00000  Uiso   1.00
C406   C     0.66055   0.50978   0.23759   0.00000  Uiso   1.00
C407   C     0.34037   0.49139   0.26242   0.00000  Uiso   1.00
C408   C     0.42700   0.54279   0.42083   0.00000  Uiso   1.00
C409   C     0.51415   0.65588   0.24109   0.00000  Uiso   1.00
C410   C     0.48274   0.34598   0.26300   0.00000  Uiso   1.00
C411   C     0.48948   0.38962   0.25865   0.00000  Uiso   1.00
C412   C     0.51004   0.61107   0.24172   0.00000  Uiso   1.00
C413   C     0.52166   0.47895   0.14401   0.00000  Uiso   1.00
C414   C     0.47861   0.52103   0.35622   0.00000  Uiso   1.00
C415   C     0.46546   0.52610   0.39962   0.00000  Uiso   1.00
C416   C     0.53122   0.47159   0.10137   0.00000  Uiso   1.00
C417   C     0.41245   0.54431   0.46204   0.00000  Uiso   1.00
C418   C     0.63696   0.41007   0.02723   0.00000  Uiso   1.00
C419   C     0.48967   0.51081   0.41974   0.00000  Uiso   1.00
C420   C     0.34523   0.42775   0.03835   0.00000  Uiso   1.00
C421   C     0.36530   0.39416   0.05042   0.00000  Uiso   1.00
C422   C     0.43877   0.66305   0.28684   0.00000  Uiso   1.00
C423   C     0.43275   0.64943   0.32392   0.00000  Uiso   1.00
C424   C     0.39133   0.63482   0.34639   0.00000  Uiso   1.00
C425   C     0.35552   0.63393   0.33216   0.00000  Uiso   1.00
C426   C     0.36112   0.64754   0.29539   0.00000  Uiso   1.00
C427   C     0.40254   0.66211   0.27280   0.00000  Uiso   1.00
C428   C     0.37154   0.56326   0.48233   0.00000  Uiso   1.00
C429   C     0.36659   0.60286   0.47424   0.00000  Uiso   1.00
C430   C     0.47395   0.50733   0.46050   0.00000  Uiso   1.00
C431   C     0.66071   0.61987   0.49141   0.00000  Uiso   1.00
C432   C     0.62617   0.59779   0.01704   0.00000  Uiso   1.00
C433   C     0.63068   0.55842   0.02523   0.00000  Uiso   1.00
C434   C     0.33633   0.54100   0.00767   0.00000  Uiso   1.00
C435   C     0.52899   0.43539   0.42198   0.00000  Uiso   1.00
C436   C     0.48995   0.41402   0.41688   0.00000  Uiso   1.00
C437   C     0.48963   0.38949   0.38180   0.00000  Uiso   1.00
C438   C     0.52835   0.38518   0.35178   0.00000  Uiso   1.00
C439   C     0.56735   0.40639   0.35645   0.00000  Uiso   1.00
C440   C     0.56777   0.43148   0.39138   0.00000  Uiso   1.00
C441   C     0.43648   0.52704   0.48223   0.00000  Uiso   1.00
C442   C     0.49636   0.48710   0.48034   0.00000  Uiso   1.00
C443   C     0.48568   0.49337   0.02224   0.00000  Uiso   1.00
C444   C     0.44998   0.51547   0.04294   0.00000  Uiso   1.00
C445   C     0.42546   0.53098   0.02344   0.00000  Uiso   1.00
H446   H     0.39900   0.54805   0.04125   0.00000  Uiso   1.00
H447   H     0.44043   0.52223   0.07450   0.00000  Uiso   1.00
H448   H     0.64531   0.38569   0.00221   0.00000  Uiso   1.00
H449   H     0.61297   0.39424   0.05178   0.00000  Uiso   1.00
H450   H     0.36923   0.44153   0.01267   0.00000  Uiso   1.00
H451   H     0.33799   0.45273   0.06307   0.00000  Uiso   1.00
H452   H     0.34217   0.38020   0.07639   0.00000  Uiso   1.00
H453   H     0.39528   0.40811   0.05832   0.00000  Uiso   1.00
H454   H     0.37400   0.36944   0.02566   0.00000  Uiso   1.00
H455   H     0.46037   0.64875   0.33472   0.00000  Uiso   1.00
H456   H     0.38706   0.62395   0.37472   0.00000  Uiso   1.00
H457   H     0.35052   0.52669   0.21465   0.00000  Uiso   1.00
H458   H     0.65680   0.62257   0.34954   0.00000  Uiso   1.00
H459   H     0.33336   0.64676   0.28436   0.00000  Uiso   1.00
H460   H     0.40637   0.33905   0.24431   0.00000  Uiso   1.00
H461   H     0.39303   0.62045   0.45444   0.00000  Uiso   1.00
H462   H     0.65706   0.65005   0.48460   0.00000  Uiso   1.00
H463   H     0.59586   0.61110   0.03039   0.00000  Uiso   1.00
H464   H     0.60385   0.54136   0.04503   0.00000  Uiso   1.00
H465   H     0.33916   0.51025   0.01376   0.00000  Uiso   1.00
H466   H     0.45975   0.41630   0.44012   0.00000  Uiso   1.00
H467   H     0.45918   0.37384   0.37830   0.00000  Uiso   1.00
H468   H     0.65105   0.47452   0.28570   0.00000  Uiso   1.00
H469   H     0.52823   0.36544   0.32490   0.00000  Uiso   1.00
H470   H     0.59726   0.40333   0.33304   0.00000  Uiso   1.00
H471   H     0.59821   0.44792   0.39452   0.00000  Uiso   1.00
H472   H     0.54389   0.33717   0.22214   0.00000  Uiso   1.00
H473   H     0.47166   0.49094   0.10247   0.00000  Uiso   1.00
H474   H     0.59482   0.45485   0.09352   0.00000  Uiso   1.00
H475   H     0.58383   0.43297   0.46256   0.00000  Uiso   1.00
H476   H     0.40779   0.55423   0.40520   0.00000  Uiso   1.00
H477   H     0.52133   0.50229   0.40296   0.00000  Uiso   1.00
O478   O     0.50000   0.50000   0.25000   0.00000  Uiso   1.00
O479   O     0.49027   0.45726   0.16625   0.00000  Uiso   1.00
O480   O     0.46020   0.53979   0.33749   0.00000  Uiso   1.00
O481   O     0.54421   0.50826   0.15877   0.00000  Uiso   1.00
O482   O     0.50532   0.49468   0.33749   0.00000  Uiso   1.00
O483   O     0.62111   0.44161   0.01375   0.00000  Uiso   1.00
O484   O     0.51182   0.41434   0.27820   0.00000  Uiso   1.00
O485   O     0.47914   0.59469   0.26767   0.00000  Uiso   1.00
O486   O     0.40785   0.46584   0.23607   0.00000  Uiso   1.00
O487   O     0.60119   0.52512   0.21805   0.00000  Uiso   1.00
O488   O     0.40323   0.52293   0.27820   0.00000  Uiso   1.00
O489   O     0.58773   0.48610   0.26767   0.00000  Uiso   1.00
O490   O     0.47133   0.40236   0.23607   0.00000  Uiso   1.00
O491   O     0.53771   0.58860   0.21806   0.00000  Uiso   1.00
Zn492  Zn    0.52577   0.47423   0.28277   0.00000  Uiso   1.00
Zn493  Zn    0.46792   0.45711   0.22257   0.00000  Uiso   1.00
Zn494  Zn    0.54500   0.52997   0.21188   0.00000  Uiso   1.00
Zn495  Zn    0.46131   0.53868   0.28277   0.00000  Uiso   1.00
C496   C     0.71918   0.49341   0.25881   0.00000  Uiso   1.00
C497   C     0.86231   0.46055   0.45992   0.00000  Uiso   1.00
C498   C     0.89105   0.45132   0.47893   0.00000  Uiso   1.00
C499   C     0.94778   0.50701   0.24119   0.00000  Uiso   1.00
C500   C     0.88393   0.46121   0.01939   0.00000  Uiso   1.00
C501   C     0.84534   0.47854   0.04193   0.00000  Uiso   1.00
C502   C     0.91401   0.45181   0.03759   0.00000  Uiso   1.00
C503   C     0.90460   0.45906   0.07882   0.00000  Uiso   1.00
C504   C     0.83514   0.48105   0.08331   0.00000  Uiso   1.00
C505   C     0.99388   0.50978   0.23759   0.00000  Uiso   1.00
C506   C     0.67370   0.49139   0.26242   0.00000  Uiso   1.00
C507   C     0.76033   0.54279   0.42083   0.00000  Uiso   1.00
C508   C     0.84749   0.65588   0.24109   0.00000  Uiso   1.00
C509   C     0.81607   0.34598   0.26300   0.00000  Uiso   1.00
C510   C     0.82281   0.38962   0.25865   0.00000  Uiso   1.00
C511   C     0.84337   0.61107   0.24172   0.00000  Uiso   1.00
C512   C     0.85500   0.47895   0.14401   0.00000  Uiso   1.00
C513   C     0.81194   0.52103   0.35622   0.00000  Uiso   1.00
C514   C     0.79880   0.52610   0.39962   0.00000  Uiso   1.00
C515   C     0.86455   0.47159   0.10137   0.00000  Uiso   1.00
C516   C     0.74578   0.54431   0.46204   0.00000  Uiso   1.00
C517   C     0.97029   0.41007   0.02723   0.00000  Uiso   1.00
C518   C     0.82300   0.51081   0.41974   0.00000  Uiso   1.00
C519   C     0.67856   0.42775   0.03835   0.00000  Uiso   1.00
C520   C     0.69864   0.39416   0.05042   0.00000  Uiso   1.00
C521   C     0.77211   0.66305   0.28684   0.00000  Uiso   1.00
C522   C     0.76609   0.64943   0.32392   0.00000  Uiso   1.00
C523   C     0.72467   0.63482   0.34639   0.00000  Uiso   1.00
C524   C     0.68886   0.63393   0.33216   0.00000  Uiso   1.00
C525   C     0.69445   0.64754   0.29539   0.00000  Uiso   1.00
C526   C     0.73587   0.66211   0.27280   0.00000  Uiso   1.00
C527   C     0.70487   0.56326   0.48233   0.00000  Uiso   1.00
C528   C     0.69993   0.60286   0.47424   0.00000  Uiso   1.00
C529   C     0.80728   0.50733   0.46050   0.00000  Uiso   1.00
C530   C     0.99404   0.61987   0.49141   0.00000  Uiso   1.00
C531   C     0.95950   0.59779   0.01704   0.00000  Uiso   1.00
C532   C     0.96401   0.55842   0.02523   0.00000  Uiso   1.00
C533   C     0.66967   0.54100   0.00767   0.00000  Uiso   1.00
C534   C     0.86232   0.43539   0.42198   0.00000  Uiso   1.00
C535   C     0.82329   0.41402   0.41688   0.00000  Uiso   1.00
C536   C     0.82296   0.38949   0.38180   0.00000  Uiso   1.00
C537   C     0.86168   0.38518   0.35178   0.00000  Uiso   1.00
C538   C     0.90069   0.40639   0.35645   0.00000  Uiso   1.00
C539   C     0.90111   0.43148   0.39138   0.00000  Uiso   1.00
C540   C     0.76981   0.52704   0.48223   0.00000  Uiso   1.00
C541   C     0.82969   0.48710   0.48034   0.00000  Uiso   1.00
C542   C     0.81901   0.49337   0.02224   0.00000  Uiso   1.00
C543   C     0.78331   0.51547   0.04294   0.00000  Uiso   1.00
C544   C     0.75880   0.53098   0.02344   0.00000  Uiso   1.00
H545   H     0.73233   0.54805   0.04125   0.00000  Uiso   1.00
H546   H     0.77376   0.52223   0.07450   0.00000  Uiso   1.00
H547   H     0.97864   0.38569   0.00221   0.00000  Uiso   1.00
H548   H     0.94631   0.39424   0.05178   0.00000  Uiso   1.00
H549   H     0.70257   0.44153   0.01267   0.00000  Uiso   1.00
H550   H     0.67133   0.45273   0.06307   0.00000  Uiso   1.00
H551   H     0.67551   0.38020   0.07639   0.00000  Uiso   1.00
H552   H     0.72861   0.40811   0.05832   0.00000  Uiso   1.00
H553   H     0.70733   0.36944   0.02566   0.00000  Uiso   1.00
H554   H     0.79371   0.64875   0.33472   0.00000  Uiso   1.00
H555   H     0.72039   0.62395   0.37472   0.00000  Uiso   1.00
H556   H     0.68386   0.52669   0.21465   0.00000  Uiso   1.00
H557   H     0.99013   0.62257   0.34954   0.00000  Uiso   1.00
H558   H     0.66669   0.64676   0.28436   0.00000  Uiso   1.00
H559   H     0.73970   0.33905   0.24431   0.00000  Uiso   1.00
H560   H     0.72636   0.62045   0.45444   0.00000  Uiso   1.00
H561   H     0.99040   0.65005   0.48460   0.00000  Uiso   1.00
H562   H     0.92920   0.61110   0.03039   0.00000  Uiso   1.00
H563   H     0.93718   0.54136   0.04503   0.00000  Uiso   1.00
H564   H     0.67249   0.51025   0.01376   0.00000  Uiso   1.00
H565   H     0.79308   0.41630   0.44012   0.00000  Uiso   1.00
H566   H     0.79251   0.37384   0.37830   0.00000  Uiso   1.00
H567   H     0.98438   0.47452   0.28570   0.00000  Uiso   1.00
H568   H     0.86156   0.36544   0.32490   0.00000  Uiso   1.00
H569   H     0.93060   0.40333   0.33304   0.00000  Uiso   1.00
H570   H     0.93155   0.44792   0.39452   0.00000  Uiso   1.00
H571   H     0.87723   0.33717   0.22214   0.00000  Uiso   1.00
H572   H     0.80499   0.49094   0.10247   0.00000  Uiso   1.00
H573   H     0.92815   0.45485   0.09352   0.00000  Uiso   1.00
H574   H     0.91717   0.43297   0.46256   0.00000  Uiso   1.00
H575   H     0.74112   0.55423   0.40520   0.00000  Uiso   1.00
H576   H     0.85466   0.50229   0.40296   0.00000  Uiso   1.00
O577   O     0.83333   0.50000   0.25000   0.00000  Uiso   1.00
O578   O     0.82360   0.45726   0.16625   0.00000  Uiso   1.00
O579   O     0.79354   0.53979   0.33749   0.00000  Uiso   1.00
O580   O     0.87755   0.50826   0.15877   0.00000  Uiso   1.00
O581   O     0.83865   0.49468   0.33749   0.00000  Uiso   1.00
O582   O     0.95444   0.44161   0.01375   0.00000  Uiso   1.00
O583   O     0.84515   0.41434   0.27820   0.00000  Uiso   1.00
O584   O     0.81247   0.59469   0.26767   0.00000  Uiso   1.00
O585   O     0.74119   0.46584   0.23607   0.00000  Uiso   1.00
O586   O     0.93452   0.52512   0.21805   0.00000  Uiso   1.00
O587   O     0.73656   0.52293   0.27820   0.00000  Uiso   1.00
O588   O     0.92106   0.48610   0.26767   0.00000  Uiso   1.00
O589   O     0.80467   0.40236   0.23607   0.00000  Uiso   1.00
O590   O     0.87104   0.58860   0.21806   0.00000  Uiso   1.00
Zn591  Zn    0.85910   0.47423   0.28277   0.00000  Uiso   1.00
Zn592  Zn    0.80125   0.45711   0.22257   0.00000  Uiso   1.00
Zn593  Zn    0.87833   0.52997   0.21188   0.00000  Uiso   1.00
Zn594  Zn    0.79465   0.53868   0.28277   0.00000  Uiso   1.00
C595   C     0.05251   0.82675   0.25881   0.00000  Uiso   1.00
C596   C     0.19565   0.79388   0.45992   0.00000  Uiso   1.00
C597   C     0.22438   0.78465   0.47893   0.00000  Uiso   1.00
C598   C     0.28111   0.84035   0.24119   0.00000  Uiso   1.00
C599   C     0.21726   0.79454   0.01939   0.00000  Uiso   1.00
C600   C     0.17867   0.81188   0.04193   0.00000  Uiso   1.00
C601   C     0.24734   0.78514   0.03759   0.00000  Uiso   1.00
C602   C     0.23793   0.79239   0.07882   0.00000  Uiso   1.00
C603   C     0.16847   0.81438   0.08331   0.00000  Uiso   1.00
C604   C     0.32722   0.84312   0.23759   0.00000  Uiso   1.00
C605   C     0.00704   0.82472   0.26242   0.00000  Uiso   1.00
C606   C     0.09367   0.87612   0.42083   0.00000  Uiso   1.00
C607   C     0.18082   0.98922   0.24109   0.00000  Uiso   1.00
C608   C     0.14941   0.67931   0.26300   0.00000  Uiso   1.00
C609   C     0.15615   0.72295   0.25865   0.00000  Uiso   1.00
C610   C     0.17671   0.94440   0.24172   0.00000  Uiso   1.00
C611   C     0.18833   0.81228   0.14401   0.00000  Uiso   1.00
C612   C     0.14528   0.85437   0.35622   0.00000  Uiso   1.00
C613   C     0.13213   0.85943   0.39962   0.00000  Uiso   1.00
C614   C     0.19789   0.80492   0.10137   0.00000  Uiso   1.00
C615   C     0.07911   0.87765   0.46204   0.00000  Uiso   1.00
C616   C     0.30363   0.74340   0.02723   0.00000  Uiso   1.00
C617   C     0.15633   0.84414   0.41974   0.00000  Uiso   1.00
C618   C     0.01189   0.76109   0.03835   0.00000  Uiso   1.00
C619   C     0.03197   0.72750   0.05042   0.00000  Uiso   1.00
C620   C     0.10544   0.99638   0.28684   0.00000  Uiso   1.00
C621   C     0.09942   0.98277   0.32392   0.00000  Uiso   1.00
C622   C     0.05800   0.96815   0.34639   0.00000  Uiso   1.00
C623   C     0.02219   0.96726   0.33216   0.00000  Uiso   1.00
C624   C     0.02779   0.98087   0.29539   0.00000  Uiso   1.00
C625   C     0.06920   0.99544   0.27280   0.00000  Uiso   1.00
C626   C     0.03820   0.89660   0.48233   0.00000  Uiso   1.00
C627   C     0.03326   0.93619   0.47424   0.00000  Uiso   1.00
C628   C     0.14062   0.84066   0.46050   0.00000  Uiso   1.00
C629   C     0.32737   0.95320   0.49141   0.00000  Uiso   1.00
C630   C     0.29283   0.93112   0.01704   0.00000  Uiso   1.00
C631   C     0.29734   0.89175   0.02523   0.00000  Uiso   1.00
C632   C     0.00300   0.87434   0.00767   0.00000  Uiso   1.00
C633   C     0.19565   0.76872   0.42198   0.00000  Uiso   1.00
C634   C     0.15662   0.74736   0.41688   0.00000  Uiso   1.00
C635   C     0.15629   0.72283   0.38180   0.00000  Uiso   1.00
C636   C     0.19502   0.71851   0.35178   0.00000  Uiso   1.00
C637   C     0.23402   0.73972   0.35645   0.00000  Uiso   1.00
C638   C     0.23444   0.76481   0.39138   0.00000  Uiso   1.00
C639   C     0.10315   0.86038   0.48223   0.00000  Uiso   1.00
C640   C     0.16302   0.82043   0.48034   0.00000  Uiso   1.00
C641   C     0.15235   0.82670   0.02224   0.00000  Uiso   1.00
C642   C     0.11665   0.84880   0.04294   0.00000  Uiso   1.00
C643   C     0.09213   0.86432   0.02344   0.00000  Uiso   1.00
H644   H     0.06566   0.88138   0.04125   0.00000  Uiso   1.00
H645   H     0.10710   0.85556   0.07450   0.00000  Uiso   1.00
H646   H     0.31197   0.71903   0.00221   0.00000  Uiso   1.00
H647   H     0.27964   0.72758   0.05178   0.00000  Uiso   1.00
H648   H     0.03590   0.77487   0.01267   0.00000  Uiso   1.00
H649   H     0.00466   0.78606   0.06307   0.00000  Uiso   1.00
H650   H     0.00884   0.71353   0.07639   0.00000  Uiso   1.00
H651   H     0.06195   0.74144   0.05832   0.00000  Uiso   1.00
H652   H     0.04066   0.70278   0.02566   0.00000  Uiso   1.00
H653   H     0.12704   0.98209   0.33472   0.00000  Uiso   1.00
H654   H     0.05373   0.95728   0.37472   0.00000  Uiso   1.00
H655   H     0.01719   0.86003   0.21465   0.00000  Uiso   1.00
H656   H     0.32347   0.95590   0.34954   0.00000  Uiso   1.00
H657   H     0.00003   0.98009   0.28436   0.00000  Uiso   1.00
H658   H     0.07303   0.67238   0.24431   0.00000  Uiso   1.00
H659   H     0.05969   0.95379   0.45444   0.00000  Uiso   1.00
H660   H     0.32373   0.98339   0.48460   0.00000  Uiso   1.00
H661   H     0.26253   0.94444   0.03039   0.00000  Uiso   1.00
H662   H     0.27052   0.87469   0.04503   0.00000  Uiso   1.00
H663   H     0.00582   0.84358   0.01376   0.00000  Uiso   1.00
H664   H     0.12641   0.74963   0.44012   0.00000  Uiso   1.00
H665   H     0.12584   0.70718   0.37830   0.00000  Uiso   1.00
H666   H     0.31771   0.80785   0.28570   0.00000  Uiso   1.00
H667   H     0.19489   0.69877   0.32490   0.00000  Uiso   1.00
H668   H     0.26393   0.73666   0.33304   0.00000  Uiso   1.00
H669   H     0.26488   0.78126   0.39452   0.00000  Uiso   1.00
H670   H     0.21056   0.67051   0.22214   0.00000  Uiso   1.00
H671   H     0.13832   0.82428   0.10247   0.00000  Uiso   1.00
H672   H     0.26149   0.78818   0.09352   0.00000  Uiso   1.00
H673   H     0.25050   0.76630   0.46256   0.00000  Uiso   1.00
H674   H     0.07446   0.88756   0.40520   0.00000  Uiso   1.00
H675   H     0.18799   0.83562   0.40296   0.00000  Uiso   1.00
O676   O     0.16667   0.83333   0.25000   0.00000  Uiso   1.00
O677   O     0.15693   0.79060   0.16625   0.00000  Uiso   1.00
O678   O     0.12687   0.87313   0.33749   0.00000  Uiso   1.00
O679   O     0.21088   0.84159   0.15877   0.00000  Uiso   1.00
O680   O     0.17198   0.82802   0.33749   0.00000  Uiso   1.00
O681   O     0.28778   0.77494   0.01375   0.00000  Uiso   1.00
O682   O     0.17849   0.74768   0.27820   0.00000  Uiso   1.00
O683   O     0.14581   0.92803   0.26767   0.00000  Uiso   1.00
O684   O     0.07452   0.79917   0.23607   0.00000  Uiso   1.00
O685   O     0.26785   0.85845   0.21805   0.00000  Uiso   1.00
O686   O     0.06990   0.85627   0.27820   0.00000  Uiso   1.00
O687   O     0.25440   0.81944   0.26767   0.00000  Uiso   1.00
O688   O     0.13800   0.73570   0.23607   0.00000  Uiso   1.00
O689   O     0.20437   0.92193   0.21806   0.00000  Uiso   1.00
Zn690  Zn    0.19244   0.80756   0.28277   0.00000  Uiso   1.00
Zn691  Zn    0.13459   0.79044   0.22257   0.00000  Uiso   1.00
Zn692  Zn    0.21166   0.86331   0.21188   0.00000  Uiso   1.00
Zn693  Zn    0.12798   0.87202   0.28277   0.00000  Uiso   1.00
C694   C     0.38585   0.82675   0.25881   0.00000  Uiso   1.00
C695   C     0.52898   0.79388   0.45992   0.00000  Uiso   1.00
C696   C     0.55772   0.78465   0.47893   0.00000  Uiso   1.00
C697   C     0.61445   0.84035   0.24119   0.00000  Uiso   1.00
C698   C     0.55059   0.79454   0.01939   0.00000  Uiso   1.00
C699   C     0.51201   0.81188   0.04193   0.00000  Uiso   1.00
C700   C     0.58067   0.78514   0.03759   0.00000  Uiso   1.00
C701   C     0.57127   0.79239   0.07882   0.00000  Uiso   1.00
C702   C     0.50181   0.81438   0.08331   0.00000  Uiso   1.00
C703   C     0.66055   0.84312   0.23759   0.00000  Uiso   1.00
C704   C     0.34037   0.82472   0.26242   0.00000  Uiso   1.00
C705   C     0.42700   0.87612   0.42083   0.00000  Uiso   1.00
C706   C     0.51415   0.98922   0.24109   0.00000  Uiso   1.00
C707   C     0.48274   0.67931   0.26300   0.00000  Uiso   1.00
C708   C     0.48948   0.72295   0.25865   0.00000  Uiso   1.00
C709   C     0.51004   0.94440   0.24172   0.00000  Uiso   1.00
C710   C     0.52166   0.81228   0.14401   0.00000  Uiso   1.00
C711   C     0.47861   0.85437   0.35622   0.00000  Uiso   1.00
C712   C     0.46546   0.85943   0.39962   0.00000  Uiso   1.00
C713   C     0.53122   0.80492   0.10137   0.00000  Uiso   1.00
C714   C     0.41245   0.87765   0.46204   0.00000  Uiso   1.00
C715   C     0.63696   0.74340   0.02723   0.00000  Uiso   1.00
C716   C     0.48967   0.84414   0.41974   0.00000  Uiso   1.00
C717   C     0.34523   0.76109   0.03835   0.00000  Uiso   1.00
C718   C     0.36530   0.72750   0.05042   0.00000  Uiso   1.00
C719   C     0.43877   0.99638   0.28684   0.00000  Uiso   1.00
C720   C     0.43275   0.98277   0.32392   0.00000  Uiso   1.00
C721   C     0.39133   0.96815   0.34639   0.00000  Uiso   1.00
C722   C     0.35552   0.96726   0.33216   0.00000  Uiso   1.00
C723   C     0.36112   0.98087   0.29539   0.00000  Uiso   1.00
C724   C     0.40254   0.99544   0.27280   0.00000  Uiso   1.00
C725   C     0.37154   0.89660   0.48233   0.00000  Uiso   1.00
C726   C     0.36659   0.93619   0.47424   0.00000  Uiso   1.00
C727   C     0.47395   0.84066   0.46050   0.00000  Uiso   1.00
C728   C     0.66071   0.95320   0.49141   0.00000  Uiso   1.00
C729   C     0.62617   0.93112   0.01704   0.00000  Uiso   1.00
C730   C     0.63068   0.89175   0.02523   0.00000  Uiso   1.00
C731   C     0.33633   0.87434   0.00767   0.00000  Uiso   1.00
C732   C     0.52899   0.76872   0.42198   0.00000  Uiso   1.00
C733   C     0.48995   0.74736   0.41688   0.00000  Uiso   1.00
C734   C     0.48963   0.72283   0.38180   0.00000  Uiso   1.00
C735   C     0.52835   0.71851   0.35178   0.00000  Uiso   1.00
C736   C     0.56735   0.73972   0.35645   0.00000  Uiso   1.00
C737   C     0.56777   0.76481   0.39138   0.00000  Uiso   1.00
C738   C     0.43648   0.86038   0.48223   0.00000  Uiso   1.00
C739   C     0.49636   0.82043   0.48034   0.00000  Uiso   1.00
C740   C     0.48568   0.82670   0.02224   0.00000  Uiso   1.00
C741   C     0.44998   0.84880   0.04294   0.00000  Uiso   1.00
C742   C     0.42546   0.86432   0.02344   0.00000  Uiso   1.00
H743   H     0.39900   0.88138   0.04125   0.00000  Uiso   1.00
H744   H     0.44043   0.85556   0.07450   0.00000  Uiso   1.00
H745   H     0.64531   0.71903   0.00221   0.00000  Uiso   1.00
H746   H     0.61297   0.72758   0.05178   0.00000  Uiso   1.00
H747   H     0.36923   0.77487   0.01267   0.00000  Uiso   1.00
H748   H     0.33799   0.78606   0.06307   0.00000  Uiso   1.00
H749   H     0.34217   0.71353   0.07639   0.00000  Uiso   1.00
H750   H     0.39528   0.74144   0.05832   0.00000  Uiso   1.00
H751   H     0.37400   0.70278   0.02566   0.00000  Uiso   1.00
H752   H     0.46037   0.98209   0.33472   0.00000  Uiso   1.00
H753   H     0.38706   0.95728   0.37472   0.00000  Uiso   1.00
H754   H     0.35052   0.86003   0.21465   0.00000  Uiso   1.00
H755   H     0.65680   0.95590   0.34954   0.00000  Uiso   1.00
H756   H     0.33336   0.98009   0.28436   0.00000  Uiso   1.00
H757   H     0.40637   0.67238   0.24431   0.00000  Uiso   1.00
H758   H     0.39303   0.95379   0.45444   0.00000  Uiso   1.00
H759   H     0.65706   0.98339   0.48460   0.00000  Uiso   1.00
H760   H     0.59586   0.94444   0.03039   0.00000  Uiso   1.00
H761   H     0.60385   0.87469   0.04503   0.00000  Uiso   1.00
H762   H     0.33916   0.84358   0.01376   0.00000  Uiso   1.00
H763   H     0.45975   0.74963   0.44012   0.00000  Uiso   1.00
H764   H     0.45918   0.70718   0.37830   0.00000  Uiso   1.00
H765   H     0.65105   0.80785   0.28570   0.00000  Uiso   1.00
H766   H     0.52823   0.69877   0.32490   0.00000  Uiso   1.00
H767   H     0.59726   0.73666   0.33304   0.00000  Uiso   1.00
H768   H     0.59821   0.78126   0.39452   0.00000  Uiso   1.00
H769   H     0.54389   0.67051   0.22214   0.00000  Uiso   1.00
H770   H     0.47166   0.82428   0.10247   0.00000  Uiso   1.00
H771   H     0.59482   0.78818   0.09352   0.00000  Uiso   1.00
H772   H     0.58383   0.76630   0.46256   0.00000  Uiso   1.00
H773   H     0.40779   0.88756   0.40520   0.00000  Uiso   1.00
H774   H     0.52133   0.83562   0.40296   0.00000  Uiso   1.00
O775   O     0.50000   0.83333   0.25000   0.00000  Uiso   1.00
O776   O     0.49027   0.79060   0.16625   0.00000  Uiso   1.00
O777   O     0.46020   0.87313   0.33749   0.00000  Uiso   1.00
O778   O     0.54421   0.84159   0.15877   0.00000  Uiso   1.00
O779   O     0.50532   0.82802   0.33749   0.00000  Uiso   1.00
O780   O     0.62111   0.77494   0.01375   0.00000  Uiso   1.00
O781   O     0.51182   0.74768   0.27820   0.00000  Uiso   1.00
O782   O     0.47914   0.92803   0.26767   0.00000  Uiso   1.00
O783   O     0.40785   0.79917   0.23607   0.00000  Uiso   1.00
O784   O     0.60119   0.85845   0.21805   0.00000  Uiso   1.00
O785   O     0.40323   0.85627   0.27820   0.00000  Uiso   1.00
O786   O     0.58773   0.81944   0.26767   0.00000  Uiso   1.00
O787   O     0.47133   0.73570   0.23607   0.00000  Uiso   1.00
O788   O     0.53771   0.92193   0.21806   0.00000  Uiso   1.00
Zn789  Zn    0.52577   0.80756   0.28277   0.00000  Uiso   1.00
Zn790  Zn    0.46792   0.79044   0.22257   0.00000  Uiso   1.00
Zn791  Zn    0.54500   0.86331   0.21188   0.00000  Uiso   1.00
Zn792  Zn    0.46131   0.87202   0.28277   0.00000  Uiso   1.00
C793   C     0.71918   0.82675   0.25881   0.00000  Uiso   1.00
C794   C     0.86231   0.79388   0.45992   0.00000  Uiso   1.00
C795   C     0.89105   0.78465   0.47893   0.00000  Uiso   1.00
C796   C     0.94778   0.84035   0.24119   0.00000  Uiso   1.00
C797   C     0.88393   0.79454   0.01939   0.00000  Uiso   1.00
C798   C     0.84534   0.81188   0.04193   0.00000  Uiso   1.00
C799   C     0.91401   0.78514   0.03759   0.00000  Uiso   1.00
C800   C     0.90460   0.79239   0.07882   0.00000  Uiso   1.00
C801   C     0.83514   0.81438   0.08331   0.00000  Uiso   1.00
C802   C     0.99388   0.84312   0.23759   0.00000  Uiso   1.00
C803   C     0.67370   0.82472   0.26242   0.00000  Uiso   1.00
C804   C     0.76033   0.87612   0.42083   0.00000  Uiso   1.00
C805   C     0.84749   0.98922   0.24109   0.00000  Uiso   1.00
C806   C     0.81607   0.67931   0.26300   0.00000  Uiso   1.00
C807   C     0.82281   0.72295   0.25865   0.00000  Uiso   1.00
C808   C     0.84337   0.94440   0.24172   0.00000  Uiso   1.00
C809   C     0.85500   0.81228   0.14401   0.00000  Uiso   1.00
C810   C     0.81194   0.85437   0.35622   0.00000  Uiso   1.00
C811   C     0.79880   0.85943   0.39962   0.00000  Uiso   1.00
C812   C     0.86455   0.80492   0.10137   0.00000  Uiso   1.00
C813   C     0.74578   0.87765   0.46204   0.00000  Uiso   1.00
C814   C     0.97029   0.74340   0.02723   0.00000  Uiso   1.00
C815   C     0.82300   0.84414   0.41974   0.00000  Uiso   1.00
C816   C     0.67856   0.76109   0.03835   0.00000  Uiso   1.00
C817   C     0.69864   0.72750   0.05042   0.00000  Uiso   1.00
C818   C     0.77211   0.99638   0.28684   0.00000  Uiso   1.00
C819   C     0.76609   0.98277   0.32392   0.00000  Uiso   1.00
C820   C     0.72467   0.96815   0.34639   0.00000  Uiso   1.00
C821   C     0.68886   0.96726   0.33216   0.00000  Uiso   1.00
C822   C     0.69445   0.98087   0.29539   0.00000  Uiso   1.00
C823   C     0.73587   0.99544   0.27280   0.00000  Uiso   1.00
C824   C     0.70487   0.89660   0.48233   0.00000  Uiso   1.00
C825   C     0.69993   0.93619   0.47424   0.00000  Uiso   1.00
C826   C     0.80728   0.84066   0.46050   0.00000  Uiso   1.00
C827   C     0.99404   0.95320   0.49141   0.00000  Uiso   1.00
C828   C     0.95950   0.93112   0.01704   0.00000  Uiso   1.00
C829   C     0.96401   0.89175   0.02523   0.00000  Uiso   1.00
C830   C     0.66967   0.87434   0.00767   0.00000  Uiso   1.00
C831   C     0.86232   0.76872   0.42198   0.00000  Uiso   1.00
C832   C     0.82329   0.74736   0.41688   0.00000  Uiso   1.00
C833   C     0.82296   0.72283   0.38180   0.00000  Uiso   1.00
C834   C     0.86168   0.71851   0.35178   0.00000  Uiso   1.00
C835   C     0.90069   0.73972   0.35645   0.00000  Uiso   1.00
C836   C     0.90111   0.76481   0.39138   0.00000  Uiso   1.00
C837   C     0.76981   0.86038   0.48223   0.00000  Uiso   1.00
C838   C     0.82969   0.82043   0.48034   0.00000  Uiso   1.00
C839   C     0.81901   0.82670   0.02224   0.00000  Uiso   1.00
C840   C     0.78331   0.84880   0.04294   0.00000  Uiso   1.00
C841   C     0.75880   0.86432   0.02344   0.00000  Uiso   1.00
H842   H     0.73233   0.88138   0.04125   0.00000  Uiso   1.00
H843   H     0.77376   0.85556   0.07450   0.00000  Uiso   1.00
H844   H     0.97864   0.71903   0.00221   0.00000  Uiso   1.00
H845   H     0.94631   0.72758   0.05178   0.00000  Uiso   1.00
H846   H     0.70257   0.77487   0.01267   0.00000  Uiso   1.00
H847   H     0.67133   0.78606   0.06307   0.00000  Uiso   1.00
H848   H     0.67551   0.71353   0.07639   0.00000  Uiso   1.00
H849   H     0.72861   0.74144   0.05832   0.00000  Uiso   1.00
H850   H     0.70733   0.70278   0.02566   0.00000  Uiso   1.00
H851   H     0.79371   0.98209   0.33472   0.00000  Uiso   1.00
H852   H     0.72039   0.95728   0.37472   0.00000  Uiso   1.00
H853   H     0.68386   0.86003   0.21465   0.00000  Uiso   1.00
H854   H     0.99013   0.95590   0.34954   0.00000  Uiso   1.00
H855   H     0.66669   0.98009   0.28436   0.00000  Uiso   1.00
H856   H     0.73970   0.67238   0.24431   0.00000  Uiso   1.00
H857   H     0.72636   0.95379   0.45444   0.00000  Uiso   1.00
H858   H     0.99040   0.98339   0.48460   0.00000  Uiso   1.00
H859   H     0.92920   0.94444   0.03039   0.00000  Uiso   1.00
H860   H     0.93718   0.87469   0.04503   0.00000  Uiso   1.00
H861   H     0.67249   0.84358   0.01376   0.00000  Uiso   1.00
H862   H     0.79308   0.74963   0.44012   0.00000  Uiso   1.00
H863   H     0.79251   0.70718   0.37830   0.00000  Uiso   1.00
H864   H     0.98438   0.80785   0.28570   0.00000  Uiso   1.00
H865   H     0.86156   0.69877   0.32490   0.00000  Uiso   1.00
H866   H     0.93060   0.73666   0.33304   0.00000  Uiso   1.00
H867   H     0.93155   0.78126   0.39452   0.00000  Uiso   1.00
H868   H     0.87723   0.67051   0.22214   0.00000  Uiso   1.00
H869   H     0.80499   0.82428   0.10247   0.00000  Uiso   1.00
H870   H     0.92815   0.78818   0.09352   0.00000  Uiso   1.00
H871   H     0.91717   0.76630   0.46256   0.00000  Uiso   1.00
H872   H     0.74112   0.88756   0.40520   0.00000  Uiso   1.00
H873   H     0.85466   0.83562   0.40296   0.00000  Uiso   1.00
O874   O     0.83333   0.83333   0.25000   0.00000  Uiso   1.00
O875   O     0.82360   0.79060   0.16625   0.00000  Uiso   1.00
O876   O     0.79354   0.87313   0.33749   0.00000  Uiso   1.00
O877   O     0.87755   0.84159   0.15877   0.00000  Uiso   1.00
O878   O     0.83865   0.82802   0.33749   0.00000  Uiso   1.00
O879   O     0.95444   0.77494   0.01375   0.00000  Uiso   1.00
O880   O     0.84515   0.74768   0.27820   0.00000  Uiso   1.00
O881   O     0.81247   0.92803   0.26767   0.00000  Uiso   1.00
O882   O     0.74119   0.79917   0.23607   0.00000  Uiso   1.00
O883   O     0.93452   0.85845   0.21805   0.00000  Uiso   1.00
O884   O     0.73656   0.85627   0.27820   0.00000  Uiso   1.00
O885   O     0.92106   0.81944   0.26767   0.00000  Uiso   1.00
O886   O     0.80467   0.73570   0.23607   0.00000  Uiso   1.00
O887   O     0.87104   0.92193   0.21806   0.00000  Uiso   1.00
Zn888  Zn    0.85910   0.80756   0.28277   0.00000  Uiso   1.00
Zn889  Zn    0.80125   0.79044   0.22257   0.00000  Uiso   1.00
Zn890  Zn    0.87833   0.86331   0.21188   0.00000  Uiso   1.00
Zn891  Zn    0.79465   0.87202   0.28277   0.00000  Uiso   1.00
C892   C     0.05251   0.16008   0.75881   0.00000  Uiso   1.00
C893   C     0.19565   0.12721   0.95992   0.00000  Uiso   1.00
C894   C     0.22438   0.11798   0.97893   0.00000  Uiso   1.00
C895   C     0.28111   0.17368   0.74119   0.00000  Uiso   1.00
C896   C     0.21726   0.12788   0.51939   0.00000  Uiso   1.00
C897   C     0.17867   0.14521   0.54193   0.00000  Uiso   1.00
C898   C     0.24734   0.11847   0.53759   0.00000  Uiso   1.00
C899   C     0.23793   0.12573   0.57882   0.00000  Uiso   1.00
C900   C     0.16847   0.14772   0.58331   0.00000  Uiso   1.00
C901   C     0.32722   0.17645   0.73759   0.00000  Uiso   1.00
C902   C     0.00704   0.15806   0.76242   0.00000  Uiso   1.00
C903   C     0.09367   0.20945   0.92083   0.00000  Uiso   1.00
C904   C     0.18082   0.32255   0.74109   0.00000  Uiso   1.00
C905   C     0.14941   0.01265   0.76300   0.00000  Uiso   1.00
C906   C     0.15615   0.05628   0.75865   0.00000  Uiso   1.00
C907   C     0.17671   0.27774   0.74172   0.00000  Uiso   1.00
C908   C     0.18833   0.14562   0.64401   0.00000  Uiso   1.00
C909   C     0.14528   0.18770   0.85622   0.00000  Uiso   1.00
C910   C     0.13213   0.19276   0.89962   0.00000  Uiso   1.00
C911   C     0.19789   0.13826   0.60137   0.00000  Uiso   1.00
C912   C     0.07911   0.21098   0.96204   0.00000  Uiso   1.00
C913   C     0.30363   0.07674   0.52723   0.00000  Uiso   1.00
C914   C     0.15633   0.17747   0.91974   0.00000  Uiso   1.00
C915   C     0.01189   0.09442   0.53835   0.00000  Uiso   1.00
C916   C     0.03197   0.06083   0.55042   0.00000  Uiso   1.00
C917   C     0.10544   0.32971   0.78684   0.00000  Uiso   1.00
C918   C     0.09942   0.31610   0.82392   0.00000  Uiso   1.00
C919   C     0.05800   0.30148   0.84639   0.00000  Uiso   1.00
C920   C     0.02219   0.30060   0.83216   0.00000  Uiso   1.00
C921   C     0.02779   0.31420   0.79539   0.00000  Uiso   1.00
C922   C     0.06920   0.32877   0.77280   0.00000  Uiso   1.00
C923   C     0.03820   0.22993   0.98233   0.00000  Uiso   1.00
C924   C     0.03326   0.26952   0.97424   0.00000  Uiso   1.00
C925   C     0.14062   0.17400   0.96050   0.00000  Uiso   1.00
C926   C     0.32737   0.28653   0.99141   0.00000  Uiso   1.00
C927   C     0.29283   0.26446   0.51704   0.00000  Uiso   1.00
C928   C     0.29734   0.22508   0.52523   0.00000  Uiso   1.00
C929   C     0.00300   0.20767   0.50767   0.00000  Uiso   1.00
C930   C     0.19565   0.10205   0.92198   0.00000  Uiso   1.00
C931   C     0.15662   0.08069   0.91688   0.00000  Uiso   1.00
C932   C     0.15629   0.05616   0.88180   0.00000  Uiso   1.00
C933   C     0.19502   0.05184   0.85178   0.00000  Uiso   1.00
C934   C     0.23402   0.07306   0.85645   0.00000  Uiso   1.00
C935   C     0.23444   0.09815   0.89138   0.00000  Uiso   1.00
C936   C     0.10315   0.19371   0.98223   0.00000  Uiso   1.00
C937   C     0.16302   0.15376   0.98034   0.00000  Uiso   1.00
C938   C     0.15235   0.16003   0.52224   0.00000  Uiso   1.00
C939   C     0.11665   0.18213   0.54294   0.00000  Uiso   1.00
C940   C     0.09213   0.19765   0.52344   0.00000  Uiso   1.00
H941   H     0.06566   0.21472   0.54125   0.00000  Uiso   1.00
H942   H     0.10710   0.18890   0.57450   0.00000  Uiso   1.00
H943   H     0.31197   0.05236   0.50221   0.00000  Uiso   1.00
H944   H     0.27964   0.06091   0.55178   0.00000  Uiso   1.00
H945   H     0.03590   0.10820   0.51267   0.00000  Uiso   1.00
H946   H     0.00466   0.11940   0.56307   0.00000  Uiso   1.00
H947   H     0.00884   0.04686   0.57639   0.00000  Uiso   1.00
H948   H     0.06195   0.07477   0.55832   0.00000  Uiso   1.00
H949   H     0.04066   0.03611   0.52566   0.00000  Uiso   1.00
H950   H     0.12704   0.31542   0.83472   0.00000  Uiso   1.00
H951   H     0.05373   0.29062   0.87472   0.00000  Uiso   1.00
H952   H     0.01719   0.19336   0.71465   0.00000  Uiso   1.00
H953   H     0.32347   0.28923   0.84954   0.00000  Uiso   1.00
H954   H     0.00003   0.31343   0.78436   0.00000  Uiso   1.00
H955   H     0.07303   0.00571   0.74431   0.00000  Uiso   1.00
H956   H     0.05969   0.28712   0.95444   0.00000  Uiso   1.00
H957   H     0.32373   0.31672   0.98460   0.00000  Uiso   1.00
H958   H     0.26253   0.27777   0.53039   0.00000  Uiso   1.00
H959   H     0.27052   0.20802   0.54503   0.00000  Uiso   1.00
H960   H     0.00582   0.17691   0.51376   0.00000  Uiso   1.00
H961   H     0.12641   0.08296   0.94012   0.00000  Uiso   1.00
H962   H     0.12584   0.04051   0.87830   0.00000  Uiso   1.00
H963   H     0.31771   0.14118   0.78570   0.00000  Uiso   1.00
H964   H     0.19489   0.03210   0.82490   0.00000  Uiso   1.00
H965   H     0.26393   0.07000   0.83304   0.00000  Uiso   1.00
H966   H     0.26488   0.11459   0.89452   0.00000  Uiso   1.00
H967   H     0.21056   0.00384   0.72214   0.00000  Uiso   1.00
H968   H     0.13832   0.15761   0.60247   0.00000  Uiso   1.00
H969   H     0.26149   0.12152   0.59352   0.00000  Uiso   1.00
H970   H     0.25050   0.09964   0.96256   0.00000  Uiso   1.00
H971   H     0.07446   0.22089   0.90520   0.00000  Uiso   1.00
H972   H     0.18799   0.16895   0.90296   0.00000  Uiso   1.00
O973   O     0.16667   0.16667   0.75000   0.00000  Uiso   1.00
O974   O     0.15693   0.12393   0.66625   0.00000  Uiso   1.00
O975   O     0.12687   0.20646   0.83749   0.00000  Uiso   1.00
O976   O     0.21088   0.17493   0.65877   0.00000  Uiso   1.00
O977   O     0.17198   0.16135   0.83749   0.00000  Uiso   1.00
O978   O     0.28778   0.10827   0.51375   0.00000  Uiso   1.00
O979   O     0.17849   0.08101   0.77820   0.00000  Uiso   1.00
O980   O     0.14581   0.26136   0.76767   0.00000  Uiso   1.00
O981   O     0.07452   0.13251   0.73607   0.00000  Uiso   1.00
O982   O     0.26785   0.19179   0.71805   0.00000  Uiso   1.00
O983   O     0.06990   0.18960   0.77820   0.00000  Uiso   1.00
O984   O     0.25440   0.15277   0.76767   0.00000  Uiso   1.00
O985   O     0.13800   0.06903   0.73607   0.00000  Uiso   1.00
O986   O     0.20437   0.25527   0.71806   0.00000  Uiso   1.00
Zn987  Zn    0.19244   0.14090   0.78277   0.00000  Uiso   1.00
Zn988  Zn    0.13459   0.12378   0.72257   0.00000  Uiso   1.00
Zn989  Zn    0.21166   0.19664   0.71188   0.00000  Uiso   1.00
Zn990  Zn    0.12798   0.20535   0.78277   0.00000  Uiso   1.00
C991   C     0.38585   0.16008   0.75881   0.00000  Uiso   1.00
C992   C     0.52898   0.12721   0.95992   0.00000  Uiso   1.00
C993   C     0.55772   0.11798   0.97893   0.00000  Uiso   1.00
C994   C     0.61445   0.17368   0.74119   0.00000  Uiso   1.00
C995   C     0.55059   0.12788   0.51939   0.00000  Uiso   1.00
C996   C     0.51201   0.14521   0.54193   0.00000  Uiso   1.00
C997   C     0.58067   0.11847   0.53759   0.00000  Uiso   1.00
C998   C     0.57127   0.12573   0.57882   0.00000  Uiso   1.00
C999   C     0.50181   0.14772   0.58331   0.00000  Uiso   1.00
C1000  C     0.66055   0.17645   0.73759   0.00000  Uiso   1.00
C1001  C     0.34037   0.15806   0.76242   0.00000  Uiso   1.00
C1002  C     0.42700   0.20945   0.92083   0.00000  Uiso   1.00
C1003  C     0.51415   0.32255   0.74109   0.00000  Uiso   1.00
C1004  C     0.48274   0.01265   0.76300   0.00000  Uiso   1.00
C1005  C     0.48948   0.05628   0.75865   0.00000  Uiso   1.00
C1006  C     0.51004   0.27774   0.74172   0.00000  Uiso   1.00
C1007  C     0.52166   0.14562   0.64401   0.00000  Uiso   1.00
C1008  C     0.47861   0.18770   0.85622   0.00000  Uiso   1.00
C1009  C     0.46546   0.19276   0.89962   0.00000  Uiso   1.00
C1010  C     0.53122   0.13826   0.60137   0.00000  Uiso   1.00
C1011  C     0.41245   0.21098   0.96204   0.00000  Uiso   1.00
C1012  C     0.63696   0.07674   0.52723   0.00000  Uiso   1.00
C1013  C     0.48967   0.17747   0.91974   0.00000  Uiso   1.00
C1014  C     0.34523   0.09442   0.53835   0.00000  Uiso   1.00
C1015  C     0.36530   0.06083   0.55042   0.00000  Uiso   1.00
C1016  C     0.43877   0.32971   0.78684   0.00000  Uiso   1.00
C1017  C     0.43275   0.31610   0.82392   0.00000  Uiso   1.00
C1018  C     0.39133   0.30148   0.84639   0.00000  Uiso   1.00
C1019  C     0.35552   0.30060   0.83216   0.00000  Uiso   1.00
C1020  C     0.36112   0.31420   0.79539   0.00000  Uiso   1.00
C1021  C     0.40254   0.32877   0.77280   0.00000  Uiso   1.00
C1022  C     0.37154   0.22993   0.98233   0.00000  Uiso   1.00
C1023  C     0.36659   0.26952   0.97424   0.00000  Uiso   1.00
C1024  C     0.47395   0.17400   0.96050   0.00000  Uiso   1.00
C1025  C     0.66071   0.28653   0.99141   0.00000  Uiso   1.00
C1026  C     0.62617   0.26446   0.51704   0.00000  Uiso   1.00
C1027  C     0.63068   0.22508   0.52523   0.00000  Uiso   1.00
C1028  C     0.33633   0.20767   0.50767   0.00000  Uiso   1.00
C1029  C     0.52899   0.10205   0.92198   0.00000  Uiso   1.00
C1030  C     0.48995   0.08069   0.91688   0.00000  Uiso   1.00
C1031  C     0.48963   0.05616   0.88180   0.00000  Uiso   1.00
C1032  C     0.52835   0.05184   0.85178   0.00000  Uiso   1.00
C1033  C     0.56735   0.07306   0.85645   0.00000  Uiso   1.00
C1034  C     0.56777   0.09815   0.89138   0.00000  Uiso   1.00
C1035  C     0.43648   0.19371   0.98223   0.00000  Uiso   1.00
C1036  C     0.49636   0.15376   0.98034   0.00000  Uiso   1.00
C1037  C     0.48568   0.16003   0.52224   0.00000  Uiso   1.00
C1038  C     0.44998   0.18213   0.54294   0.00000  Uiso   1.00
C1039  C     0.42546   0.19765   0.52344   0.00000  Uiso   1.00
H1040  H     0.39900   0.21472   0.54125   0.00000  Uiso   1.00
H1041  H     0.44043   0.18890   0.57450   0.00000  Uiso   1.00
H1042  H     0.64531   0.05236   0.50221   0.00000  Uiso   1.00
H1043  H     0.61297   0.06091   0.55178   0.00000  Uiso   1.00
H1044  H     0.36923   0.10820   0.51267   0.00000  Uiso   1.00
H1045  H     0.33799   0.11940   0.56307   0.00000  Uiso   1.00
H1046  H     0.34217   0.04686   0.57639   0.00000  Uiso   1.00
H1047  H     0.39528   0.07477   0.55832   0.00000  Uiso   1.00
H1048  H     0.37400   0.03611   0.52566   0.00000  Uiso   1.00
H1049  H     0.46037   0.31542   0.83472   0.00000  Uiso   1.00
H1050  H     0.38706   0.29062   0.87472   0.00000  Uiso   1.00
H1051  H     0.35052   0.19336   0.71465   0.00000  Uiso   1.00
H1052  H     0.65680   0.28923   0.84954   0.00000  Uiso   1.00
H1053  H     0.33336   0.31343   0.78436   0.00000  Uiso   1.00
H1054  H     0.40637   0.00571   0.74431   0.00000  Uiso   1.00
H1055  H     0.39303   0.28712   0.95444   0.00000  Uiso   1.00
H1056  H     0.65706   0.31672   0.98460   0.00000  Uiso   1.00
H1057  H     0.59586   0.27777   0.53039   0.00000  Uiso   1.00
H1058  H     0.60385   0.20802   0.54503   0.00000  Uiso   1.00
H1059  H     0.33916   0.17691   0.51376   0.00000  Uiso   1.00
H1060  H     0.45975   0.08296   0.94012   0.00000  Uiso   1.00
H1061  H     0.45918   0.04051   0.87830   0.00000  Uiso   1.00
H1062  H     0.65105   0.14118   0.78570   0.00000  Uiso   1.00
H1063  H     0.52823   0.03210   0.82490   0.00000  Uiso   1.00
H1064  H     0.59726   0.07000   0.83304   0.00000  Uiso   1.00
H1065  H     0.59821   0.11459   0.89452   0.00000  Uiso   1.00
H1066  H     0.54389   0.00384   0.72214   0.00000  Uiso   1.00
H1067  H     0.47166   0.15761   0.60247   0.00000  Uiso   1.00
H1068  H     0.59482   0.12152   0.59352   0.00000  Uiso   1.00
H1069  H     0.58383   0.09964   0.96256   0.00000  Uiso   1.00
H1070  H     0.40779   0.22089   0.90520   0.00000  Uiso   1.00
H1071  H     0.52133   0.16895   0.90296   0.00000  Uiso   1.00
O1072  O     0.50000   0.16667   0.75000   0.00000  Uiso   1.00
O1073  O     0.49027   0.12393   0.66625   0.00000  Uiso   1.00
O1074  O     0.46020   0.20646   0.83749   0.00000  Uiso   1.00
O1075  O     0.54421   0.17493   0.65877   0.00000  Uiso   1.00
O1076  O     0.50532   0.16135   0.83749   0.00000  Uiso   1.00
O1077  O     0.62111   0.10827   0.51375   0.00000  Uiso   1.00
O1078  O     0.51182   0.08101   0.77820   0.00000  Uiso   1.00
O1079  O     0.47914   0.26136   0.76767   0.00000  Uiso   1.00
O1080  O     0.40785   0.13251   0.73607   0.00000  Uiso   1.00
O1081  O     0.60119   0.19179   0.71805   0.00000  Uiso   1.00
O1082  O     0.40323   0.18960   0.77820   0.00000  Uiso   1.00
O1083  O     0.58773   0.15277   0.76767   0.00000  Uiso   1.00
O1084  O     0.47133   0.06903   0.73607   0.00000  Uiso   1.00
O1085  O     0.53771   0.25527   0.71806   0.00000  Uiso   1.00
Zn1086 Zn    0.52577   0.14090   0.78277   0.00000  Uiso   1.00
Zn1087 Zn    0.46792   0.12378   0.72257   0.00000  Uiso   1.00
Zn1088 Zn    0.54500   0.19664   0.71188   0.00000  Uiso   1.00
Zn1089 Zn    0.46131   0.20535   0.78277   0.00000  Uiso   1.00
C1090  C     0.71918   0.16008   0.75881   0.00000  Uiso   1.00
C1091  C     0.86231   0.12721   0.95992   0.00000  Uiso   1.00
C1092  C     0.89105   0.11798   0.97893   0.00000  Uiso   1.00
C1093  C     0.94778   0.17368   0.74119   0.00000  Uiso   1.00
C1094  C     0.88393   0.12788   0.51939   0.00000  Uiso   1.00
C1095  C     0.84534   0.14521   0.54193   0.00000  Uiso   1.00
C1096  C     0.91401   0.11847   0.53759   0.00000  Uiso   1.00
C1097  C     0.90460   0.12573   0.57882   0.00000  Uiso   1.00
C1098  C     0.83514   0.14772   0.58331   0.00000  Uiso   1.00
C1099  C     0.99388   0.17645   0.73759   0.00000  Uiso   1.00
C1100  C     0.67370   0.15806   0.76242   0.00000  Uiso   1.00
C1101  C     0.76033   0.20945   0.92083   0.00000  Uiso   1.00
C1102  C     0.84749   0.32255   0.74109   0.00000  Uiso   1.00
C1103  C     0.81607   0.01265   0.76300   0.00000  Uiso   1.00
C1104  C     0.82281   0.05628   0.75865   0.00000  Uiso   1.00
C1105  C     0.84337   0.27774   0.74172   0.00000  Uiso   1.00
C1106  C     0.85500   0.14562   0.64401   0.00000  Uiso   1.00
C1107  C     0.81194   0.18770   0.85622   0.00000  Uiso   1.00
C1108  C     0.79880   0.19276   0.89962   0.00000  Uiso   1.00
C1109  C     0.86455   0.13826   0.60137   0.00000  Uiso   1.00
C1110  C     0.74578   0.21098   0.96204   0.00000  Uiso   1.00
C1111  C     0.97029   0.07674   0.52723   0.00000  Uiso   1.00
C1112  C     0.82300   0.17747   0.91974   0.00000  Uiso   1.00
C1113  C     0.67856   0.09442   0.53835   0.00000  Uiso   1.00
C1114  C     0.69864   0.06083   0.55042   0.00000  Uiso   1.00
C1115  C     0.77211   0.32971   0.78684   0.00000  Uiso   1.00
C1116  C     0.76609   0.31610   0.82392   0.00000  Uiso   1.00
C1117  C     0.72467   0.30148   0.84639   0.00000  Uiso   1.00
C1118  C     0.68886   0.30060   0.83216   0.00000  Uiso   1.00
C1119  C     0.69445   0.31420   0.79539   0.00000  Uiso   1.00
C1120  C     0.73587   0.32877   0.77280   0.00000  Uiso   1.00
C1121  C     0.70487   0.22993   0.98233   0.00000  Uiso   1.00
C1122  C     0.69993   0.26952   0.97424   0.00000  Uiso   1.00
C1123  C     0.80728   0.17400   0.96050   0.00000  Uiso   1.00
C1124  C     0.99404   0.28653   0.99141   0.00000  Uiso   1.00
C1125  C     0.95950   0.26446   0.51704   0.00000  Uiso   1.00
C1126  C     0.96401   0.22508   0.52523   0.00000  Uiso   1.00
C1127  C     0.66967   0.20767   0.50767   0.00000  Uiso   1.00
C1128  C     0.86232   0.10205   0.92198   0.00000  Uiso   1.00
C1129  C     0.82329   0.08069   0.91688   0.00000  Uiso   1.00
C1130  C     0.82296   0.05616   0.88180   0.00000  Uiso   1.00
C1131  C     0.86168   0.05184   0.85178   0.00000  Uiso   1.00
C1132  C     0.90069   0.07306   0.85645   0.00000  Uiso   1.00
C1133  C     0.90111   0.09815   0.89138   0.00000  Uiso   1.00
C1134  C     0.76981   0.19371   0.98223   0.00000  Uiso   1.00
C1135  C     0.82969   0.15376   0.98034   0.00000  Uiso   1.00
C1136  C     0.81901   0.16003   0.52224   0.00000  Uiso   1.00
C1137  C     0.78331   0.18213   0.54294   0.00000  Uiso   1.00
C1138  C     0.75880   0.19765   0.52344   0.00000  Uiso   1.00
H1139  H     0.73233   0.21472   0.54125   0.00000  Uiso   1.00
H1140  H     0.77376   0.18890   0.57450   0.00000  Uiso   1.00
H1141  H     0.97864   0.05236   0.50221   0.00000  Uiso   1.00
H1142  H     0.94631   0.06091   0.55178   0.00000  Uiso   1.00
H1143  H     0.70257   0.10820   0.51267   0.00000  Uiso   1.00
H1144  H     0.67133   0.11940   0.56307   0.00000  Uiso   1.00
H1145  H     0.67551   0.04686   0.57639   0.00000  Uiso   1.00
H1146  H     0.72861   0.07477   0.55832   0.00000  Uiso   1.00
H1147  H     0.70733   0.03611   0.52566   0.00000  Uiso   1.00
H1148  H     0.79371   0.31542   0.83472   0.00000  Uiso   1.00
H1149  H     0.72039   0.29062   0.87472   0.00000  Uiso   1.00
H1150  H     0.68386   0.19336   0.71465   0.00000  Uiso   1.00
H1151  H     0.99013   0.28923   0.84954   0.00000  Uiso   1.00
H1152  H     0.66669   0.31343   0.78436   0.00000  Uiso   1.00
H1153  H     0.73970   0.00571   0.74431   0.00000  Uiso   1.00
H1154  H     0.72636   0.28712   0.95444   0.00000  Uiso   1.00
H1155  H     0.99040   0.31672   0.98460   0.00000  Uiso   1.00
H1156  H     0.92920   0.27777   0.53039   0.00000  Uiso   1.00
H1157  H     0.93718   0.20802   0.54503   0.00000  Uiso   1.00
H1158  H     0.67249   0.17691   0.51376   0.00000  Uiso   1.00
H1159  H     0.79308   0.08296   0.94012   0.00000  Uiso   1.00
H1160  H     0.79251   0.04051   0.87830   0.00000  Uiso   1.00
H1161  H     0.98438   0.14118   0.78570   0.00000  Uiso   1.00
H1162  H     0.86156   0.03210   0.82490   0.00000  Uiso   1.00
H1163  H     0.93060   0.07000   0.83304   0.00000  Uiso   1.00
H1164  H     0.93155   0.11459   0.89452   0.00000  Uiso   1.00
H1165  H     0.87723   0.00384   0.72214   0.00000  Uiso   1.00
H1166  H     0.80499   0.15761   0.60247   0.00000  Uiso   1.00
H1167  H     0.92815   0.12152   0.59352   0.00000  Uiso   1.00
H1168  H     0.91717   0.09964   0.96256   0.00000  Uiso   1.00
H1169  H     0.74112   0.22089   0.90520   0.00000  Uiso   1.00
H1170  H     0.85466   0.16895   0.90296   0.00000  Uiso   1.00
O1171  O     0.83333   0.16667   0.75000   0.00000  Uiso   1.00
O1172  O     0.82360   0.12393   0.66625   0.00000  Uiso   1.00
O1173  O     0.79354   0.20646   0.83749   0.00000  Uiso   1.00
O1174  O     0.87755   0.17493   0.65877   0.00000  Uiso   1.00
O1175  O     0.83865   0.16135   0.83749   0.00000  Uiso   1.00
O1176  O     0.95444   0.10827   0.51375   0.00000  Uiso   1.00
O1177  O     0.84515   0.08101   0.77820   0.00000  Uiso   1.00
O1178  O     0.81247   0.26136   0.76767   0.00000  Uiso   1.00
O1179  O     0.74119   0.13251   0.73607   0.00000  Uiso   1.00
O1180  O     0.93452   0.19179   0.71805   0.00000  Uiso   1.00
O1181  O     0.73656   0.18960   0.77820   0.00000  Uiso   1.00
O1182  O     0.92106   0.15277   0.76767   0.00000  Uiso   1.00
O1183  O     0.80467   0.06903   0.73607   0.00000  Uiso   1.00
O1184  O     0.87104   0.25527   0.71806   0.00000  Uiso   1.00
Zn1185 Zn    0.85910   0.14090   0.78277   0.00000  Uiso   1.00
Zn1186 Zn    0.80125   0.12378   0.72257   0.00000  Uiso   1.00
Zn1187 Zn    0.87833   0.19664   0.71188   0.00000  Uiso   1.00
Zn1188 Zn    0.79465   0.20535   0.78277   0.00000  Uiso   1.00
C1189  C     0.05251   0.49341   0.75881   0.00000  Uiso   1.00
C1190  C     0.19565   0.46055   0.95992   0.00000  Uiso   1.00
C1191  C     0.22438   0.45132   0.97893   0.00000  Uiso   1.00
C1192  C     0.28111   0.50701   0.74119   0.00000  Uiso   1.00
C1193  C     0.21726   0.46121   0.51939   0.00000  Uiso   1.00
C1194  C     0.17867   0.47854   0.54193   0.00000  Uiso   1.00
C1195  C     0.24734   0.45181   0.53759   0.00000  Uiso   1.00
C1196  C     0.23793   0.45906   0.57882   0.00000  Uiso   1.00
C1197  C     0.16847   0.48105   0.58331   0.00000  Uiso   1.00
C1198  C     0.32722   0.50978   0.73759   0.00000  Uiso   1.00
C1199  C     0.00704   0.49139   0.76242   0.00000  Uiso   1.00
C1200  C     0.09367   0.54279   0.92083   0.00000  Uiso   1.00
C1201  C     0.18082   0.65588   0.74109   0.00000  Uiso   1.00
C1202  C     0.14941   0.34598   0.76300   0.00000  Uiso   1.00
C1203  C     0.15615   0.38962   0.75865   0.00000  Uiso   1.00
C1204  C     0.17671   0.61107   0.74172   0.00000  Uiso   1.00
C1205  C     0.18833   0.47895   0.64401   0.00000  Uiso   1.00
C1206  C     0.14528   0.52103   0.85622   0.00000  Uiso   1.00
C1207  C     0.13213   0.52610   0.89962   0.00000  Uiso   1.00
C1208  C     0.19789   0.47159   0.60137   0.00000  Uiso   1.00
C1209  C     0.07911   0.54431   0.96204   0.00000  Uiso   1.00
C1210  C     0.30363   0.41007   0.52723   0.00000  Uiso   1.00
C1211  C     0.15633   0.51081   0.91974   0.00000  Uiso   1.00
C1212  C     0.01189   0.42775   0.53835   0.00000  Uiso   1.00
C1213  C     0.03197   0.39416   0.55042   0.00000  Uiso   1.00
C1214  C     0.10544   0.66305   0.78684   0.00000  Uiso   1.00
C1215  C     0.09942   0.64943   0.82392   0.00000  Uiso   1.00
C1216  C     0.05800   0.63482   0.84639   0.00000  Uiso   1.00
C1217  C     0.02219   0.63393   0.83216   0.00000  Uiso   1.00
C1218  C     0.02779   0.64754   0.79539   0.00000  Uiso   1.00
C1219  C     0.06920   0.66211   0.77280   0.00000  Uiso   1.00
C1220  C     0.03820   0.56326   0.98233   0.00000  Uiso   1.00
C1221  C     0.03326   0.60286   0.97424   0.00000  Uiso   1.00
C1222  C     0.14062   0.50733   0.96050   0.00000  Uiso   1.00
C1223  C     0.32737   0.61987   0.99141   0.00000  Uiso   1.00
C1224  C     0.29283   0.59779   0.51704   0.00000  Uiso   1.00
C1225  C     0.29734   0.55842   0.52523   0.00000  Uiso   1.00
C1226  C     0.00300   0.54100   0.50767   0.00000  Uiso   1.00
C1227  C     0.19565   0.43539   0.92198   0.00000  Uiso   1.00
C1228  C     0.15662   0.41402   0.91688   0.00000  Uiso   1.00
C1229  C     0.15629   0.38949   0.88180   0.00000  Uiso   1.00
C1230  C     0.19502   0.38518   0.85178   0.00000  Uiso   1.00
C1231  C     0.23402   0.40639   0.85645   0.00000  Uiso   1.00
C1232  C     0.23444   0.43148   0.89138   0.00000  Uiso   1.00
C1233  C     0.10315   0.52704   0.98223   0.00000  Uiso   1.00
C1234  C     0.16302   0.48710   0.98034   0.00000  Uiso   1.00
C1235  C     0.15235   0.49337   0.52224   0.00000  Uiso   1.00
C1236  C     0.11665   0.51547   0.54294   0.00000  Uiso   1.00
C1237  C     0.09213   0.53098   0.52344   0.00000  Uiso   1.00
H1238  H     0.06566   0.54805   0.54125   0.00000  Uiso   1.00
H1239  H     0.10710   0.52223   0.57450   0.00000  Uiso   1.00
H1240  H     0.31197   0.38569   0.50221   0.00000  Uiso   1.00
H1241  H     0.27964   0.39424   0.55178   0.00000  Uiso   1.00
H1242  H     0.03590   0.44153   0.51267   0.00000  Uiso   1.00
H1243  H     0.00466   0.45273   0.56307   0.00000  Uiso   1.00
H1244  H     0.00884   0.38020   0.57639   0.00000  Uiso   1.00
H1245  H     0.06195   0.40811   0.55832   0.00000  Uiso   1.00
H1246  H     0.04066   0.36944   0.52566   0.00000  Uiso   1.00
H1247  H     0.12704   0.64875   0.83472   0.00000  Uiso   1.00
H1248  H     0.05373   0.62395   0.87472   0.00000  Uiso   1.00
H1249  H     0.01719   0.52669   0.71465   0.00000  Uiso   1.00
H1250  H     0.32347   0.62257   0.84954   0.00000  Uiso   1.00
H1251  H     0.00003   0.64676   0.78436   0.00000  Uiso   1.00
H1252  H     0.07303   0.33905   0.74431   0.00000  Uiso   1.00
H1253  H     0.05969   0.62045   0.95444   0.00000  Uiso   1.00
H1254  H     0.32373   0.65005   0.98460   0.00000  Uiso   1.00
H1255  H     0.26253   0.61110   0.53039   0.00000  Uiso   1.00
H1256  H     0.27052   0.54136   0.54503   0.00000  Uiso   1.00
H1257  H     0.00582   0.51025   0.51376   0.00000  Uiso   1.00
H1258  H     0.12641   0.41630   0.94012   0.00000  Uiso   1.00
H1259  H     0.12584   0.37384   0.87830   0.00000  Uiso   1.00
H1260  H     0.31771   0.47452   0.78570   0.00000  Uiso   1.00
H1261  H     0.19489   0.36544   0.82490   0.00000  Uiso   1.00
H1262  H     0.26393   0.40333   0.83304   0.00000  Uiso   1.00
H1263  H     0.26488   0.44792   0.89452   0.00000  Uiso   1.00
H1264  H     0.21056   0.33717   0.72214   0.00000  Uiso   1.00
H1265  H     0.13832   0.49094   0.60247   0.00000  Uiso   1.00
H1266  H     0.26149   0.45485   0.59352   0.00000  Uiso   1.00
H1267  H     0.25050   0.43297   0.96256   0.00000  Uiso   1.00
H1268  H     0.07446   0.55423   0.90520   0.00000  Uiso   1.00
H1269  H     0.18799   0.50229   0.90296   0.00000  Uiso   1.00
O1270  O     0.16667   0.50000   0.75000   0.00000  Uiso   1.00
O1271  O     0.15693   0.45726   0.66625   0.00000  Uiso   1.00
O1272  O     0.12687   0.53979   0.83749   0.00000  Uiso   1.00
O1273  O     0.21088   0.50826   0.65877   0.00000  Uiso   1.00
O1274  O     0.17198   0.49468   0.83749   0.00000  Uiso   1.00
O1275  O     0.28778   0.44161   0.51375   0.00000  Uiso   1.00
O1276  O     0.17849   0.41434   0.77820   0.00000  Uiso   1.00
O1277  O     0.14581   0.59469   0.76767   0.00000  Uiso   1.00
O1278  O     0.07452   0.46584   0.73607   0.00000  Uiso   1.00
O1279  O     0.26785   0.52512   0.71805   0.00000  Uiso   1.00
O1280  O     0.06990   0.52293   0.77820   0.00000  Uiso   1.00
O1281  O     0.25440   0.48610   0.76767   0.00000  Uiso   1.00
O1282  O     0.13800   0.40236   0.73607   0.00000  Uiso   1.00
O1283  O     0.20437   0.58860   0.71806   0.00000  Uiso   1.00
Zn1284 Zn    0.19244   0.47423   0.78277   0.00000  Uiso   1.00
Zn1285 Zn    0.13459   0.45711   0.72257   0.00000  Uiso   1.00
Zn1286 Zn    0.21166   0.52997   0.71188   0.00000  Uiso   1.00
Zn1287 Zn    0.12798   0.53868   0.78277   0.00000  Uiso   1.00
C1288  C     0.38585   0.49341   0.75881   0.00000  Uiso   1.00
C1289  C     0.52898   0.46055   0.95992   0.00000  Uiso   1.00
C1290  C     0.55772   0.45132   0.97893   0.00000  Uiso   1.00
C1291  C     0.61445   0.50701   0.74119   0.00000  Uiso   1.00
C1292  C     0.55059   0.46121   0.51939   0.00000  Uiso   1.00
C1293  C     0.51201   0.47854   0.54193   0.00000  Uiso   1.00
C1294  C     0.58067   0.45181   0.53759   0.00000  Uiso   1.00
C1295  C     0.57127   0.45906   0.57882   0.00000  Uiso   1.00
C1296  C     0.50181   0.48105   0.58331   0.00000  Uiso   1.00
C1297  C     0.66055   0.50978   0.73759   0.00000  Uiso   1.00
C1298  C     0.34037   0.49139   0.76242   0.00000  Uiso   1.00
C1299  C     0.42700   0.54279   0.92083   0.00000  Uiso   1.00
C1300  C     0.51415   0.65588   0.74109   0.00000  Uiso   1.00
C1301  C     0.48274   0.34598   0.76300   0.00000  Uiso   1.00
C1302  C     0.48948   0.38962   0.75865   0.00000  Uiso   1.00
C1303  C     0.51004   0.61107   0.74172   0.00000  Uiso   1.00
C1304  C     0.52166   0.47895   0.64401   0.00000  Uiso   1.00
C1305  C     0.47861   0.52103   0.85622   0.00000  Uiso   1.00
C1306  C     0.46546   0.52610   0.89962   0.00000  Uiso   1.00
C1307  C     0.53122   0.47159   0.60137   0.00000  Uiso   1.00
C1308  C     0.41245   0.54431   0.96204   0.00000  Uiso   1.00
C1309  C     0.63696   0.41007   0.52723   0.00000  Uiso   1.00
C1310  C     0.48967   0.51081   0.91974   0.00000  Uiso   1.00
C1311  C     0.34523   0.42775   0.53835   0.00000  Uiso   1.00
C1312  C     0.36530   0.39416   0.55042   0.00000  Uiso   1.00
C1313  C     0.43877   0.66305   0.78684   0.00000  Uiso   1.00
C1314  C     0.43275   0.64943   0.82392   0.00000  Uiso   1.00
C1315  C     0.39133   0.63482   0.84639   0.00000  Uiso   1.00
C1316  C     0.35552   0.63393   0.83216   0.00000  Uiso   1.00
C1317  C     0.36112   0.64754   0.79539   0.00000  Uiso   1.00
C1318  C     0.40254   0.66211   0.77280   0.00000  Uiso   1.00
C1319  C     0.37154   0.56326   0.98233   0.00000  Uiso   1.00
C1320  C     0.36659   0.60286   0.97424   0.00000  Uiso   1.00
C1321  C     0.47395   0.50733   0.96050   0.00000  Uiso   1.00
C1322  C     0.66071   0.61987   0.99141   0.00000  Uiso   1.00
C1323  C     0.62617   0.59779   0.51704   0.00000  Uiso   1.00
C1324  C     0.63068   0.55842   0.52523   0.00000  Uiso   1.00
C1325  C     0.33633   0.54100   0.50767   0.00000  Uiso   1.00
C1326  C     0.52899   0.43539   0.92198   0.00000  Uiso   1.00
C1327  C     0.48995   0.41402   0.91688   0.00000  Uiso   1.00
C1328  C     0.48963   0.38949   0.88180   0.00000  Uiso   1.00
C1329  C     0.52835   0.38518   0.85178   0.00000  Uiso   1.00
C1330  C     0.56735   0.40639   0.85645   0.00000  Uiso   1.00
C1331  C     0.56777   0.43148   0.89138   0.00000  Uiso   1.00
C1332  C     0.43648   0.52704   0.98223   0.00000  Uiso   1.00
C1333  C     0.49636   0.48710   0.98034   0.00000  Uiso   1.00
C1334  C     0.48568   0.49337   0.52224   0.00000  Uiso   1.00
C1335  C     0.44998   0.51547   0.54294   0.00000  Uiso   1.00
C1336  C     0.42546   0.53098   0.52344   0.00000  Uiso   1.00
H1337  H     0.39900   0.54805   0.54125   0.00000  Uiso   1.00
H1338  H     0.44043   0.52223   0.57450   0.00000  Uiso   1.00
H1339  H     0.64531   0.38569   0.50221   0.00000  Uiso   1.00
H1340  H     0.61297   0.39424   0.55178   0.00000  Uiso   1.00
H1341  H     0.36923   0.44153   0.51267   0.00000  Uiso   1.00
H1342  H     0.33799   0.45273   0.56307   0.00000  Uiso   1.00
H1343  H     0.34217   0.38020   0.57639   0.00000  Uiso   1.00
H1344  H     0.39528   0.40811   0.55832   0.00000  Uiso   1.00
H1345  H     0.37400   0.36944   0.52566   0.00000  Uiso   1.00
H1346  H     0.46037   0.64875   0.83472   0.00000  Uiso   1.00
H1347  H     0.38706   0.62395   0.87472   0.00000  Uiso   1.00
H1348  H     0.35052   0.52669   0.71465   0.00000  Uiso   1.00
H1349  H     0.65680   0.62257   0.84954   0.00000  Uiso   1.00
H1350  H     0.33336   0.64676   0.78436   0.00000  Uiso   1.00
H1351  H     0.40637   0.33905   0.74431   0.00000  Uiso   1.00
H1352  H     0.39303   0.62045   0.95444   0.00000  Uiso   1.00
H1353  H     0.65706   0.65005   0.98460   0.00000  Uiso   1.00
H1354  H     0.59586   0.61110   0.53039   0.00000  Uiso   1.00
H1355  H     0.60385   0.54136   0.54503   0.00000  Uiso   1.00
H1356  H     0.33916   0.51025   0.51376   0.00000  Uiso   1.00
H1357  H     0.45975   0.41630   0.94012   0.00000  Uiso   1.00
H1358  H     0.45918   0.37384   0.87830   0.00000  Uiso   1.00
H1359  H     0.65105   0.47452   0.78570   0.00000  Uiso   1.00
H1360  H     0.52823   0.36544   0.82490   0.00000  Uiso   1.00
H1361  H     0.59726   0.40333   0.83304   0.00000  Uiso   1.00
H1362  H     0.59821   0.44792   0.89452   0.00000  Uiso   1.00
H1363  H     0.54389   0.33717   0.72214   0.00000  Uiso   1.00
H1364  H     0.47166   0.49094   0.60247   0.00000  Uiso   1.00
H1365  H     0.59482   0.45485   0.59352   0.00000  Uiso   1.00
H1366  H     0.58383   0.43297   0.96256   0.00000  Uiso   1.00
H1367  H     0.40779   0.55423   0.90520   0.00000  Uiso   1.00
H1368  H     0.52133   0.50229   0.90296   0.00000  Uiso   1.00
O1369  O     0.50000   0.50000   0.75000   0.00000  Uiso   1.00
O1370  O     0.49027   0.45726   0.66625   0.00000  Uiso   1.00
O1371  O     0.46020   0.53979   0.83749   0.00000  Uiso   1.00
O1372  O     0.54421   0.50826   0.65877   0.00000  Uiso   1.00
O1373  O     0.50532   0.49468   0.83749   0.00000  Uiso   1.00
O1374  O     0.62111   0.44161   0.51375   0.00000  Uiso   1.00
O1375  O     0.51182   0.41434   0.77820   0.00000  Uiso   1.00
O1376  O     0.47914   0.59469   0.76767   0.00000  Uiso   1.00
O1377  O     0.40785   0.46584   0.73607   0.00000  Uiso   1.00
O1378  O     0.60119   0.52512   0.71805   0.00000  Uiso   1.00
O1379  O     0.40323   0.52293   0.77820   0.00000  Uiso   1.00
O1380  O     0.58773   0.48610   0.76767   0.00000  Uiso   1.00
O1381  O     0.47133   0.40236   0.73607   0.00000  Uiso   1.00
O1382  O     0.53771   0.58860   0.71806   0.00000  Uiso   1.00
Zn1383 Zn    0.52577   0.47423   0.78277   0.00000  Uiso   1.00
Zn1384 Zn    0.46792   0.45711   0.72257   0.00000  Uiso   1.00
Zn1385 Zn    0.54500   0.52997   0.71188   0.00000  Uiso   1.00
Zn1386 Zn    0.46131   0.53868   0.78277   0.00000  Uiso   1.00
C1387  C     0.71918   0.49341   0.75881   0.00000  Uiso   1.00
C1388  C     0.86231   0.46055   0.95992   0.00000  Uiso   1.00
C1389  C     0.89105   0.45132   0.97893   0.00000  Uiso   1.00
C1390  C     0.94778   0.50701   0.74119   0.00000  Uiso   1.00
C1391  C     0.88393   0.46121   0.51939   0.00000  Uiso   1.00
C1392  C     0.84534   0.47854   0.54193   0.00000  Uiso   1.00
C1393  C     0.91401   0.45181   0.53759   0.00000  Uiso   1.00
C1394  C     0.90460   0.45906   0.57882   0.00000  Uiso   1.00
C1395  C     0.83514   0.48105   0.58331   0.00000  Uiso   1.00
C1396  C     0.99388   0.50978   0.73759   0.00000  Uiso   1.00
C1397  C     0.67370   0.49139   0.76242   0.00000  Uiso   1.00
C1398  C     0.76033   0.54279   0.92083   0.00000  Uiso   1.00
C1399  C     0.84749   0.65588   0.74109   0.00000  Uiso   1.00
C1400  C     0.81607   0.34598   0.76300   0.00000  Uiso   1.00
C1401  C     0.82281   0.38962   0.75865   0.00000  Uiso   1.00
C1402  C     0.84337   0.61107   0.74172   0.00000  Uiso   1.00
C1403  C     0.85500   0.47895   0.64401   0.00000  Uiso   1.00
C1404  C     0.81194   0.52103   0.85622   0.00000  Uiso   1.00
C1405  C     0.79880   0.52610   0.89962   0.00000  Uiso   1.00
C1406  C     0.86455   0.47159   0.60137   0.00000  Uiso   1.00
C1407  C     0.74578   0.54431   0.96204   0.00000  Uiso   1.00
C1408  C     0.97029   0.41007   0.52723   0.00000  Uiso   1.00
C1409  C     0.82300   0.51081   0.91974   0.00000  Uiso   1.00
C1410  C     0.67856   0.42775   0.53835   0.00000  Uiso   1.00
C1411  C     0.69864   0.39416   0.55042   0.00000  Uiso   1.00
C1412  C     0.77211   0.66305   0.78684   0.00000  Uiso   1.00
C1413  C     0.76609   0.64943   0.82392   0.00000  Uiso   1.00
C1414  C     0.72467   0.63482   0.84639   0.00000  Uiso   1.00
C1415  C     0.68886   0.63393   0.83216   0.00000  Uiso   1.00
C1416  C     0.69445   0.64754   0.79539   0.00000  Uiso   1.00
C1417  C     0.73587   0.66211   0.77280   0.00000  Uiso   1.00
C1418  C     0.70487   0.56326   0.98233   0.00000  Uiso   1.00
C1419  C     0.69993   0.60286   0.97424   0.00000  Uiso   1.00
C1420  C     0.80728   0.50733   0.96050   0.00000  Uiso   1.00
C1421  C     0.99404   0.61987   0.99141   0.00000  Uiso   1.00
C1422  C     0.95950   0.59779   0.51704   0.00000  Uiso   1.00
C1423  C     0.96401   0.55842   0.52523   0.00000  Uiso   1.00
C1424  C     0.66967   0.54100   0.50767   0.00000  Uiso   1.00
C1425  C     0.86232   0.43539   0.92198   0.00000  Uiso   1.00
C1426  C     0.82329   0.41402   0.91688   0.00000  Uiso   1.00
C1427  C     0.82296   0.38949   0.88180   0.00000  Uiso   1.00
C1428  C     0.86168   0.38518   0.85178   0.00000  Uiso   1.00
C1429  C     0.90069   0.40639   0.85645   0.00000  Uiso   1.00
C1430  C     0.90111   0.43148   0.89138   0.00000  Uiso   1.00
C1431  C     0.76981   0.52704   0.98223   0.00000  Uiso   1.00
C1432  C     0.82969   0.48710   0.98034   0.00000  Uiso   1.00
C1433  C     0.81901   0.49337   0.52224   0.00000  Uiso   1.00
C1434  C     0.78331   0.51547   0.54294   0.00000  Uiso   1.00
C1435  C     0.75880   0.53098   0.52344   0.00000  Uiso   1.00
H1436  H     0.73233   0.54805   0.54125   0.00000  Uiso   1.00
H1437  H     0.77376   0.52223   0.57450   0.00000  Uiso   1.00
H1438  H     0.97864   0.38569   0.50221   0.00000  Uiso   1.00
H1439  H     0.94631   0.39424   0.55178   0.00000  Uiso   1.00
H1440  H     0.70257   0.44153   0.51267   0.00000  Uiso   1.00
H1441  H     0.67133   0.45273   0.56307   0.00000  Uiso   1.00
H1442  H     0.67551   0.38020   0.57639   0.00000  Uiso   1.00
H1443  H     0.72861   0.40811   0.55832   0.00000  Uiso   1.00
H1444  H     0.70733   0.36944   0.52566   0.00000  Uiso   1.00
H1445  H     0.79371   0.64875   0.83472   0.00000  Uiso   1.00
H1446  H     0.72039   0.62395   0.87472   0.00000  Uiso   1.00
H1447  H     0.68386   0.52669   0.71465   0.00000  Uiso   1.00
H1448  H     0.99013   0.62257   0.84954   0.00000  Uiso   1.00
H1449  H     0.66669   0.64676   0.78436   0.00000  Uiso   1.00
H1450  H     0.73970   0.33905   0.74431   0.00000  Uiso   1.00
H1451  H     0.72636   0.62045   0.95444   0.00000  Uiso   1.00
H1452  H     0.99040   0.65005   0.98460   0.00000  Uiso   1.00
H1453  H     0.92920   0.61110   0.53039   0.00000  Uiso   1.00
H1454  H     0.93718   0.54136   0.54503   0.00000  Uiso   1.00
H1455  H     0.67249   0.51025   0.51376   0.00000  Uiso   1.00
H1456  H     0.79308   0.41630   0.94012   0.00000  Uiso   1.00
H1457  H     0.79251   0.37384   0.87830   0.00000  Uiso   1.00
H1458  H     0.98438   0.47452   0.78570   0.00000  Uiso   1.00
H1459  H     0.86156   0.36544   0.82490   0.00000  Uiso   1.00
H1460  H     0.93060   0.40333   0.83304   0.00000  Uiso   1.00
H1461  H     0.93155   0.44792   0.89452   0.00000  Uiso   1.00
H1462  H     0.87723   0.33717   0.72214   0.00000  Uiso   1.00
H1463  H     0.80499   0.49094   0.60247   0.00000  Uiso   1.00
H1464  H     0.92815   0.45485   0.59352   0.00000  Uiso   1.00
H1465  H     0.91717   0.43297   0.96256   0.00000  Uiso   1.00
H1466  H     0.74112   0.55423   0.90520   0.00000  Uiso   1.00
H1467  H     0.85466   0.50229   0.90296   0.00000  Uiso   1.00
O1468  O     0.83333   0.50000   0.75000   0.00000  Uiso   1.00
O1469  O     0.82360   0.45726   0.66625   0.00000  Uiso   1.00
O1470  O     0.79354   0.53979   0.83749   0.00000  Uiso   1.00
O1471  O     0.87755   0.50826   0.65877   0.00000  Uiso   1.00
O1472  O     0.83865   0.49468   0.83749   0.00000  Uiso   1.00
O1473  O     0.95444   0.44161   0.51375   0.00000  Uiso   1.00
O1474  O     0.84515   0.41434   0.77820   0.00000  Uiso   1.00
O1475  O     0.81247   0.59469   0.76767   0.00000  Uiso   1.00
O1476  O     0.74119   0.46584   0.73607   0.00000  Uiso   1.00
O1477  O     0.93452   0.52512   0.71805   0.00000  Uiso   1.00
O1478  O     0.73656   0.52293   0.77820   0.00000  Uiso   1.00
O1479  O     0.92106   0.48610   0.76767   0.00000  Uiso   1.00
O1480  O     0.80467   0.40236   0.73607   0.00000  Uiso   1.00
O1481  O     0.87104   0.58860   0.71806   0.00000  Uiso   1.00
Zn1482 Zn    0.85910   0.47423   0.78277   0.00000  Uiso   1.00
Zn1483 Zn    0.80125   0.45711   0.72257   0.00000  Uiso   1.00
Zn1484 Zn    0.87833   0.52997   0.71188   0.00000  Uiso   1.00
Zn1485 Zn    0.79465   0.53868   0.78277   0.00000  Uiso   1.00
C1486  C     0.05251   0.82675   0.75881   0.00000  Uiso   1.00
C1487  C     0.19565   0.79388   0.95992   0.00000  Uiso   1.00
C1488  C     0.22438   0.78465   0.97893   0.00000  Uiso   1.00
C1489  C     0.28111   0.84035   0.74119   0.00000  Uiso   1.00
C1490  C     0.21726   0.79454   0.51939   0.00000  Uiso   1.00
C1491  C     0.17867   0.81188   0.54193   0.00000  Uiso   1.00
C1492  C     0.24734   0.78514   0.53759   0.00000  Uiso   1.00
C1493  C     0.23793   0.79239   0.57882   0.00000  Uiso   1.00
C1494  C     0.16847   0.81438   0.58331   0.00000  Uiso   1.00
C1495  C     0.32722   0.84312   0.73759   0.00000  Uiso   1.00
C1496  C     0.00704   0.82472   0.76242   0.00000  Uiso   1.00
C1497  C     0.09367   0.87612   0.92083   0.00000  Uiso   1.00
C1498  C     0.18082   0.98922   0.74109   0.00000  Uiso   1.00
C1499  C     0.14941   0.67931   0.76300   0.00000  Uiso   1.00
C1500  C     0.15615   0.72295   0.75865   0.00000  Uiso   1.00
C1501  C     0.17671   0.94440   0.74172   0.00000  Uiso   1.00
C1502  C     0.18833   0.81228   0.64401   0.00000  Uiso   1.00
C1503  C     0.14528   0.85437   0.85622   0.00000  Uiso   1.00
C1504  C     0.13213   0.85943   0.89962   0.00000  Uiso   1.00
C1505  C     0.19789   0.80492   0.60137   0.00000  Uiso   1.00
C1506  C     0.07911   0.87765   0.96204   0.00000  Uiso   1.00
C1507  C     0.30363   0.74340   0.52723   0.00000  Uiso   1.00
C1508  C     0.15633   0.84414   0.91974   0.00000  Uiso   1.00
C1509  C     0.01189   0.76109   0.53835   0.00000  Uiso   1.00
C1510  C     0.03197   0.72750   0.55042   0.00000  Uiso   1.00
C1511  C     0.10544   0.99638   0.78684   0.00000  Uiso   1.00
C1512  C     0.09942   0.98277   0.82392   0.00000  Uiso   1.00
C1513  C     0.05800   0.96815   0.84639   0.00000  Uiso   1.00
C1514  C     0.02219   0.96726   0.83216   0.00000  Uiso   1.00
C1515  C     0.02779   0.98087   0.79539   0.00000  Uiso   1.00
C1516  C     0.06920   0.99544   0.77280   0.00000  Uiso   1.00
C1517  C     0.03820   0.89660   0.98233   0.00000  Uiso   1.00
C1518  C     0.03326   0.93619   0.97424   0.00000  Uiso   1.00
C1519  C     0.14062   0.84066   0.96050   0.00000  Uiso   1.00
C1520  C     0.32737   0.95320   0.99141   0.00000  Uiso   1.00
C1521  C     0.29283   0.93112   0.51704   0.00000  Uiso   1.00
C1522  C     0.29734   0.89175   0.52523   0.00000  Uiso   1.00
C1523  C     0.00300   0.87434   0.50767   0.00000  Uiso   1.00
C1524  C     0.19565   0.76872   0.92198   0.00000  Uiso   1.00
C1525  C     0.15662   0.74736   0.91688   0.00000  Uiso   1.00
C1526  C     0.15629   0.72283   0.88180   0.00000  Uiso   1.00
C1527  C     0.19502   0.71851   0.85178   0.00000  Uiso   1.00
C1528  C     0.23402   0.73972   0.85645   0.00000  Uiso   1.00
C1529  C     0.23444   0.76481   0.89138   0.00000  Uiso   1.00
C1530  C     0.10315   0.86038   0.98223   0.00000  Uiso   1.00
C1531  C     0.16302   0.82043   0.98034   0.00000  Uiso   1.00
C1532  C     0.15235   0.82670   0.52224   0.00000  Uiso   1.00
C1533  C     0.11665   0.84880   0.54294   0.00000  Uiso   1.00
C1534  C     0.09213   0.86432   0.52344   0.00000  Uiso   1.00
H1535  H     0.06566   0.88138   0.54125   0.00000  Uiso   1.00
H1536  H     0.10710   0.85556   0.57450   0.00000  Uiso   1.00
H1537  H     0.31197   0.71903   0.50221   0.00000  Uiso   1.00
H1538  H     0.27964   0.72758   0.55178   0.00000  Uiso   1.00
H1539  H     0.03590   0.77487   0.51267   0.00000  Uiso   1.00
H1540  H     0.00466   0.78606   0.56307   0.00000  Uiso   1.00
H1541  H     0.00884   0.71353   0.57639   0.00000  Uiso   1.00
H1542  H     0.06195   0.74144   0.55832   0.00000  Uiso   1.00
H1543  H     0.04066   0.70278   0.52566   0.00000  Uiso   1.00
H1544  H     0.12704   0.98209   0.83472   0.00000  Uiso   1.00
H1545  H     0.05373   0.95728   0.87472   0.00000  Uiso   1.00
H1546  H     0.01719   0.86003   0.71465   0.00000  Uiso   1.00
H1547  H     0.32347   0.95590   0.84954   0.00000  Uiso   1.00
H1548  H     0.00003   0.98009   0.78436   0.00000  Uiso   1.00
H1549  H     0.07303   0.67238   0.74431   0.00000  Uiso   1.00
H1550  H     0.05969   0.95379   0.95444   0.00000  Uiso   1.00
H1551  H     0.32373   0.98339   0.98460   0.00000  Uiso   1.00
H1552  H     0.26253   0.94444   0.53039   0.00000  Uiso   1.00
H1553  H     0.27052   0.87469   0.54503   0.00000  Uiso   1.00
H1554  H     0.00582   0.84358   0.51376   0.00000  Uiso   1.00
H1555  H     0.12641   0.74963   0.94012   0.00000  Uiso   1.00
H1556  H     0.12584   0.70718   0.87830   0.00000  Uiso   1.00
H1557  H     0.31771   0.80785   0.78570   0.00000  Uiso   1.00
H1558  H     0.19489   0.69877   0.82490   0.00000  Uiso   1.00
H1559  H     0.26393   0.73666   0.83304   0.00000  Uiso   1.00
H1560  H     0.26488   0.78126   0.89452   0.00000  Uiso   1.00
H1561  H     0.21056   0.67051   0.72214   0.00000  Uiso   1.00
H1562  H     0.13832   0.82428   0.60247   0.00000  Uiso   1.00
H1563  H     0.26149   0.78818   0.59352   0.00000  Uiso   1.00
H1564  H     0.25050   0.76630   0.96256   0.00000  Uiso   1.00
H1565  H     0.07446   0.88756   0.90520   0.00000  Uiso   1.00
H1566  H     0.18799   0.83562   0.90296   0.00000  Uiso   1.00
O1567  O     0.16667   0.83333   0.75000   0.00000  Uiso   1.00
O1568  O     0.15693   0.79060   0.66625   0.00000  Uiso   1.00
O1569  O     0.12687   0.87313   0.83749   0.00000  Uiso   1.00
O1570  O     0.21088   0.84159   0.65877   0.00000  Uiso   1.00
O1571  O     0.17198   0.82802   0.83749   0.00000  Uiso   1.00
O1572  O     0.28778   0.77494   0.51375   0.00000  Uiso   1.00
O1573  O     0.17849   0.74768   0.77820   0.00000  Uiso   1.00
O1574  O     0.14581   0.92803   0.76767   0.00000  Uiso   1.00
O1575  O     0.07452   0.79917   0.73607   0.00000  Uiso   1.00
O1576  O     0.26785   0.85845   0.71805   0.00000  Uiso   1.00
O1577  O     0.06990   0.85627   0.77820   0.00000  Uiso   1.00
O1578  O     0.25440   0.81944   0.76767   0.00000  Uiso   1.00
O1579  O     0.13800   0.73570   0.73607   0.00000  Uiso   1.00
O1580  O     0.20437   0.92193   0.71806   0.00000  Uiso   1.00
Zn1581 Zn    0.19244   0.80756   0.78277   0.00000  Uiso   1.00
Zn1582 Zn    0.13459   0.79044   0.72257   0.00000  Uiso   1.00
Zn1583 Zn    0.21166   0.86331   0.71188   0.00000  Uiso   1.00
Zn1584 Zn    0.12798   0.87202   0.78277   0.00000  Uiso   1.00
C1585  C     0.38585   0.82675   0.75881   0.00000  Uiso   1.00
C1586  C     0.52898   0.79388   0.95992   0.00000  Uiso   1.00
C1587  C     0.55772   0.78465   0.97893   0.00000  Uiso   1.00
C1588  C     0.61445   0.84035   0.74119   0.00000  Uiso   1.00
C1589  C     0.55059   0.79454   0.51939   0.00000  Uiso   1.00
C1590  C     0.51201   0.81188   0.54193   0.00000  Uiso   1.00
C1591  C     0.58067   0.78514   0.53759   0.00000  Uiso   1.00
C1592  C     0.57127   0.79239   0.57882   0.00000  Uiso   1.00
C1593  C     0.50181   0.81438   0.58331   0.00000  Uiso   1.00
C1594  C     0.66055   0.84312   0.73759   0.00000  Uiso   1.00
C1595  C     0.34037   0.82472   0.76242   0.00000  Uiso   1.00
C1596  C     0.42700   0.87612   0.92083   0.00000  Uiso   1.00
C1597  C     0.51415   0.98922   0.74109   0.00000  Uiso   1.00
C1598  C     0.48274   0.67931   0.76300   0.00000  Uiso   1.00
C1599  C     0.48948   0.72295   0.75865   0.00000  Uiso   1.00
C1600  C     0.51004   0.94440   0.74172   0.00000  Uiso   1.00
C1601  C     0.52166   0.81228   0.64401   0.00000  Uiso   1.00
C1602  C     0.47861   0.85437   0.85622   0.00000  Uiso   1.00
C1603  C     0.46546   0.85943   0.89962   0.00000  Uiso   1.00
C1604  C     0.53122   0.80492   0.60137   0.00000  Uiso   1.00
C1605  C     0.41245   0.87765   0.96204   0.00000  Uiso   1.00
C1606  C     0.63696   0.74340   0.52723   0.00000  Uiso   1.00
C1607  C     0.48967   0.84414   0.91974   0.00000  Uiso   1.00
C1608  C     0.34523   0.76109   0.53835   0.00000  Uiso   1.00
C1609  C     0.36530   0.72750   0.55042   0.00000  Uiso   1.00
C1610  C     0.43877   0.99638   0.78684   0.00000  Uiso   1.00
C1611  C     0.43275   0.98277   0.82392   0.00000  Uiso   1.00
C1612  C     0.39133   0.96815   0.84639   0.00000  Uiso   1.00
C1613  C     0.35552   0.96726   0.83216   0.00000  Uiso   1.00
C1614  C     0.36112   0.98087   0.79539   0.00000  Uiso   1.00
C1615  C     0.40254   0.99544   0.77280   0.00000  Uiso   1.00
C1616  C     0.37154   0.89660   0.98233   0.00000  Uiso   1.00
C1617  C     0.36659   0.93619   0.97424   0.00000  Uiso   1.00
C1618  C     0.47395   0.84066   0.96050   0.00000  Uiso   1.00
C1619  C     0.66071   0.95320   0.99141   0.00000  Uiso   1.00
C1620  C     0.62617   0.93112   0.51704   0.00000  Uiso   1.00
C1621  C     0.63068   0.89175   0.52523   0.00000  Uiso   1.00
C1622  C     0.33633   0.87434   0.50767   0.00000  Uiso   1.00
C1623  C     0.52899   0.76872   0.92198   0.00000  Uiso   1.00
C1624  C     0.48995   0.74736   0.91688   0.00000  Uiso   1.00
C1625  C     0.48963   0.72283   0.88180   0.00000  Uiso   1.00
C1626  C     0.52835   0.71851   0.85178   0.00000  Uiso   1.00
C1627  C     0.56735   0.73972   0.85645   0.00000  Uiso   1.00
C1628  C     0.56777   0.76481   0.89138   0.00000  Uiso   1.00
C1629  C     0.43648   0.86038   0.98223   0.00000  Uiso   1.00
C1630  C     0.49636   0.82043   0.98034   0.00000  Uiso   1.00
C1631  C     0.48568   0.82670   0.52224   0.00000  Uiso   1.00
C1632  C     0.44998   0.84880   0.54294   0.00000  Uiso   1.00
C1633  C     0.42546   0.86432   0.52344   0.00000  Uiso   1.00
H1634  H     0.39900   0.88138   0.54125   0.00000  Uiso   1.00
H1635  H     0.44043   0.85556   0.57450   0.00000  Uiso   1.00
H1636  H     0.64531   0.71903   0.50221   0.00000  Uiso   1.00
H1637  H     0.61297   0.72758   0.55178   0.00000  Uiso   1.00
H1638  H     0.36923   0.77487   0.51267   0.00000  Uiso   1.00
H1639  H     0.33799   0.78606   0.56307   0.00000  Uiso   1.00
H1640  H     0.34217   0.71353   0.57639   0.00000  Uiso   1.00
H1641  H     0.39528   0.74144   0.55832   0.00000  Uiso   1.00
H1642  H     0.37400   0.70278   0.52566   0.00000  Uiso   1.00
H1643  H     0.46037   0.98209   0.83472   0.00000  Uiso   1.00
H1644  H     0.38706   0.95728   0.87472   0.00000  Uiso   1.00
H1645  H     0.35052   0.86003   0.71465   0.00000  Uiso   1.00
H1646  H     0.65680   0.95590   0.84954   0.00000  Uiso   1.00
H1647  H     0.33336   0.98009   0.78436   0.00000  Uiso   1.00
H1648  H     0.40637   0.67238   0.74431   0.00000  Uiso   1.00
H1649  H     0.39303   0.95379   0.95444   0.00000  Uiso   1.00
H1650  H     0.65706   0.98339   0.98460   0.00000  Uiso   1.00
H1651  H     0.59586   0.94444   0.53039   0.00000  Uiso   1.00
H1652  H     0.60385   0.87469   0.54503   0.00000  Uiso   1.00
H1653  H     0.33916   0.84358   0.51376   0.00000  Uiso   1.00
H1654  H     0.45975   0.74963   0.94012   0.00000  Uiso   1.00
H1655  H     0.45918   0.70718   0.87830   0.00000  Uiso   1.00
H1656  H     0.65105   0.80785   0.78570   0.00000  Uiso   1.00
H1657  H     0.52823   0.69877   0.82490   0.00000  Uiso   1.00
H1658  H     0.59726   0.73666   0.83304   0.00000  Uiso   1.00
H1659  H     0.59821   0.78126   0.89452   0.00000  Uiso   1.00
H1660  H     0.54389   0.67051   0.72214   0.00000  Uiso   1.00
H1661  H     0.47166   0.82428   0.60247   0.00000  Uiso   1.00
H1662  H     0.59482   0.78818   0.59352   0.00000  Uiso   1.00
H1663  H     0.58383   0.76630   0.96256   0.00000  Uiso   1.00
H1664  H     0.40779   0.88756   0.90520   0.00000  Uiso   1.00
H1665  H     0.52133   0.83562   0.90296   0.00000  Uiso   1.00
O1666  O     0.50000   0.83333   0.75000   0.00000  Uiso   1.00
O1667  O     0.49027   0.79060   0.66625   0.00000  Uiso   1.00
O1668  O     0.46020   0.87313   0.83749   0.00000  Uiso   1.00
O1669  O     0.54421   0.84159   0.65877   0.00000  Uiso   1.00
O1670  O     0.50532   0.82802   0.83749   0.00000  Uiso   1.00
O1671  O     0.62111   0.77494   0.51375   0.00000  Uiso   1.00
O1672  O     0.51182   0.74768   0.77820   0.00000  Uiso   1.00
O1673  O     0.47914   0.92803   0.76767   0.00000  Uiso   1.00
O1674  O     0.40785   0.79917   0.73607   0.00000  Uiso   1.00
O1675  O     0.60119   0.85845   0.71805   0.00000  Uiso   1.00
O1676  O     0.40323   0.85627   0.77820   0.00000  Uiso   1.00
O1677  O     0.58773   0.81944   0.76767   0.00000  Uiso   1.00
O1678  O     0.47133   0.73570   0.73607   0.00000  Uiso   1.00
O1679  O     0.53771   0.92193   0.71806   0.00000  Uiso   1.00
Zn1680 Zn    0.52577   0.80756   0.78277   0.00000  Uiso   1.00
Zn1681 Zn    0.46792   0.79044   0.72257   0.00000  Uiso   1.00
Zn1682 Zn    0.54500   0.86331   0.71188   0.00000  Uiso   1.00
Zn1683 Zn    0.46131   0.87202   0.78277   0.00000  Uiso   1.00
C1684  C     0.71918   0.82675   0.75881   0.00000  Uiso   1.00
C1685  C     0.86231   0.79388   0.95992   0.00000  Uiso   1.00
C1686  C     0.89105   0.78465   0.97893   0.00000  Uiso   1.00
C1687  C     0.94778   0.84035   0.74119   0.00000  Uiso   1.00
C1688  C     0.88393   0.79454   0.51939   0.00000  Uiso   1.00
C1689  C     0.84534   0.81188   0.54193   0.00000  Uiso   1.00
C1690  C     0.91401   0.78514   0.53759   0.00000  Uiso   1.00
C1691  C     0.90460   0.79239   0.57882   0.00000  Uiso   1.00
C1692  C     0.83514   0.81438   0.58331   0.00000  Uiso   1.00
C1693  C     0.99388   0.84312   0.73759   0.00000  Uiso   1.00
C1694  C     0.67370   0.82472   0.76242   0.00000  Uiso   1.00
C1695  C     0.76033   0.87612   0.92083   0.00000  Uiso   1.00
C1696  C     0.84749   0.98922   0.74109   0.00000  Uiso   1.00
C1697  C     0.81607   0.67931   0.76300   0.00000  Uiso   1.00
C1698  C     0.82281   0.72295   0.75865   0.00000  Uiso   1.00
C1699  C     0.84337   0.94440   0.74172   0.00000  Uiso   1.00
C1700  C     0.85500   0.81228   0.64401   0.00000  Uiso   1.00
C1701  C     0.81194   0.85437   0.85622   0.00000  Uiso   1.00
C1702  C     0.79880   0.85943   0.89962   0.00000  Uiso   1.00
C1703  C     0.86455   0.80492   0.60137   0.00000  Uiso   1.00
C1704  C     0.74578   0.87765   0.96204   0.00000  Uiso   1.00
C1705  C     0.97029   0.74340   0.52723   0.00000  Uiso   1.00
C1706  C     0.82300   0.84414   0.91974   0.00000  Uiso   1.00
C1707  C     0.67856   0.76109   0.53835   0.00000  Uiso   1.00
C1708  C     0.69864   0.72750   0.55042   0.00000  Uiso   1.00
C1709  C     0.77211   0.99638   0.78684   0.00000  Uiso   1.00
C1710  C     0.76609   0.98277   0.82392   0.00000  Uiso   1.00
C1711  C     0.72467   0.96815   0.84639   0.00000  Uiso   1.00
C1712  C     0.68886   0.96726   0.83216   0.00000  Uiso   1.00
C1713  C     0.69445   0.98087   0.79539   0.00000  Uiso   1.00
C1714  C     0.73587   0.99544   0.77280   0.00000  Uiso   1.00
C1715  C     0.70487   0.89660   0.98233   0.00000  Uiso   1.00
C1716  C     0.69993   0.93619   0.97424   0.00000  Uiso   1.00
C1717  C     0.80728   0.84066   0.96050   0.00000  Uiso   1.00
C1718  C     0.99404   0.95320   0.99141   0.00000  Uiso   1.00
C1719  C     0.95950   0.93112   0.51704   0.00000  Uiso   1.00
C1720  C     0.96401   0.89175   0.52523   0.00000  Uiso   1.00
C1721  C     0.66967   0.87434   0.50767   0.00000  Uiso   1.00
C1722  C     0.86232   0.76872   0.92198   0.00000  Uiso   1.00
C1723  C     0.82329   0.74736   0.91688   0.00000  Uiso   1.00
C1724  C     0.82296   0.72283   0.88180   0.00000  Uiso   1.00
C1725  C     0.86168   0.71851   0.85178   0.00000  Uiso   1.00
C1726  C     0.90069   0.73972   0.85645   0.00000  Uiso   1.00
C1727  C     0.90111   0.76481   0.89138   0.00000  Uiso   1.00
C1728  C     0.76981   0.86038   0.98223   0.00000  Uiso   1.00
C1729  C     0.82969   0.82043   0.98034   0.00000  Uiso   1.00
C1730  C     0.81901   0.82670   0.52224   0.00000  Uiso   1.00
C1731  C     0.78331   0.84880   0.54294   0.00000  Uiso   1.00
C1732  C     0.75880   0.86432   0.52344   0.00000  Uiso   1.00
H1733  H     0.73233   0.88138   0.54125   0.00000  Uiso   1.00
H1734  H     0.77376   0.85556   0.57450   0.00000  Uiso   1.00
H1735  H     0.97864   0.71903   0.50221   0.00000  Uiso   1.00
H1736  H     0.94631   0.72758   0.55178   0.00000  Uiso   1.00
H1737  H     0.70257   0.77487   0.51267   0.00000  Uiso   1.00
H1738  H     0.67133   0.78606   0.56307   0.00000  Uiso   1.00
H1739  H     0.67551   0.71353   0.57639   0.00000  Uiso   1.00
H1740  H     0.72861   0.74144   0.55832   0.00000  Uiso   1.00
H1741  H     0.70733   0.70278   0.52566   0.00000  Uiso   1.00
H1742  H     0.79371   0.98209   0.83472   0.00000  Uiso   1.00
H1743  H     0.72039   0.95728   0.87472   0.00000  Uiso   1.00
H1744  H     0.68386   0.86003   0.71465   0.00000  Uiso   1.00
H1745  H     0.99013   0.95590   0.84954   0.00000  Uiso   1.00
H1746  H     0.66669   0.98009   0.78436   0.00000  Uiso   1.00
H1747  H     0.73970   0.67238   0.74431   0.00000  Uiso   1.00
H1748  H     0.72636   0.95379   0.95444   0.00000  Uiso   1.00
H1749  H     0.99040   0.98339   0.98460   0.00000  Uiso   1.00
H1750  H     0.92920   0.94444   0.53039   0.00000  Uiso   1.00
H1751  H     0.93718   0.87469   0.54503   0.00000  Uiso   1.00
H1752  H     0.67249   0.84358   0.51376   0.00000  Uiso   1.00
H1753  H     0.79308   0.74963   0.94012   0.00000  Uiso   1.00
H1754  H     0.79251   0.70718   0.87830   0.00000  Uiso   1.00
H1755  H     0.98438   0.80785   0.78570   0.00000  Uiso   1.00
H1756  H     0.86156   0.69877   0.82490   0.00000  Uiso   1.00
H1757  H     0.93060   0.73666   0.83304   0.00000  Uiso   1.00
H1758  H     0.93155   0.78126   0.89452   0.00000  Uiso   1.00
H1759  H     0.87723   0.67051   0.72214   0.00000  Uiso   1.00
H1760  H     0.80499   0.82428   0.60247   0.00000  Uiso   1.00
H1761  H     0.92815   0.78818   0.59352   0.00000  Uiso   1.00
H1762  H     0.91717   0.76630   0.96256   0.00000  Uiso   1.00
H1763  H     0.74112   0.88756   0.90520   0.00000  Uiso   1.00
H1764  H     0.85466   0.83562   0.90296   0.00000  Uiso   1.00
O1765  O     0.83333   0.83333   0.75000   0.00000  Uiso   1.00
O1766  O     0.82360   0.79060   0.66625   0.00000  Uiso   1.00
O1767  O     0.79354   0.87313   0.83749   0.00000  Uiso   1.00
O1768  O     0.87755   0.84159   0.65877   0.00000  Uiso   1.00
O1769  O     0.83865   0.82802   0.83749   0.00000  Uiso   1.00
O1770  O     0.95444   0.77494   0.51375   0.00000  Uiso   1.00
O1771  O     0.84515   0.74768   0.77820   0.00000  Uiso   1.00
O1772  O     0.81247   0.92803   0.76767   0.00000  Uiso   1.00
O1773  O     0.74119   0.79917   0.73607   0.00000  Uiso   1.00
O1774  O     0.93452   0.85845   0.71805   0.00000  Uiso   1.00
O1775  O     0.73656   0.85627   0.77820   0.00000  Uiso   1.00
O1776  O     0.92106   0.81944   0.76767   0.00000  Uiso   1.00
O1777  O     0.80467   0.73570   0.73607   0.00000  Uiso   1.00
O1778  O     0.87104   0.92193   0.71806   0.00000  Uiso   1.00
Zn1779 Zn    0.85910   0.80756   0.78277   0.00000  Uiso   1.00
Zn1780 Zn    0.80125   0.79044   0.72257   0.00000  Uiso   1.00
Zn1781 Zn    0.87833   0.86331   0.71188   0.00000  Uiso   1.00
Zn1782 Zn    0.79465   0.87202   0.78277   0.00000  Uiso   1.00
loop_
_geom_bond_atom_site_label_1
_geom_bond_atom_site_label_2
_geom_bond_distance
_geom_bond_site_symmetry_2
_ccdc_geom_bond_type
C1     O90     1.273   .     A
C1     C11     1.436   .     S
C1     O92     1.272   .     A
C2     C46     1.427   .     A
C2     C39     1.485   .     S
C2     C3      1.394   .     A
C3     H79     1.084   .     S
C3     C896    1.393   .     S
C4     O91     1.282   .     A
C4     C10     1.454   .     S
C4     O93     1.277   .     A
C5     C7      1.413   .     A
C5     C6      1.420   .     A
C5     C894    1.393   1_554 S
C6     C9      1.409   .     A
C6     C47     1.427   .     A
C7     C8      1.405   .     A
C7     O87     1.393   .     S
C8     C20     1.394   .     A
C8     H78     1.082   .     S
C9     C20     1.391   .     A
C9     H77     1.078   .     S
C10    C110    1.335   .     S
C10    H160    1.088   .     S
C11    C208    1.335   1_455 S
C11    H270    1.087   1_455 S
C12    C21     1.401   .     A
C12    H80     1.084   .     S
C12    C19     1.396   .     A
C13    C16     1.454   .     S
C13    C311    1.350   .     S
C13    H373    1.088   .     S
C14    C15     1.434   .     S
C14    C607    1.350   1_545 S
C14    C620    1.491   1_545 S
C15    O94     1.274   .     A
C15    O88     1.282   .     A
C16    O89     1.256   .     A
C16    O95     1.276   .     A
C17    O85     1.272   .     A
C17    C20     1.454   .     S
C17    O83     1.278   .     A
C18    C19     1.472   .     S
C18    O84     1.282   .     A
C18    O86     1.286   .     A
C19    C23     1.392   .     A
C21    C45     1.424   .     A
C21    C32     1.488   .     S
C22    H53     1.115   .     S
C22    O87     1.415   .     S
C22    H52     1.108   .     S
C22    C123    1.532   .     S
C23    C34     1.407   .     A
C23    H81     1.078   .     S
C24    H55     1.111   .     S
C24    H54     1.112   .     S
C24    C25     1.525   .     S
C24    C220    1.532   1_455 S
C25    H56     1.111   .     S
C25    H57     1.111   .     S
C25    H58     1.111   .     S
C26    C27     1.406   .     A
C26    C31     1.405   .     A
C26    C311    1.491   .     S
C27    H59     1.081   .     S
C27    C28     1.398   .     A
C28    C29     1.397   .     A
C28    H60     1.083   .     S
C29    C30     1.398   .     A
C29    H260    1.082   1_455 S
C30    C31     1.399   .     A
C30    H63     1.082   .     S
C31    H361    1.083   .     S
C32    C33     1.406   .     A
C32    C929    1.406   .     S
C33    H65     1.083   .     S
C33    C233    1.397   1_455 S
C34    C46     1.432   .     A
C34    C45     1.422   .     A
C35    H66     1.080   .     S
C35    C132    1.397   .     S
C35    C927    1.396   .     S
C36    H67     1.082   .     S
C36    C37     1.396   .     A
C36    C926    1.396   1_554 S
C37    H68     1.081   .     S
C37    C137    1.399   .     S
C38    H69     1.080   .     S
C38    C923    1.406   1_554 S
C38    C235    1.399   1_455 S
C39    C40     1.404   .     A
C39    C44     1.408   .     A
C40    H70     1.083   .     S
C40    C41     1.393   .     A
C41    C42     1.398   .     A
C41    H71     1.079   .     S
C42    H73     1.081   .     S
C42    C43     1.397   .     A
C43    H74     1.082   .     S
C43    C44     1.398   .     A
C44    H75     1.083   .     S
C45    C940    1.399   .     S
C46    C938    1.424   .     S
C47    C48     1.413   .     A
C47    C937    1.424   1_554 S
C48    H51     1.076   .     S
C48    C49     1.387   .     A
C49    H50     1.081   .     S
C49    C936    1.399   1_554 S
H61    C208    1.088   1_455 S
H62    C128    1.082   .     S
H64    C625    1.083   1_545 S
H72    C110    1.087   .     S
H76    C607    1.088   1_545 S
O82    Zn99    1.929   .     S
O82    Zn98    1.927   .     S
O82    Zn96    1.962   .     S
O82    Zn97    1.953   .     S
O83    Zn97    1.925   .     S
O84    Zn99    1.940   .     S
O85    Zn98    1.938   .     S
O86    Zn96    1.924   .     S
O88    Zn96    1.939   .     S
O89    Zn99    1.939   .     S
O90    Zn97    1.918   .     S
O91    Zn98    1.933   .     S
O92    Zn99    1.930   .     S
O93    Zn96    1.916   .     S
O94    Zn97    1.944   .     S
O95    Zn98    1.940   .     S
C100   O189    1.273   .     A
C100   C110    1.436   .     S
C100   O191    1.272   .     A
C101   C145    1.427   .     A
C101   C138    1.485   .     S
C101   C102    1.394   .     A
C102   H178    1.084   .     S
C102   C995    1.393   .     S
C103   O190    1.282   .     A
C103   C109    1.454   .     S
C103   O192    1.277   .     A
C104   C106    1.413   .     A
C104   C105    1.420   .     A
C104   C993    1.393   1_554 S
C105   C108    1.409   .     A
C105   C146    1.427   .     A
C106   C107    1.405   .     A
C106   O186    1.393   .     S
C107   C119    1.394   .     A
C107   H177    1.082   .     S
C108   C119    1.391   .     A
C108   H176    1.078   .     S
C109   C209    1.335   .     S
C109   H259    1.088   .     S
C111   C120    1.401   .     A
C111   H179    1.084   .     S
C111   C118    1.396   .     A
C112   C115    1.454   .     S
C112   C410    1.350   .     S
C112   H472    1.088   .     S
C113   C114    1.434   .     S
C113   C706    1.350   1_545 S
C113   C719    1.491   1_545 S
C114   O193    1.274   .     A
C114   O187    1.282   .     A
C115   O188    1.256   .     A
C115   O194    1.276   .     A
C116   O184    1.272   .     A
C116   C119    1.454   .     S
C116   O182    1.278   .     A
C117   C118    1.472   .     S
C117   O183    1.282   .     A
C117   O185    1.286   .     A
C118   C122    1.392   .     A
C120   C144    1.424   .     A
C120   C131    1.488   .     S
C121   H152    1.115   .     S
C121   O186    1.415   .     S
C121   H151    1.108   .     S
C121   C222    1.532   .     S
C122   C133    1.407   .     A
C122   H180    1.078   .     S
C123   H154    1.111   .     S
C123   H153    1.112   .     S
C123   C124    1.525   .     S
C124   H155    1.111   .     S
C124   H156    1.111   .     S
C124   H157    1.111   .     S
C125   C126    1.406   .     A
C125   C130    1.405   .     A
C125   C410    1.491   .     S
C126   H158    1.081   .     S
C126   C127    1.398   .     A
C127   C128    1.397   .     A
C127   H159    1.083   .     S
C128   C129    1.398   .     A
C129   C130    1.399   .     A
C129   H162    1.082   .     S
C130   H460    1.083   .     S
C131   C132    1.406   .     A
C131   C1028   1.406   .     S
C132   H164    1.083   .     S
C133   C145    1.432   .     A
C133   C144    1.422   .     A
C134   H165    1.080   .     S
C134   C231    1.397   .     S
C134   C1026   1.396   .     S
C135   H166    1.082   .     S
C135   C136    1.396   .     A
C135   C1025   1.396   1_554 S
C136   H167    1.081   .     S
C136   C236    1.399   .     S
C137   H168    1.080   .     S
C137   C1022   1.406   1_554 S
C138   C139    1.404   .     A
C138   C143    1.408   .     A
C139   H169    1.083   .     S
C139   C140    1.393   .     A
C140   C141    1.398   .     A
C140   H170    1.079   .     S
C141   H172    1.081   .     S
C141   C142    1.397   .     A
C142   H173    1.082   .     S
C142   C143    1.398   .     A
C143   H174    1.083   .     S
C144   C1039   1.399   .     S
C145   C1037   1.424   .     S
C146   C147    1.413   .     A
C146   C1036   1.424   1_554 S
C147   H150    1.076   .     S
C147   C148    1.387   .     A
C148   H149    1.081   .     S
C148   C1035   1.399   1_554 S
H161   C227    1.082   .     S
H163   C724    1.083   1_545 S
H171   C209    1.087   .     S
H175   C706    1.088   1_545 S
O181   Zn198   1.929   .     S
O181   Zn197   1.927   .     S
O181   Zn195   1.962   .     S
O181   Zn196   1.953   .     S
O182   Zn196   1.925   .     S
O183   Zn198   1.940   .     S
O184   Zn197   1.938   .     S
O185   Zn195   1.924   .     S
O187   Zn195   1.939   .     S
O188   Zn198   1.939   .     S
O189   Zn196   1.918   .     S
O190   Zn197   1.933   .     S
O191   Zn198   1.930   .     S
O192   Zn195   1.916   .     S
O193   Zn196   1.944   .     S
O194   Zn197   1.940   .     S
C199   O288    1.273   .     A
C199   C209    1.436   .     S
C199   O290    1.272   .     A
C200   C244    1.427   .     A
C200   C237    1.485   .     S
C200   C201    1.394   .     A
C201   H277    1.084   .     S
C201   C1094   1.393   .     S
C202   O289    1.282   .     A
C202   C208    1.454   .     S
C202   O291    1.277   .     A
C203   C205    1.413   .     A
C203   C204    1.420   .     A
C203   C1092   1.393   1_554 S
C204   C207    1.409   .     A
C204   C245    1.427   .     A
C205   C206    1.405   .     A
C205   O285    1.393   .     S
C206   C218    1.394   .     A
C206   H276    1.082   .     S
C207   C218    1.391   .     A
C207   H275    1.078   .     S
C208   C11     1.335   1_655 S
C208   H61     1.088   1_655 S
C210   C219    1.401   .     A
C210   H278    1.084   .     S
C210   C217    1.396   .     A
C211   C214    1.454   .     S
C211   C509    1.350   .     S
C211   H571    1.088   .     S
C212   C213    1.434   .     S
C212   C805    1.350   1_545 S
C212   C818    1.491   1_545 S
C213   O292    1.274   .     A
C213   O286    1.282   .     A
C214   O287    1.256   .     A
C214   O293    1.276   .     A
C215   O283    1.272   .     A
C215   C218    1.454   .     S
C215   O281    1.278   .     A
C216   C217    1.472   .     S
C216   O282    1.282   .     A
C216   O284    1.286   .     A
C217   C221    1.392   .     A
C219   C243    1.424   .     A
C219   C230    1.488   .     S
C220   H251    1.115   .     S
C220   O285    1.415   .     S
C220   H250    1.108   .     S
C220   C24     1.532   1_655 S
C221   C232    1.407   .     A
C221   H279    1.078   .     S
C222   H253    1.111   .     S
C222   H252    1.112   .     S
C222   C223    1.525   .     S
C223   H254    1.111   .     S
C223   H255    1.111   .     S
C223   H256    1.111   .     S
C224   C225    1.406   .     A
C224   C229    1.405   .     A
C224   C509    1.491   .     S
C225   H257    1.081   .     S
C225   C226    1.398   .     A
C226   C227    1.397   .     A
C226   H258    1.083   .     S
C227   C228    1.398   .     A
C228   C229    1.399   .     A
C228   H261    1.082   .     S
C229   H559    1.083   .     S
C230   C231    1.406   .     A
C230   C1127   1.406   .     S
C231   H263    1.083   .     S
C232   C244    1.432   .     A
C232   C243    1.422   .     A
C233   H264    1.080   .     S
C233   C33     1.397   1_655 S
C233   C1125   1.396   .     S
C234   H265    1.082   .     S
C234   C235    1.396   .     A
C234   C1124   1.396   1_554 S
C235   H266    1.081   .     S
C235   C38     1.399   1_655 S
C236   H267    1.080   .     S
C236   C1121   1.406   1_554 S
C237   C238    1.404   .     A
C237   C242    1.408   .     A
C238   H268    1.083   .     S
C238   C239    1.393   .     A
C239   C240    1.398   .     A
C239   H269    1.079   .     S
C240   H271    1.081   .     S
C240   C241    1.397   .     A
C241   H272    1.082   .     S
C241   C242    1.398   .     A
C242   H273    1.083   .     S
C243   C1138   1.399   .     S
C244   C1136   1.424   .     S
C245   C246    1.413   .     A
C245   C1135   1.424   1_554 S
C246   H249    1.076   .     S
C246   C247    1.387   .     A
C247   H248    1.081   .     S
C247   C1134   1.399   1_554 S
H260   C29     1.082   1_655 S
H262   C823    1.083   1_545 S
H270   C11     1.087   1_655 S
H274   C805    1.088   1_545 S
O280   Zn297   1.929   .     S
O280   Zn296   1.927   .     S
O280   Zn294   1.962   .     S
O280   Zn295   1.953   .     S
O281   Zn295   1.925   .     S
O282   Zn297   1.940   .     S
O283   Zn296   1.938   .     S
O284   Zn294   1.924   .     S
O286   Zn294   1.939   .     S
O287   Zn297   1.939   .     S
O288   Zn295   1.918   .     S
O289   Zn296   1.933   .     S
O290   Zn297   1.930   .     S
O291   Zn294   1.916   .     S
O292   Zn295   1.944   .     S
O293   Zn296   1.940   .     S
C298   O387    1.273   .     A
C298   C308    1.436   .     S
C298   O389    1.272   .     A
C299   C343    1.427   .     A
C299   C336    1.485   .     S
C299   C300    1.394   .     A
C300   H376    1.084   .     S
C300   C1193   1.393   .     S
C301   O388    1.282   .     A
C301   C307    1.454   .     S
C301   O390    1.277   .     A
C302   C304    1.413   .     A
C302   C303    1.420   .     A
C302   C1191   1.393   1_554 S
C303   C306    1.409   .     A
C303   C344    1.427   .     A
C304   C305    1.405   .     A
C304   O384    1.393   .     S
C305   C317    1.394   .     A
C305   H375    1.082   .     S
C306   C317    1.391   .     A
C306   H374    1.078   .     S
C307   C407    1.335   .     S
C307   H457    1.088   .     S
C308   C505    1.335   1_455 S
C308   H567    1.087   1_455 S
C309   C318    1.401   .     A
C309   H377    1.084   .     S
C309   C316    1.396   .     A
C310   C313    1.454   .     S
C310   C608    1.350   .     S
C310   H670    1.088   .     S
C311   C312    1.434   .     S
C312   O391    1.274   .     A
C312   O385    1.282   .     A
C313   O386    1.256   .     A
C313   O392    1.276   .     A
C314   O382    1.272   .     A
C314   C317    1.454   .     S
C314   O380    1.278   .     A
C315   C316    1.472   .     S
C315   O381    1.282   .     A
C315   O383    1.286   .     A
C316   C320    1.392   .     A
C318   C342    1.424   .     A
C318   C329    1.488   .     S
C319   H350    1.115   .     S
C319   O384    1.415   .     S
C319   H349    1.108   .     S
C319   C420    1.532   .     S
C320   C331    1.407   .     A
C320   H378    1.078   .     S
C321   H352    1.111   .     S
C321   H351    1.112   .     S
C321   C322    1.525   .     S
C321   C517    1.532   1_455 S
C322   H353    1.111   .     S
C322   H354    1.111   .     S
C322   H355    1.111   .     S
C323   C324    1.406   .     A
C323   C328    1.405   .     A
C323   C608    1.491   .     S
C324   H356    1.081   .     S
C324   C325    1.398   .     A
C325   C326    1.397   .     A
C325   H357    1.083   .     S
C326   C327    1.398   .     A
C326   H557    1.082   1_455 S
C327   C328    1.399   .     A
C327   H360    1.082   .     S
C328   H658    1.083   .     S
C329   C330    1.406   .     A
C329   C1226   1.406   .     S
C330   H362    1.083   .     S
C330   C530    1.397   1_455 S
C331   C343    1.432   .     A
C331   C342    1.422   .     A
C332   H363    1.080   .     S
C332   C429    1.397   .     S
C332   C1224   1.396   .     S
C333   H364    1.082   .     S
C333   C334    1.396   .     A
C333   C1223   1.396   1_554 S
C334   H365    1.081   .     S
C334   C434    1.399   .     S
C335   H366    1.080   .     S
C335   C1220   1.406   1_554 S
C335   C532    1.399   1_455 S
C336   C337    1.404   .     A
C336   C341    1.408   .     A
C337   H367    1.083   .     S
C337   C338    1.393   .     A
C338   C339    1.398   .     A
C338   H368    1.079   .     S
C339   H370    1.081   .     S
C339   C340    1.397   .     A
C340   H371    1.082   .     S
C340   C341    1.398   .     A
C341   H372    1.083   .     S
C342   C1237   1.399   .     S
C343   C1235   1.424   .     S
C344   C345    1.413   .     A
C344   C1234   1.424   1_554 S
C345   H348    1.076   .     S
C345   C346    1.387   .     A
C346   H347    1.081   .     S
C346   C1233   1.399   1_554 S
H358   C505    1.088   1_455 S
H359   C425    1.082   .     S
H369   C407    1.087   .     S
O379   Zn396   1.929   .     S
O379   Zn395   1.927   .     S
O379   Zn393   1.962   .     S
O379   Zn394   1.953   .     S
O380   Zn394   1.925   .     S
O381   Zn396   1.940   .     S
O382   Zn395   1.938   .     S
O383   Zn393   1.924   .     S
O385   Zn393   1.939   .     S
O386   Zn396   1.939   .     S
O387   Zn394   1.918   .     S
O388   Zn395   1.933   .     S
O389   Zn396   1.930   .     S
O390   Zn393   1.916   .     S
O391   Zn394   1.944   .     S
O392   Zn395   1.940   .     S
C397   O486    1.273   .     A
C397   C407    1.436   .     S
C397   O488    1.272   .     A
C398   C442    1.427   .     A
C398   C435    1.485   .     S
C398   C399    1.394   .     A
C399   H475    1.084   .     S
C399   C1292   1.393   .     S
C400   O487    1.282   .     A
C400   C406    1.454   .     S
C400   O489    1.277   .     A
C401   C403    1.413   .     A
C401   C402    1.420   .     A
C401   C1290   1.393   1_554 S
C402   C405    1.409   .     A
C402   C443    1.427   .     A
C403   C404    1.405   .     A
C403   O483    1.393   .     S
C404   C416    1.394   .     A
C404   H474    1.082   .     S
C405   C416    1.391   .     A
C405   H473    1.078   .     S
C406   C506    1.335   .     S
C406   H556    1.088   .     S
C408   C417    1.401   .     A
C408   H476    1.084   .     S
C408   C415    1.396   .     A
C409   C412    1.454   .     S
C409   C707    1.350   .     S
C409   H769    1.088   .     S
C410   C411    1.434   .     S
C411   O490    1.274   .     A
C411   O484    1.282   .     A
C412   O485    1.256   .     A
C412   O491    1.276   .     A
C413   O481    1.272   .     A
C413   C416    1.454   .     S
C413   O479    1.278   .     A
C414   C415    1.472   .     S
C414   O480    1.282   .     A
C414   O482    1.286   .     A
C415   C419    1.392   .     A
C417   C441    1.424   .     A
C417   C428    1.488   .     S
C418   H449    1.115   .     S
C418   O483    1.415   .     S
C418   H448    1.108   .     S
C418   C519    1.532   .     S
C419   C430    1.407   .     A
C419   H477    1.078   .     S
C420   H451    1.111   .     S
C420   H450    1.112   .     S
C420   C421    1.525   .     S
C421   H452    1.111   .     S
C421   H453    1.111   .     S
C421   H454    1.111   .     S
C422   C423    1.406   .     A
C422   C427    1.405   .     A
C422   C707    1.491   .     S
C423   H455    1.081   .     S
C423   C424    1.398   .     A
C424   C425    1.397   .     A
C424   H456    1.083   .     S
C425   C426    1.398   .     A
C426   C427    1.399   .     A
C426   H459    1.082   .     S
C427   H757    1.083   .     S
C428   C429    1.406   .     A
C428   C1325   1.406   .     S
C429   H461    1.083   .     S
C430   C442    1.432   .     A
C430   C441    1.422   .     A
C431   H462    1.080   .     S
C431   C528    1.397   .     S
C431   C1323   1.396   .     S
C432   H463    1.082   .     S
C432   C433    1.396   .     A
C432   C1322   1.396   1_554 S
C433   H464    1.081   .     S
C433   C533    1.399   .     S
C434   H465    1.080   .     S
C434   C1319   1.406   1_554 S
C435   C436    1.404   .     A
C435   C440    1.408   .     A
C436   H466    1.083   .     S
C436   C437    1.393   .     A
C437   C438    1.398   .     A
C437   H467    1.079   .     S
C438   H469    1.081   .     S
C438   C439    1.397   .     A
C439   H470    1.082   .     S
C439   C440    1.398   .     A
C440   H471    1.083   .     S
C441   C1336   1.399   .     S
C442   C1334   1.424   .     S
C443   C444    1.413   .     A
C443   C1333   1.424   1_554 S
C444   H447    1.076   .     S
C444   C445    1.387   .     A
C445   H446    1.081   .     S
C445   C1332   1.399   1_554 S
H458   C524    1.082   .     S
H468   C506    1.087   .     S
O478   Zn495   1.929   .     S
O478   Zn494   1.927   .     S
O478   Zn492   1.962   .     S
O478   Zn493   1.953   .     S
O479   Zn493   1.925   .     S
O480   Zn495   1.940   .     S
O481   Zn494   1.938   .     S
O482   Zn492   1.924   .     S
O484   Zn492   1.939   .     S
O485   Zn495   1.939   .     S
O486   Zn493   1.918   .     S
O487   Zn494   1.933   .     S
O488   Zn495   1.930   .     S
O489   Zn492   1.916   .     S
O490   Zn493   1.944   .     S
O491   Zn494   1.940   .     S
C496   O585    1.273   .     A
C496   C506    1.436   .     S
C496   O587    1.272   .     A
C497   C541    1.427   .     A
C497   C534    1.485   .     S
C497   C498    1.394   .     A
C498   H574    1.084   .     S
C498   C1391   1.393   .     S
C499   O586    1.282   .     A
C499   C505    1.454   .     S
C499   O588    1.277   .     A
C500   C502    1.413   .     A
C500   C501    1.420   .     A
C500   C1389   1.393   1_554 S
C501   C504    1.409   .     A
C501   C542    1.427   .     A
C502   C503    1.405   .     A
C502   O582    1.393   .     S
C503   C515    1.394   .     A
C503   H573    1.082   .     S
C504   C515    1.391   .     A
C504   H572    1.078   .     S
C505   C308    1.335   1_655 S
C505   H358    1.088   1_655 S
C507   C516    1.401   .     A
C507   H575    1.084   .     S
C507   C514    1.396   .     A
C508   C511    1.454   .     S
C508   C806    1.350   .     S
C508   H868    1.088   .     S
C509   C510    1.434   .     S
C510   O589    1.274   .     A
C510   O583    1.282   .     A
C511   O584    1.256   .     A
C511   O590    1.276   .     A
C512   O580    1.272   .     A
C512   C515    1.454   .     S
C512   O578    1.278   .     A
C513   C514    1.472   .     S
C513   O579    1.282   .     A
C513   O581    1.286   .     A
C514   C518    1.392   .     A
C516   C540    1.424   .     A
C516   C527    1.488   .     S
C517   H548    1.115   .     S
C517   O582    1.415   .     S
C517   H547    1.108   .     S
C517   C321    1.532   1_655 S
C518   C529    1.407   .     A
C518   H576    1.078   .     S
C519   H550    1.111   .     S
C519   H549    1.112   .     S
C519   C520    1.525   .     S
C520   H551    1.111   .     S
C520   H552    1.111   .     S
C520   H553    1.111   .     S
C521   C522    1.406   .     A
C521   C526    1.405   .     A
C521   C806    1.491   .     S
C522   H554    1.081   .     S
C522   C523    1.398   .     A
C523   C524    1.397   .     A
C523   H555    1.083   .     S
C524   C525    1.398   .     A
C525   C526    1.399   .     A
C525   H558    1.082   .     S
C526   H856    1.083   .     S
C527   C528    1.406   .     A
C527   C1424   1.406   .     S
C528   H560    1.083   .     S
C529   C541    1.432   .     A
C529   C540    1.422   .     A
C530   H561    1.080   .     S
C530   C330    1.397   1_655 S
C530   C1422   1.396   .     S
C531   H562    1.082   .     S
C531   C532    1.396   .     A
C531   C1421   1.396   1_554 S
C532   H563    1.081   .     S
C532   C335    1.399   1_655 S
C533   H564    1.080   .     S
C533   C1418   1.406   1_554 S
C534   C535    1.404   .     A
C534   C539    1.408   .     A
C535   H565    1.083   .     S
C535   C536    1.393   .     A
C536   C537    1.398   .     A
C536   H566    1.079   .     S
C537   H568    1.081   .     S
C537   C538    1.397   .     A
C538   H569    1.082   .     S
C538   C539    1.398   .     A
C539   H570    1.083   .     S
C540   C1435   1.399   .     S
C541   C1433   1.424   .     S
C542   C543    1.413   .     A
C542   C1432   1.424   1_554 S
C543   H546    1.076   .     S
C543   C544    1.387   .     A
C544   H545    1.081   .     S
C544   C1431   1.399   1_554 S
H557   C326    1.082   1_655 S
H567   C308    1.087   1_655 S
O577   Zn594   1.929   .     S
O577   Zn593   1.927   .     S
O577   Zn591   1.962   .     S
O577   Zn592   1.953   .     S
O578   Zn592   1.925   .     S
O579   Zn594   1.940   .     S
O580   Zn593   1.938   .     S
O581   Zn591   1.924   .     S
O583   Zn591   1.939   .     S
O584   Zn594   1.939   .     S
O585   Zn592   1.918   .     S
O586   Zn593   1.933   .     S
O587   Zn594   1.930   .     S
O588   Zn591   1.916   .     S
O589   Zn592   1.944   .     S
O590   Zn593   1.940   .     S
C595   O684    1.273   .     A
C595   C605    1.436   .     S
C595   O686    1.272   .     A
C596   C640    1.427   .     A
C596   C633    1.485   .     S
C596   C597    1.394   .     A
C597   H673    1.084   .     S
C597   C1490   1.393   .     S
C598   O685    1.282   .     A
C598   C604    1.454   .     S
C598   O687    1.277   .     A
C599   C601    1.413   .     A
C599   C600    1.420   .     A
C599   C1488   1.393   1_554 S
C600   C603    1.409   .     A
C600   C641    1.427   .     A
C601   C602    1.405   .     A
C601   O681    1.393   .     S
C602   C614    1.394   .     A
C602   H672    1.082   .     S
C603   C614    1.391   .     A
C603   H671    1.078   .     S
C604   C704    1.335   .     S
C604   H754    1.088   .     S
C605   C802    1.335   1_455 S
C605   H864    1.087   1_455 S
C606   C615    1.401   .     A
C606   H674    1.084   .     S
C606   C613    1.396   .     A
C607   C610    1.454   .     S
C607   C14     1.350   1_565 S
C607   H76     1.088   1_565 S
C608   C609    1.434   .     S
C609   O688    1.274   .     A
C609   O682    1.282   .     A
C610   O683    1.256   .     A
C610   O689    1.276   .     A
C611   O679    1.272   .     A
C611   C614    1.454   .     S
C611   O677    1.278   .     A
C612   C613    1.472   .     S
C612   O678    1.282   .     A
C612   O680    1.286   .     A
C613   C617    1.392   .     A
C615   C639    1.424   .     A
C615   C626    1.488   .     S
C616   H647    1.115   .     S
C616   O681    1.415   .     S
C616   H646    1.108   .     S
C616   C717    1.532   .     S
C617   C628    1.407   .     A
C617   H675    1.078   .     S
C618   H649    1.111   .     S
C618   H648    1.112   .     S
C618   C619    1.525   .     S
C618   C814    1.532   1_455 S
C619   H650    1.111   .     S
C619   H651    1.111   .     S
C619   H652    1.111   .     S
C620   C621    1.406   .     A
C620   C625    1.405   .     A
C620   C14     1.491   1_565 S
C621   H653    1.081   .     S
C621   C622    1.398   .     A
C622   C623    1.397   .     A
C622   H654    1.083   .     S
C623   C624    1.398   .     A
C623   H854    1.082   1_455 S
C624   C625    1.399   .     A
C624   H657    1.082   .     S
C625   H64     1.083   1_565 S
C626   C627    1.406   .     A
C626   C1523   1.406   .     S
C627   H659    1.083   .     S
C627   C827    1.397   1_455 S
C628   C640    1.432   .     A
C628   C639    1.422   .     A
C629   H660    1.080   .     S
C629   C726    1.397   .     S
C629   C1521   1.396   .     S
C630   H661    1.082   .     S
C630   C631    1.396   .     A
C630   C1520   1.396   1_554 S
C631   H662    1.081   .     S
C631   C731    1.399   .     S
C632   H663    1.080   .     S
C632   C1517   1.406   1_554 S
C632   C829    1.399   1_455 S
C633   C634    1.404   .     A
C633   C638    1.408   .     A
C634   H664    1.083   .     S
C634   C635    1.393   .     A
C635   C636    1.398   .     A
C635   H665    1.079   .     S
C636   H667    1.081   .     S
C636   C637    1.397   .     A
C637   H668    1.082   .     S
C637   C638    1.398   .     A
C638   H669    1.083   .     S
C639   C1534   1.399   .     S
C640   C1532   1.424   .     S
C641   C642    1.413   .     A
C641   C1531   1.424   1_554 S
C642   H645    1.076   .     S
C642   C643    1.387   .     A
C643   H644    1.081   .     S
C643   C1530   1.399   1_554 S
H655   C802    1.088   1_455 S
H656   C722    1.082   .     S
H666   C704    1.087   .     S
O676   Zn693   1.929   .     S
O676   Zn692   1.927   .     S
O676   Zn690   1.962   .     S
O676   Zn691   1.953   .     S
O677   Zn691   1.925   .     S
O678   Zn693   1.940   .     S
O679   Zn692   1.938   .     S
O680   Zn690   1.924   .     S
O682   Zn690   1.939   .     S
O683   Zn693   1.939   .     S
O684   Zn691   1.918   .     S
O685   Zn692   1.933   .     S
O686   Zn693   1.930   .     S
O687   Zn690   1.916   .     S
O688   Zn691   1.944   .     S
O689   Zn692   1.940   .     S
C694   O783    1.273   .     A
C694   C704    1.436   .     S
C694   O785    1.272   .     A
C695   C739    1.427   .     A
C695   C732    1.485   .     S
C695   C696    1.394   .     A
C696   H772    1.084   .     S
C696   C1589   1.393   .     S
C697   O784    1.282   .     A
C697   C703    1.454   .     S
C697   O786    1.277   .     A
C698   C700    1.413   .     A
C698   C699    1.420   .     A
C698   C1587   1.393   1_554 S
C699   C702    1.409   .     A
C699   C740    1.427   .     A
C700   C701    1.405   .     A
C700   O780    1.393   .     S
C701   C713    1.394   .     A
C701   H771    1.082   .     S
C702   C713    1.391   .     A
C702   H770    1.078   .     S
C703   C803    1.335   .     S
C703   H853    1.088   .     S
C705   C714    1.401   .     A
C705   H773    1.084   .     S
C705   C712    1.396   .     A
C706   C709    1.454   .     S
C706   C113    1.350   1_565 S
C706   H175    1.088   1_565 S
C707   C708    1.434   .     S
C708   O787    1.274   .     A
C708   O781    1.282   .     A
C709   O782    1.256   .     A
C709   O788    1.276   .     A
C710   O778    1.272   .     A
C710   C713    1.454   .     S
C710   O776    1.278   .     A
C711   C712    1.472   .     S
C711   O777    1.282   .     A
C711   O779    1.286   .     A
C712   C716    1.392   .     A
C714   C738    1.424   .     A
C714   C725    1.488   .     S
C715   H746    1.115   .     S
C715   O780    1.415   .     S
C715   H745    1.108   .     S
C715   C816    1.532   .     S
C716   C727    1.407   .     A
C716   H774    1.078   .     S
C717   H748    1.111   .     S
C717   H747    1.112   .     S
C717   C718    1.525   .     S
C718   H749    1.111   .     S
C718   H750    1.111   .     S
C718   H751    1.111   .     S
C719   C720    1.406   .     A
C719   C724    1.405   .     A
C719   C113    1.491   1_565 S
C720   H752    1.081   .     S
C720   C721    1.398   .     A
C721   C722    1.397   .     A
C721   H753    1.083   .     S
C722   C723    1.398   .     A
C723   C724    1.399   .     A
C723   H756    1.082   .     S
C724   H163    1.083   1_565 S
C725   C726    1.406   .     A
C725   C1622   1.406   .     S
C726   H758    1.083   .     S
C727   C739    1.432   .     A
C727   C738    1.422   .     A
C728   H759    1.080   .     S
C728   C825    1.397   .     S
C728   C1620   1.396   .     S
C729   H760    1.082   .     S
C729   C730    1.396   .     A
C729   C1619   1.396   1_554 S
C730   H761    1.081   .     S
C730   C830    1.399   .     S
C731   H762    1.080   .     S
C731   C1616   1.406   1_554 S
C732   C733    1.404   .     A
C732   C737    1.408   .     A
C733   H763    1.083   .     S
C733   C734    1.393   .     A
C734   C735    1.398   .     A
C734   H764    1.079   .     S
C735   H766    1.081   .     S
C735   C736    1.397   .     A
C736   H767    1.082   .     S
C736   C737    1.398   .     A
C737   H768    1.083   .     S
C738   C1633   1.399   .     S
C739   C1631   1.424   .     S
C740   C741    1.413   .     A
C740   C1630   1.424   1_554 S
C741   H744    1.076   .     S
C741   C742    1.387   .     A
C742   H743    1.081   .     S
C742   C1629   1.399   1_554 S
H755   C821    1.082   .     S
H765   C803    1.087   .     S
O775   Zn792   1.929   .     S
O775   Zn791   1.927   .     S
O775   Zn789   1.962   .     S
O775   Zn790   1.953   .     S
O776   Zn790   1.925   .     S
O777   Zn792   1.940   .     S
O778   Zn791   1.938   .     S
O779   Zn789   1.924   .     S
O781   Zn789   1.939   .     S
O782   Zn792   1.939   .     S
O783   Zn790   1.918   .     S
O784   Zn791   1.933   .     S
O785   Zn792   1.930   .     S
O786   Zn789   1.916   .     S
O787   Zn790   1.944   .     S
O788   Zn791   1.940   .     S
C793   O882    1.273   .     A
C793   C803    1.436   .     S
C793   O884    1.272   .     A
C794   C838    1.427   .     A
C794   C831    1.485   .     S
C794   C795    1.394   .     A
C795   H871    1.084   .     S
C795   C1688   1.393   .     S
C796   O883    1.282   .     A
C796   C802    1.454   .     S
C796   O885    1.277   .     A
C797   C799    1.413   .     A
C797   C798    1.420   .     A
C797   C1686   1.393   1_554 S
C798   C801    1.409   .     A
C798   C839    1.427   .     A
C799   C800    1.405   .     A
C799   O879    1.393   .     S
C800   C812    1.394   .     A
C800   H870    1.082   .     S
C801   C812    1.391   .     A
C801   H869    1.078   .     S
C802   C605    1.335   1_655 S
C802   H655    1.088   1_655 S
C804   C813    1.401   .     A
C804   H872    1.084   .     S
C804   C811    1.396   .     A
C805   C808    1.454   .     S
C805   C212    1.350   1_565 S
C805   H274    1.088   1_565 S
C806   C807    1.434   .     S
C807   O886    1.274   .     A
C807   O880    1.282   .     A
C808   O881    1.256   .     A
C808   O887    1.276   .     A
C809   O877    1.272   .     A
C809   C812    1.454   .     S
C809   O875    1.278   .     A
C810   C811    1.472   .     S
C810   O876    1.282   .     A
C810   O878    1.286   .     A
C811   C815    1.392   .     A
C813   C837    1.424   .     A
C813   C824    1.488   .     S
C814   H845    1.115   .     S
C814   O879    1.415   .     S
C814   H844    1.108   .     S
C814   C618    1.532   1_655 S
C815   C826    1.407   .     A
C815   H873    1.078   .     S
C816   H847    1.111   .     S
C816   H846    1.112   .     S
C816   C817    1.525   .     S
C817   H848    1.111   .     S
C817   H849    1.111   .     S
C817   H850    1.111   .     S
C818   C819    1.406   .     A
C818   C823    1.405   .     A
C818   C212    1.491   1_565 S
C819   H851    1.081   .     S
C819   C820    1.398   .     A
C820   C821    1.397   .     A
C820   H852    1.083   .     S
C821   C822    1.398   .     A
C822   C823    1.399   .     A
C822   H855    1.082   .     S
C823   H262    1.083   1_565 S
C824   C825    1.406   .     A
C824   C1721   1.406   .     S
C825   H857    1.083   .     S
C826   C838    1.432   .     A
C826   C837    1.422   .     A
C827   H858    1.080   .     S
C827   C627    1.397   1_655 S
C827   C1719   1.396   .     S
C828   H859    1.082   .     S
C828   C829    1.396   .     A
C828   C1718   1.396   1_554 S
C829   H860    1.081   .     S
C829   C632    1.399   1_655 S
C830   H861    1.080   .     S
C830   C1715   1.406   1_554 S
C831   C832    1.404   .     A
C831   C836    1.408   .     A
C832   H862    1.083   .     S
C832   C833    1.393   .     A
C833   C834    1.398   .     A
C833   H863    1.079   .     S
C834   H865    1.081   .     S
C834   C835    1.397   .     A
C835   H866    1.082   .     S
C835   C836    1.398   .     A
C836   H867    1.083   .     S
C837   C1732   1.399   .     S
C838   C1730   1.424   .     S
C839   C840    1.413   .     A
C839   C1729   1.424   1_554 S
C840   H843    1.076   .     S
C840   C841    1.387   .     A
C841   H842    1.081   .     S
C841   C1728   1.399   1_554 S
H854   C623    1.082   1_655 S
H864   C605    1.087   1_655 S
O874   Zn891   1.929   .     S
O874   Zn890   1.927   .     S
O874   Zn888   1.962   .     S
O874   Zn889   1.953   .     S
O875   Zn889   1.925   .     S
O876   Zn891   1.940   .     S
O877   Zn890   1.938   .     S
O878   Zn888   1.924   .     S
O880   Zn888   1.939   .     S
O881   Zn891   1.939   .     S
O882   Zn889   1.918   .     S
O883   Zn890   1.933   .     S
O884   Zn891   1.930   .     S
O885   Zn888   1.916   .     S
O886   Zn889   1.944   .     S
O887   Zn890   1.940   .     S
C892   O981    1.273   .     A
C892   C902    1.436   .     S
C892   O983    1.272   .     A
C893   C937    1.427   .     A
C893   C930    1.485   .     S
C893   C894    1.394   .     A
C894   H970    1.084   .     S
C894   C5      1.393   1_556 S
C895   O982    1.282   .     A
C895   C901    1.454   .     S
C895   O984    1.277   .     A
C896   C898    1.413   .     A
C896   C897    1.420   .     A
C897   C900    1.409   .     A
C897   C938    1.427   .     A
C898   C899    1.405   .     A
C898   O978    1.393   .     S
C899   C911    1.394   .     A
C899   H969    1.082   .     S
C900   C911    1.391   .     A
C900   H968    1.078   .     S
C901   C1001   1.335   .     S
C901   H1051   1.088   .     S
C902   C1099   1.335   1_455 S
C902   H1161   1.087   1_455 S
C903   C912    1.401   .     A
C903   H971    1.084   .     S
C903   C910    1.396   .     A
C904   C907    1.454   .     S
C904   C1202   1.350   .     S
C904   H1264   1.088   .     S
C905   C906    1.434   .     S
C905   C1498   1.350   1_545 S
C905   C1511   1.491   1_545 S
C906   O985    1.274   .     A
C906   O979    1.282   .     A
C907   O980    1.256   .     A
C907   O986    1.276   .     A
C908   O976    1.272   .     A
C908   C911    1.454   .     S
C908   O974    1.278   .     A
C909   C910    1.472   .     S
C909   O975    1.282   .     A
C909   O977    1.286   .     A
C910   C914    1.392   .     A
C912   C936    1.424   .     A
C912   C923    1.488   .     S
C913   H944    1.115   .     S
C913   O978    1.415   .     S
C913   H943    1.108   .     S
C913   C1014   1.532   .     S
C914   C925    1.407   .     A
C914   H972    1.078   .     S
C915   H946    1.111   .     S
C915   H945    1.112   .     S
C915   C916    1.525   .     S
C915   C1111   1.532   1_455 S
C916   H947    1.111   .     S
C916   H948    1.111   .     S
C916   H949    1.111   .     S
C917   C918    1.406   .     A
C917   C922    1.405   .     A
C917   C1202   1.491   .     S
C918   H950    1.081   .     S
C918   C919    1.398   .     A
C919   C920    1.397   .     A
C919   H951    1.083   .     S
C920   C921    1.398   .     A
C920   H1151   1.082   1_455 S
C921   C922    1.399   .     A
C921   H954    1.082   .     S
C922   H1252   1.083   .     S
C923   C924    1.406   .     A
C923   C38     1.406   1_556 S
C924   H956    1.083   .     S
C924   C1124   1.397   1_455 S
C925   C937    1.432   .     A
C925   C936    1.422   .     A
C926   H957    1.080   .     S
C926   C1023   1.397   .     S
C926   C36     1.396   1_556 S
C927   H958    1.082   .     S
C927   C928    1.396   .     A
C928   H959    1.081   .     S
C928   C1028   1.399   .     S
C929   H960    1.080   .     S
C929   C1126   1.399   1_455 S
C930   C931    1.404   .     A
C930   C935    1.408   .     A
C931   H961    1.083   .     S
C931   C932    1.393   .     A
C932   C933    1.398   .     A
C932   H962    1.079   .     S
C933   H964    1.081   .     S
C933   C934    1.397   .     A
C934   H965    1.082   .     S
C934   C935    1.398   .     A
C935   H966    1.083   .     S
C936   C49     1.399   1_556 S
C937   C47     1.424   1_556 S
C938   C939    1.413   .     A
C939   H942    1.076   .     S
C939   C940    1.387   .     A
C940   H941    1.081   .     S
H952   C1099   1.088   1_455 S
H953   C1019   1.082   .     S
H955   C1516   1.083   1_545 S
H963   C1001   1.087   .     S
H967   C1498   1.088   1_545 S
O973   Zn990   1.929   .     S
O973   Zn989   1.927   .     S
O973   Zn987   1.962   .     S
O973   Zn988   1.953   .     S
O974   Zn988   1.925   .     S
O975   Zn990   1.940   .     S
O976   Zn989   1.938   .     S
O977   Zn987   1.924   .     S
O979   Zn987   1.939   .     S
O980   Zn990   1.939   .     S
O981   Zn988   1.918   .     S
O982   Zn989   1.933   .     S
O983   Zn990   1.930   .     S
O984   Zn987   1.916   .     S
O985   Zn988   1.944   .     S
O986   Zn989   1.940   .     S
C991   O1080   1.273   .     A
C991   C1001   1.436   .     S
C991   O1082   1.272   .     A
C992   C1036   1.427   .     A
C992   C1029   1.485   .     S
C992   C993    1.394   .     A
C993   H1069   1.084   .     S
C993   C104    1.393   1_556 S
C994   O1081   1.282   .     A
C994   C1000   1.454   .     S
C994   O1083   1.277   .     A
C995   C997    1.413   .     A
C995   C996    1.420   .     A
C996   C999    1.409   .     A
C996   C1037   1.427   .     A
C997   C998    1.405   .     A
C997   O1077   1.393   .     S
C998   C1010   1.394   .     A
C998   H1068   1.082   .     S
C999   C1010   1.391   .     A
C999   H1067   1.078   .     S
C1000  C1100   1.335   .     S
C1000  H1150   1.088   .     S
C1002  C1011   1.401   .     A
C1002  H1070   1.084   .     S
C1002  C1009   1.396   .     A
C1003  C1006   1.454   .     S
C1003  C1301   1.350   .     S
C1003  H1363   1.088   .     S
C1004  C1005   1.434   .     S
C1004  C1597   1.350   1_545 S
C1004  C1610   1.491   1_545 S
C1005  O1084   1.274   .     A
C1005  O1078   1.282   .     A
C1006  O1079   1.256   .     A
C1006  O1085   1.276   .     A
C1007  O1075   1.272   .     A
C1007  C1010   1.454   .     S
C1007  O1073   1.278   .     A
C1008  C1009   1.472   .     S
C1008  O1074   1.282   .     A
C1008  O1076   1.286   .     A
C1009  C1013   1.392   .     A
C1011  C1035   1.424   .     A
C1011  C1022   1.488   .     S
C1012  H1043   1.115   .     S
C1012  O1077   1.415   .     S
C1012  H1042   1.108   .     S
C1012  C1113   1.532   .     S
C1013  C1024   1.407   .     A
C1013  H1071   1.078   .     S
C1014  H1045   1.111   .     S
C1014  H1044   1.112   .     S
C1014  C1015   1.525   .     S
C1015  H1046   1.111   .     S
C1015  H1047   1.111   .     S
C1015  H1048   1.111   .     S
C1016  C1017   1.406   .     A
C1016  C1021   1.405   .     A
C1016  C1301   1.491   .     S
C1017  H1049   1.081   .     S
C1017  C1018   1.398   .     A
C1018  C1019   1.397   .     A
C1018  H1050   1.083   .     S
C1019  C1020   1.398   .     A
C1020  C1021   1.399   .     A
C1020  H1053   1.082   .     S
C1021  H1351   1.083   .     S
C1022  C1023   1.406   .     A
C1022  C137    1.406   1_556 S
C1023  H1055   1.083   .     S
C1024  C1036   1.432   .     A
C1024  C1035   1.422   .     A
C1025  H1056   1.080   .     S
C1025  C1122   1.397   .     S
C1025  C135    1.396   1_556 S
C1026  H1057   1.082   .     S
C1026  C1027   1.396   .     A
C1027  H1058   1.081   .     S
C1027  C1127   1.399   .     S
C1028  H1059   1.080   .     S
C1029  C1030   1.404   .     A
C1029  C1034   1.408   .     A
C1030  H1060   1.083   .     S
C1030  C1031   1.393   .     A
C1031  C1032   1.398   .     A
C1031  H1061   1.079   .     S
C1032  H1063   1.081   .     S
C1032  C1033   1.397   .     A
C1033  H1064   1.082   .     S
C1033  C1034   1.398   .     A
C1034  H1065   1.083   .     S
C1035  C148    1.399   1_556 S
C1036  C146    1.424   1_556 S
C1037  C1038   1.413   .     A
C1038  H1041   1.076   .     S
C1038  C1039   1.387   .     A
C1039  H1040   1.081   .     S
H1052  C1118   1.082   .     S
H1054  C1615   1.083   1_545 S
H1062  C1100   1.087   .     S
H1066  C1597   1.088   1_545 S
O1072  Zn1089  1.929   .     S
O1072  Zn1088  1.927   .     S
O1072  Zn1086  1.962   .     S
O1072  Zn1087  1.953   .     S
O1073  Zn1087  1.925   .     S
O1074  Zn1089  1.940   .     S
O1075  Zn1088  1.938   .     S
O1076  Zn1086  1.924   .     S
O1078  Zn1086  1.939   .     S
O1079  Zn1089  1.939   .     S
O1080  Zn1087  1.918   .     S
O1081  Zn1088  1.933   .     S
O1082  Zn1089  1.930   .     S
O1083  Zn1086  1.916   .     S
O1084  Zn1087  1.944   .     S
O1085  Zn1088  1.940   .     S
C1090  O1179   1.273   .     A
C1090  C1100   1.436   .     S
C1090  O1181   1.272   .     A
C1091  C1135   1.427   .     A
C1091  C1128   1.485   .     S
C1091  C1092   1.394   .     A
C1092  H1168   1.084   .     S
C1092  C203    1.393   1_556 S
C1093  O1180   1.282   .     A
C1093  C1099   1.454   .     S
C1093  O1182   1.277   .     A
C1094  C1096   1.413   .     A
C1094  C1095   1.420   .     A
C1095  C1098   1.409   .     A
C1095  C1136   1.427   .     A
C1096  C1097   1.405   .     A
C1096  O1176   1.393   .     S
C1097  C1109   1.394   .     A
C1097  H1167   1.082   .     S
C1098  C1109   1.391   .     A
C1098  H1166   1.078   .     S
C1099  C902    1.335   1_655 S
C1099  H952    1.088   1_655 S
C1101  C1110   1.401   .     A
C1101  H1169   1.084   .     S
C1101  C1108   1.396   .     A
C1102  C1105   1.454   .     S
C1102  C1400   1.350   .     S
C1102  H1462   1.088   .     S
C1103  C1104   1.434   .     S
C1103  C1696   1.350   1_545 S
C1103  C1709   1.491   1_545 S
C1104  O1183   1.274   .     A
C1104  O1177   1.282   .     A
C1105  O1178   1.256   .     A
C1105  O1184   1.276   .     A
C1106  O1174   1.272   .     A
C1106  C1109   1.454   .     S
C1106  O1172   1.278   .     A
C1107  C1108   1.472   .     S
C1107  O1173   1.282   .     A
C1107  O1175   1.286   .     A
C1108  C1112   1.392   .     A
C1110  C1134   1.424   .     A
C1110  C1121   1.488   .     S
C1111  H1142   1.115   .     S
C1111  O1176   1.415   .     S
C1111  H1141   1.108   .     S
C1111  C915    1.532   1_655 S
C1112  C1123   1.407   .     A
C1112  H1170   1.078   .     S
C1113  H1144   1.111   .     S
C1113  H1143   1.112   .     S
C1113  C1114   1.525   .     S
C1114  H1145   1.111   .     S
C1114  H1146   1.111   .     S
C1114  H1147   1.111   .     S
C1115  C1116   1.406   .     A
C1115  C1120   1.405   .     A
C1115  C1400   1.491   .     S
C1116  H1148   1.081   .     S
C1116  C1117   1.398   .     A
C1117  C1118   1.397   .     A
C1117  H1149   1.083   .     S
C1118  C1119   1.398   .     A
C1119  C1120   1.399   .     A
C1119  H1152   1.082   .     S
C1120  H1450   1.083   .     S
C1121  C1122   1.406   .     A
C1121  C236    1.406   1_556 S
C1122  H1154   1.083   .     S
C1123  C1135   1.432   .     A
C1123  C1134   1.422   .     A
C1124  H1155   1.080   .     S
C1124  C924    1.397   1_655 S
C1124  C234    1.396   1_556 S
C1125  H1156   1.082   .     S
C1125  C1126   1.396   .     A
C1126  H1157   1.081   .     S
C1126  C929    1.399   1_655 S
C1127  H1158   1.080   .     S
C1128  C1129   1.404   .     A
C1128  C1133   1.408   .     A
C1129  H1159   1.083   .     S
C1129  C1130   1.393   .     A
C1130  C1131   1.398   .     A
C1130  H1160   1.079   .     S
C1131  H1162   1.081   .     S
C1131  C1132   1.397   .     A
C1132  H1163   1.082   .     S
C1132  C1133   1.398   .     A
C1133  H1164   1.083   .     S
C1134  C247    1.399   1_556 S
C1135  C245    1.424   1_556 S
C1136  C1137   1.413   .     A
C1137  H1140   1.076   .     S
C1137  C1138   1.387   .     A
C1138  H1139   1.081   .     S
H1151  C920    1.082   1_655 S
H1153  C1714   1.083   1_545 S
H1161  C902    1.087   1_655 S
H1165  C1696   1.088   1_545 S
O1171  Zn1188  1.929   .     S
O1171  Zn1187  1.927   .     S
O1171  Zn1185  1.962   .     S
O1171  Zn1186  1.953   .     S
O1172  Zn1186  1.925   .     S
O1173  Zn1188  1.940   .     S
O1174  Zn1187  1.938   .     S
O1175  Zn1185  1.924   .     S
O1177  Zn1185  1.939   .     S
O1178  Zn1188  1.939   .     S
O1179  Zn1186  1.918   .     S
O1180  Zn1187  1.933   .     S
O1181  Zn1188  1.930   .     S
O1182  Zn1185  1.916   .     S
O1183  Zn1186  1.944   .     S
O1184  Zn1187  1.940   .     S
C1189  O1278   1.273   .     A
C1189  C1199   1.436   .     S
C1189  O1280   1.272   .     A
C1190  C1234   1.427   .     A
C1190  C1227   1.485   .     S
C1190  C1191   1.394   .     A
C1191  H1267   1.084   .     S
C1191  C302    1.393   1_556 S
C1192  O1279   1.282   .     A
C1192  C1198   1.454   .     S
C1192  O1281   1.277   .     A
C1193  C1195   1.413   .     A
C1193  C1194   1.420   .     A
C1194  C1197   1.409   .     A
C1194  C1235   1.427   .     A
C1195  C1196   1.405   .     A
C1195  O1275   1.393   .     S
C1196  C1208   1.394   .     A
C1196  H1266   1.082   .     S
C1197  C1208   1.391   .     A
C1197  H1265   1.078   .     S
C1198  C1298   1.335   .     S
C1198  H1348   1.088   .     S
C1199  C1396   1.335   1_455 S
C1199  H1458   1.087   1_455 S
C1200  C1209   1.401   .     A
C1200  H1268   1.084   .     S
C1200  C1207   1.396   .     A
C1201  C1204   1.454   .     S
C1201  C1499   1.350   .     S
C1201  H1561   1.088   .     S
C1202  C1203   1.434   .     S
C1203  O1282   1.274   .     A
C1203  O1276   1.282   .     A
C1204  O1277   1.256   .     A
C1204  O1283   1.276   .     A
C1205  O1273   1.272   .     A
C1205  C1208   1.454   .     S
C1205  O1271   1.278   .     A
C1206  C1207   1.472   .     S
C1206  O1272   1.282   .     A
C1206  O1274   1.286   .     A
C1207  C1211   1.392   .     A
C1209  C1233   1.424   .     A
C1209  C1220   1.488   .     S
C1210  H1241   1.115   .     S
C1210  O1275   1.415   .     S
C1210  H1240   1.108   .     S
C1210  C1311   1.532   .     S
C1211  C1222   1.407   .     A
C1211  H1269   1.078   .     S
C1212  H1243   1.111   .     S
C1212  H1242   1.112   .     S
C1212  C1213   1.525   .     S
C1212  C1408   1.532   1_455 S
C1213  H1244   1.111   .     S
C1213  H1245   1.111   .     S
C1213  H1246   1.111   .     S
C1214  C1215   1.406   .     A
C1214  C1219   1.405   .     A
C1214  C1499   1.491   .     S
C1215  H1247   1.081   .     S
C1215  C1216   1.398   .     A
C1216  C1217   1.397   .     A
C1216  H1248   1.083   .     S
C1217  C1218   1.398   .     A
C1217  H1448   1.082   1_455 S
C1218  C1219   1.399   .     A
C1218  H1251   1.082   .     S
C1219  H1549   1.083   .     S
C1220  C1221   1.406   .     A
C1220  C335    1.406   1_556 S
C1221  H1253   1.083   .     S
C1221  C1421   1.397   1_455 S
C1222  C1234   1.432   .     A
C1222  C1233   1.422   .     A
C1223  H1254   1.080   .     S
C1223  C1320   1.397   .     S
C1223  C333    1.396   1_556 S
C1224  H1255   1.082   .     S
C1224  C1225   1.396   .     A
C1225  H1256   1.081   .     S
C1225  C1325   1.399   .     S
C1226  H1257   1.080   .     S
C1226  C1423   1.399   1_455 S
C1227  C1228   1.404   .     A
C1227  C1232   1.408   .     A
C1228  H1258   1.083   .     S
C1228  C1229   1.393   .     A
C1229  C1230   1.398   .     A
C1229  H1259   1.079   .     S
C1230  H1261   1.081   .     S
C1230  C1231   1.397   .     A
C1231  H1262   1.082   .     S
C1231  C1232   1.398   .     A
C1232  H1263   1.083   .     S
C1233  C346    1.399   1_556 S
C1234  C344    1.424   1_556 S
C1235  C1236   1.413   .     A
C1236  H1239   1.076   .     S
C1236  C1237   1.387   .     A
C1237  H1238   1.081   .     S
H1249  C1396   1.088   1_455 S
H1250  C1316   1.082   .     S
H1260  C1298   1.087   .     S
O1270  Zn1287  1.929   .     S
O1270  Zn1286  1.927   .     S
O1270  Zn1284  1.962   .     S
O1270  Zn1285  1.953   .     S
O1271  Zn1285  1.925   .     S
O1272  Zn1287  1.940   .     S
O1273  Zn1286  1.938   .     S
O1274  Zn1284  1.924   .     S
O1276  Zn1284  1.939   .     S
O1277  Zn1287  1.939   .     S
O1278  Zn1285  1.918   .     S
O1279  Zn1286  1.933   .     S
O1280  Zn1287  1.930   .     S
O1281  Zn1284  1.916   .     S
O1282  Zn1285  1.944   .     S
O1283  Zn1286  1.940   .     S
C1288  O1377   1.273   .     A
C1288  C1298   1.436   .     S
C1288  O1379   1.272   .     A
C1289  C1333   1.427   .     A
C1289  C1326   1.485   .     S
C1289  C1290   1.394   .     A
C1290  H1366   1.084   .     S
C1290  C401    1.393   1_556 S
C1291  O1378   1.282   .     A
C1291  C1297   1.454   .     S
C1291  O1380   1.277   .     A
C1292  C1294   1.413   .     A
C1292  C1293   1.420   .     A
C1293  C1296   1.409   .     A
C1293  C1334   1.427   .     A
C1294  C1295   1.405   .     A
C1294  O1374   1.393   .     S
C1295  C1307   1.394   .     A
C1295  H1365   1.082   .     S
C1296  C1307   1.391   .     A
C1296  H1364   1.078   .     S
C1297  C1397   1.335   .     S
C1297  H1447   1.088   .     S
C1299  C1308   1.401   .     A
C1299  H1367   1.084   .     S
C1299  C1306   1.396   .     A
C1300  C1303   1.454   .     S
C1300  C1598   1.350   .     S
C1300  H1660   1.088   .     S
C1301  C1302   1.434   .     S
C1302  O1381   1.274   .     A
C1302  O1375   1.282   .     A
C1303  O1376   1.256   .     A
C1303  O1382   1.276   .     A
C1304  O1372   1.272   .     A
C1304  C1307   1.454   .     S
C1304  O1370   1.278   .     A
C1305  C1306   1.472   .     S
C1305  O1371   1.282   .     A
C1305  O1373   1.286   .     A
C1306  C1310   1.392   .     A
C1308  C1332   1.424   .     A
C1308  C1319   1.488   .     S
C1309  H1340   1.115   .     S
C1309  O1374   1.415   .     S
C1309  H1339   1.108   .     S
C1309  C1410   1.532   .     S
C1310  C1321   1.407   .     A
C1310  H1368   1.078   .     S
C1311  H1342   1.111   .     S
C1311  H1341   1.112   .     S
C1311  C1312   1.525   .     S
C1312  H1343   1.111   .     S
C1312  H1344   1.111   .     S
C1312  H1345   1.111   .     S
C1313  C1314   1.406   .     A
C1313  C1318   1.405   .     A
C1313  C1598   1.491   .     S
C1314  H1346   1.081   .     S
C1314  C1315   1.398   .     A
C1315  C1316   1.397   .     A
C1315  H1347   1.083   .     S
C1316  C1317   1.398   .     A
C1317  C1318   1.399   .     A
C1317  H1350   1.082   .     S
C1318  H1648   1.083   .     S
C1319  C1320   1.406   .     A
C1319  C434    1.406   1_556 S
C1320  H1352   1.083   .     S
C1321  C1333   1.432   .     A
C1321  C1332   1.422   .     A
C1322  H1353   1.080   .     S
C1322  C1419   1.397   .     S
C1322  C432    1.396   1_556 S
C1323  H1354   1.082   .     S
C1323  C1324   1.396   .     A
C1324  H1355   1.081   .     S
C1324  C1424   1.399   .     S
C1325  H1356   1.080   .     S
C1326  C1327   1.404   .     A
C1326  C1331   1.408   .     A
C1327  H1357   1.083   .     S
C1327  C1328   1.393   .     A
C1328  C1329   1.398   .     A
C1328  H1358   1.079   .     S
C1329  H1360   1.081   .     S
C1329  C1330   1.397   .     A
C1330  H1361   1.082   .     S
C1330  C1331   1.398   .     A
C1331  H1362   1.083   .     S
C1332  C445    1.399   1_556 S
C1333  C443    1.424   1_556 S
C1334  C1335   1.413   .     A
C1335  H1338   1.076   .     S
C1335  C1336   1.387   .     A
C1336  H1337   1.081   .     S
H1349  C1415   1.082   .     S
H1359  C1397   1.087   .     S
O1369  Zn1386  1.929   .     S
O1369  Zn1385  1.927   .     S
O1369  Zn1383  1.962   .     S
O1369  Zn1384  1.953   .     S
O1370  Zn1384  1.925   .     S
O1371  Zn1386  1.940   .     S
O1372  Zn1385  1.938   .     S
O1373  Zn1383  1.924   .     S
O1375  Zn1383  1.939   .     S
O1376  Zn1386  1.939   .     S
O1377  Zn1384  1.918   .     S
O1378  Zn1385  1.933   .     S
O1379  Zn1386  1.930   .     S
O1380  Zn1383  1.916   .     S
O1381  Zn1384  1.944   .     S
O1382  Zn1385  1.940   .     S
C1387  O1476   1.273   .     A
C1387  C1397   1.436   .     S
C1387  O1478   1.272   .     A
C1388  C1432   1.427   .     A
C1388  C1425   1.485   .     S
C1388  C1389   1.394   .     A
C1389  H1465   1.084   .     S
C1389  C500    1.393   1_556 S
C1390  O1477   1.282   .     A
C1390  C1396   1.454   .     S
C1390  O1479   1.277   .     A
C1391  C1393   1.413   .     A
C1391  C1392   1.420   .     A
C1392  C1395   1.409   .     A
C1392  C1433   1.427   .     A
C1393  C1394   1.405   .     A
C1393  O1473   1.393   .     S
C1394  C1406   1.394   .     A
C1394  H1464   1.082   .     S
C1395  C1406   1.391   .     A
C1395  H1463   1.078   .     S
C1396  C1199   1.335   1_655 S
C1396  H1249   1.088   1_655 S
C1398  C1407   1.401   .     A
C1398  H1466   1.084   .     S
C1398  C1405   1.396   .     A
C1399  C1402   1.454   .     S
C1399  C1697   1.350   .     S
C1399  H1759   1.088   .     S
C1400  C1401   1.434   .     S
C1401  O1480   1.274   .     A
C1401  O1474   1.282   .     A
C1402  O1475   1.256   .     A
C1402  O1481   1.276   .     A
C1403  O1471   1.272   .     A
C1403  C1406   1.454   .     S
C1403  O1469   1.278   .     A
C1404  C1405   1.472   .     S
C1404  O1470   1.282   .     A
C1404  O1472   1.286   .     A
C1405  C1409   1.392   .     A
C1407  C1431   1.424   .     A
C1407  C1418   1.488   .     S
C1408  H1439   1.115   .     S
C1408  O1473   1.415   .     S
C1408  H1438   1.108   .     S
C1408  C1212   1.532   1_655 S
C1409  C1420   1.407   .     A
C1409  H1467   1.078   .     S
C1410  H1441   1.111   .     S
C1410  H1440   1.112   .     S
C1410  C1411   1.525   .     S
C1411  H1442   1.111   .     S
C1411  H1443   1.111   .     S
C1411  H1444   1.111   .     S
C1412  C1413   1.406   .     A
C1412  C1417   1.405   .     A
C1412  C1697   1.491   .     S
C1413  H1445   1.081   .     S
C1413  C1414   1.398   .     A
C1414  C1415   1.397   .     A
C1414  H1446   1.083   .     S
C1415  C1416   1.398   .     A
C1416  C1417   1.399   .     A
C1416  H1449   1.082   .     S
C1417  H1747   1.083   .     S
C1418  C1419   1.406   .     A
C1418  C533    1.406   1_556 S
C1419  H1451   1.083   .     S
C1420  C1432   1.432   .     A
C1420  C1431   1.422   .     A
C1421  H1452   1.080   .     S
C1421  C1221   1.397   1_655 S
C1421  C531    1.396   1_556 S
C1422  H1453   1.082   .     S
C1422  C1423   1.396   .     A
C1423  H1454   1.081   .     S
C1423  C1226   1.399   1_655 S
C1424  H1455   1.080   .     S
C1425  C1426   1.404   .     A
C1425  C1430   1.408   .     A
C1426  H1456   1.083   .     S
C1426  C1427   1.393   .     A
C1427  C1428   1.398   .     A
C1427  H1457   1.079   .     S
C1428  H1459   1.081   .     S
C1428  C1429   1.397   .     A
C1429  H1460   1.082   .     S
C1429  C1430   1.398   .     A
C1430  H1461   1.083   .     S
C1431  C544    1.399   1_556 S
C1432  C542    1.424   1_556 S
C1433  C1434   1.413   .     A
C1434  H1437   1.076   .     S
C1434  C1435   1.387   .     A
C1435  H1436   1.081   .     S
H1448  C1217   1.082   1_655 S
H1458  C1199   1.087   1_655 S
O1468  Zn1485  1.929   .     S
O1468  Zn1484  1.927   .     S
O1468  Zn1482  1.962   .     S
O1468  Zn1483  1.953   .     S
O1469  Zn1483  1.925   .     S
O1470  Zn1485  1.940   .     S
O1471  Zn1484  1.938   .     S
O1472  Zn1482  1.924   .     S
O1474  Zn1482  1.939   .     S
O1475  Zn1485  1.939   .     S
O1476  Zn1483  1.918   .     S
O1477  Zn1484  1.933   .     S
O1478  Zn1485  1.930   .     S
O1479  Zn1482  1.916   .     S
O1480  Zn1483  1.944   .     S
O1481  Zn1484  1.940   .     S
C1486  O1575   1.273   .     A
C1486  C1496   1.436   .     S
C1486  O1577   1.272   .     A
C1487  C1531   1.427   .     A
C1487  C1524   1.485   .     S
C1487  C1488   1.394   .     A
C1488  H1564   1.084   .     S
C1488  C599    1.393   1_556 S
C1489  O1576   1.282   .     A
C1489  C1495   1.454   .     S
C1489  O1578   1.277   .     A
C1490  C1492   1.413   .     A
C1490  C1491   1.420   .     A
C1491  C1494   1.409   .     A
C1491  C1532   1.427   .     A
C1492  C1493   1.405   .     A
C1492  O1572   1.393   .     S
C1493  C1505   1.394   .     A
C1493  H1563   1.082   .     S
C1494  C1505   1.391   .     A
C1494  H1562   1.078   .     S
C1495  C1595   1.335   .     S
C1495  H1645   1.088   .     S
C1496  C1693   1.335   1_455 S
C1496  H1755   1.087   1_455 S
C1497  C1506   1.401   .     A
C1497  H1565   1.084   .     S
C1497  C1504   1.396   .     A
C1498  C1501   1.454   .     S
C1498  C905    1.350   1_565 S
C1498  H967    1.088   1_565 S
C1499  C1500   1.434   .     S
C1500  O1579   1.274   .     A
C1500  O1573   1.282   .     A
C1501  O1574   1.256   .     A
C1501  O1580   1.276   .     A
C1502  O1570   1.272   .     A
C1502  C1505   1.454   .     S
C1502  O1568   1.278   .     A
C1503  C1504   1.472   .     S
C1503  O1569   1.282   .     A
C1503  O1571   1.286   .     A
C1504  C1508   1.392   .     A
C1506  C1530   1.424   .     A
C1506  C1517   1.488   .     S
C1507  H1538   1.115   .     S
C1507  O1572   1.415   .     S
C1507  H1537   1.108   .     S
C1507  C1608   1.532   .     S
C1508  C1519   1.407   .     A
C1508  H1566   1.078   .     S
C1509  H1540   1.111   .     S
C1509  H1539   1.112   .     S
C1509  C1510   1.525   .     S
C1509  C1705   1.532   1_455 S
C1510  H1541   1.111   .     S
C1510  H1542   1.111   .     S
C1510  H1543   1.111   .     S
C1511  C1512   1.406   .     A
C1511  C1516   1.405   .     A
C1511  C905    1.491   1_565 S
C1512  H1544   1.081   .     S
C1512  C1513   1.398   .     A
C1513  C1514   1.397   .     A
C1513  H1545   1.083   .     S
C1514  C1515   1.398   .     A
C1514  H1745   1.082   1_455 S
C1515  C1516   1.399   .     A
C1515  H1548   1.082   .     S
C1516  H955    1.083   1_565 S
C1517  C1518   1.406   .     A
C1517  C632    1.406   1_556 S
C1518  H1550   1.083   .     S
C1518  C1718   1.397   1_455 S
C1519  C1531   1.432   .     A
C1519  C1530   1.422   .     A
C1520  H1551   1.080   .     S
C1520  C1617   1.397   .     S
C1520  C630    1.396   1_556 S
C1521  H1552   1.082   .     S
C1521  C1522   1.396   .     A
C1522  H1553   1.081   .     S
C1522  C1622   1.399   .     S
C1523  H1554   1.080   .     S
C1523  C1720   1.399   1_455 S
C1524  C1525   1.404   .     A
C1524  C1529   1.408   .     A
C1525  H1555   1.083   .     S
C1525  C1526   1.393   .     A
C1526  C1527   1.398   .     A
C1526  H1556   1.079   .     S
C1527  H1558   1.081   .     S
C1527  C1528   1.397   .     A
C1528  H1559   1.082   .     S
C1528  C1529   1.398   .     A
C1529  H1560   1.083   .     S
C1530  C643    1.399   1_556 S
C1531  C641    1.424   1_556 S
C1532  C1533   1.413   .     A
C1533  H1536   1.076   .     S
C1533  C1534   1.387   .     A
C1534  H1535   1.081   .     S
H1546  C1693   1.088   1_455 S
H1547  C1613   1.082   .     S
H1557  C1595   1.087   .     S
O1567  Zn1584  1.929   .     S
O1567  Zn1583  1.927   .     S
O1567  Zn1581  1.962   .     S
O1567  Zn1582  1.953   .     S
O1568  Zn1582  1.925   .     S
O1569  Zn1584  1.940   .     S
O1570  Zn1583  1.938   .     S
O1571  Zn1581  1.924   .     S
O1573  Zn1581  1.939   .     S
O1574  Zn1584  1.939   .     S
O1575  Zn1582  1.918   .     S
O1576  Zn1583  1.933   .     S
O1577  Zn1584  1.930   .     S
O1578  Zn1581  1.916   .     S
O1579  Zn1582  1.944   .     S
O1580  Zn1583  1.940   .     S
C1585  O1674   1.273   .     A
C1585  C1595   1.436   .     S
C1585  O1676   1.272   .     A
C1586  C1630   1.427   .     A
C1586  C1623   1.485   .     S
C1586  C1587   1.394   .     A
C1587  H1663   1.084   .     S
C1587  C698    1.393   1_556 S
C1588  O1675   1.282   .     A
C1588  C1594   1.454   .     S
C1588  O1677   1.277   .     A
C1589  C1591   1.413   .     A
C1589  C1590   1.420   .     A
C1590  C1593   1.409   .     A
C1590  C1631   1.427   .     A
C1591  C1592   1.405   .     A
C1591  O1671   1.393   .     S
C1592  C1604   1.394   .     A
C1592  H1662   1.082   .     S
C1593  C1604   1.391   .     A
C1593  H1661   1.078   .     S
C1594  C1694   1.335   .     S
C1594  H1744   1.088   .     S
C1596  C1605   1.401   .     A
C1596  H1664   1.084   .     S
C1596  C1603   1.396   .     A
C1597  C1600   1.454   .     S
C1597  C1004   1.350   1_565 S
C1597  H1066   1.088   1_565 S
C1598  C1599   1.434   .     S
C1599  O1678   1.274   .     A
C1599  O1672   1.282   .     A
C1600  O1673   1.256   .     A
C1600  O1679   1.276   .     A
C1601  O1669   1.272   .     A
C1601  C1604   1.454   .     S
C1601  O1667   1.278   .     A
C1602  C1603   1.472   .     S
C1602  O1668   1.282   .     A
C1602  O1670   1.286   .     A
C1603  C1607   1.392   .     A
C1605  C1629   1.424   .     A
C1605  C1616   1.488   .     S
C1606  H1637   1.115   .     S
C1606  O1671   1.415   .     S
C1606  H1636   1.108   .     S
C1606  C1707   1.532   .     S
C1607  C1618   1.407   .     A
C1607  H1665   1.078   .     S
C1608  H1639   1.111   .     S
C1608  H1638   1.112   .     S
C1608  C1609   1.525   .     S
C1609  H1640   1.111   .     S
C1609  H1641   1.111   .     S
C1609  H1642   1.111   .     S
C1610  C1611   1.406   .     A
C1610  C1615   1.405   .     A
C1610  C1004   1.491   1_565 S
C1611  H1643   1.081   .     S
C1611  C1612   1.398   .     A
C1612  C1613   1.397   .     A
C1612  H1644   1.083   .     S
C1613  C1614   1.398   .     A
C1614  C1615   1.399   .     A
C1614  H1647   1.082   .     S
C1615  H1054   1.083   1_565 S
C1616  C1617   1.406   .     A
C1616  C731    1.406   1_556 S
C1617  H1649   1.083   .     S
C1618  C1630   1.432   .     A
C1618  C1629   1.422   .     A
C1619  H1650   1.080   .     S
C1619  C1716   1.397   .     S
C1619  C729    1.396   1_556 S
C1620  H1651   1.082   .     S
C1620  C1621   1.396   .     A
C1621  H1652   1.081   .     S
C1621  C1721   1.399   .     S
C1622  H1653   1.080   .     S
C1623  C1624   1.404   .     A
C1623  C1628   1.408   .     A
C1624  H1654   1.083   .     S
C1624  C1625   1.393   .     A
C1625  C1626   1.398   .     A
C1625  H1655   1.079   .     S
C1626  H1657   1.081   .     S
C1626  C1627   1.397   .     A
C1627  H1658   1.082   .     S
C1627  C1628   1.398   .     A
C1628  H1659   1.083   .     S
C1629  C742    1.399   1_556 S
C1630  C740    1.424   1_556 S
C1631  C1632   1.413   .     A
C1632  H1635   1.076   .     S
C1632  C1633   1.387   .     A
C1633  H1634   1.081   .     S
H1646  C1712   1.082   .     S
H1656  C1694   1.087   .     S
O1666  Zn1683  1.929   .     S
O1666  Zn1682  1.927   .     S
O1666  Zn1680  1.962   .     S
O1666  Zn1681  1.953   .     S
O1667  Zn1681  1.925   .     S
O1668  Zn1683  1.940   .     S
O1669  Zn1682  1.938   .     S
O1670  Zn1680  1.924   .     S
O1672  Zn1680  1.939   .     S
O1673  Zn1683  1.939   .     S
O1674  Zn1681  1.918   .     S
O1675  Zn1682  1.933   .     S
O1676  Zn1683  1.930   .     S
O1677  Zn1680  1.916   .     S
O1678  Zn1681  1.944   .     S
O1679  Zn1682  1.940   .     S
C1684  O1773   1.273   .     A
C1684  C1694   1.436   .     S
C1684  O1775   1.272   .     A
C1685  C1729   1.427   .     A
C1685  C1722   1.485   .     S
C1685  C1686   1.394   .     A
C1686  H1762   1.084   .     S
C1686  C797    1.393   1_556 S
C1687  O1774   1.282   .     A
C1687  C1693   1.454   .     S
C1687  O1776   1.277   .     A
C1688  C1690   1.413   .     A
C1688  C1689   1.420   .     A
C1689  C1692   1.409   .     A
C1689  C1730   1.427   .     A
C1690  C1691   1.405   .     A
C1690  O1770   1.393   .     S
C1691  C1703   1.394   .     A
C1691  H1761   1.082   .     S
C1692  C1703   1.391   .     A
C1692  H1760   1.078   .     S
C1693  C1496   1.335   1_655 S
C1693  H1546   1.088   1_655 S
C1695  C1704   1.401   .     A
C1695  H1763   1.084   .     S
C1695  C1702   1.396   .     A
C1696  C1699   1.454   .     S
C1696  C1103   1.350   1_565 S
C1696  H1165   1.088   1_565 S
C1697  C1698   1.434   .     S
C1698  O1777   1.274   .     A
C1698  O1771   1.282   .     A
C1699  O1772   1.256   .     A
C1699  O1778   1.276   .     A
C1700  O1768   1.272   .     A
C1700  C1703   1.454   .     S
C1700  O1766   1.278   .     A
C1701  C1702   1.472   .     S
C1701  O1767   1.282   .     A
C1701  O1769   1.286   .     A
C1702  C1706   1.392   .     A
C1704  C1728   1.424   .     A
C1704  C1715   1.488   .     S
C1705  H1736   1.115   .     S
C1705  O1770   1.415   .     S
C1705  H1735   1.108   .     S
C1705  C1509   1.532   1_655 S
C1706  C1717   1.407   .     A
C1706  H1764   1.078   .     S
C1707  H1738   1.111   .     S
C1707  H1737   1.112   .     S
C1707  C1708   1.525   .     S
C1708  H1739   1.111   .     S
C1708  H1740   1.111   .     S
C1708  H1741   1.111   .     S
C1709  C1710   1.406   .     A
C1709  C1714   1.405   .     A
C1709  C1103   1.491   1_565 S
C1710  H1742   1.081   .     S
C1710  C1711   1.398   .     A
C1711  C1712   1.397   .     A
C1711  H1743   1.083   .     S
C1712  C1713   1.398   .     A
C1713  C1714   1.399   .     A
C1713  H1746   1.082   .     S
C1714  H1153   1.083   1_565 S
C1715  C1716   1.406   .     A
C1715  C830    1.406   1_556 S
C1716  H1748   1.083   .     S
C1717  C1729   1.432   .     A
C1717  C1728   1.422   .     A
C1718  H1749   1.080   .     S
C1718  C1518   1.397   1_655 S
C1718  C828    1.396   1_556 S
C1719  H1750   1.082   .     S
C1719  C1720   1.396   .     A
C1720  H1751   1.081   .     S
C1720  C1523   1.399   1_655 S
C1721  H1752   1.080   .     S
C1722  C1723   1.404   .     A
C1722  C1727   1.408   .     A
C1723  H1753   1.083   .     S
C1723  C1724   1.393   .     A
C1724  C1725   1.398   .     A
C1724  H1754   1.079   .     S
C1725  H1756   1.081   .     S
C1725  C1726   1.397   .     A
C1726  H1757   1.082   .     S
C1726  C1727   1.398   .     A
C1727  H1758   1.083   .     S
C1728  C841    1.399   1_556 S
C1729  C839    1.424   1_556 S
C1730  C1731   1.413   .     A
C1731  H1734   1.076   .     S
C1731  C1732   1.387   .     A
C1732  H1733   1.081   .     S
H1745  C1514   1.082   1_655 S
H1755  C1496   1.087   1_655 S
O1765  Zn1782  1.929   .     S
O1765  Zn1781  1.927   .     S
O1765  Zn1779  1.962   .     S
O1765  Zn1780  1.953   .     S
O1766  Zn1780  1.925   .     S
O1767  Zn1782  1.940   .     S
O1768  Zn1781  1.938   .     S
O1769  Zn1779  1.924   .     S
O1771  Zn1779  1.939   .     S
O1772  Zn1782  1.939   .     S
O1773  Zn1780  1.918   .     S
O1774  Zn1781  1.933   .     S
O1775  Zn1782  1.930   .     S
O1776  Zn1779  1.916   .     S
O1777  Zn1780  1.944   .     S
O1778  Zn1781  1.940   .     S
