data_str_m1_o10_o18_pcu_sym.191
_audit_creation_date              2020-01-03
_audit_creation_method            'Materials Studio'
_symmetry_space_group_name_H-M    'P1'
_symmetry_Int_Tables_number       1
_symmetry_cell_setting            triclinic
loop_
_symmetry_equiv_pos_as_xyz
  x,y,z
_cell_length_a                    32.6634
_cell_length_b                    32.5375
_cell_length_c                    35.4469
_cell_angle_alpha                 98.1292
_cell_angle_beta                  73.5598
_cell_angle_gamma                 98.0768
loop_
_atom_site_label
_atom_site_type_symbol
_atom_site_fract_x
_atom_site_fract_y
_atom_site_fract_z
_atom_site_U_iso_or_equiv
_atom_site_adp_type
_atom_site_occupancy
C1     C     0.05270   0.16004   0.25858   0.00000  Uiso   1.00
C2     C     0.19639   0.11931   0.45766   0.00000  Uiso   1.00
C3     C     0.22288   0.10799   0.47834   0.00000  Uiso   1.00
C4     C     0.28090   0.17340   0.24156   0.00000  Uiso   1.00
C5     C     0.21384   0.11685   0.01925   0.00000  Uiso   1.00
C6     C     0.17525   0.13386   0.04072   0.00000  Uiso   1.00
C7     C     0.24299   0.10851   0.03891   0.00000  Uiso   1.00
C8     C     0.23537   0.11877   0.07987   0.00000  Uiso   1.00
C9     C     0.16824   0.14402   0.08186   0.00000  Uiso   1.00
C10    C     0.32649   0.17445   0.23819   0.00000  Uiso   1.00
C11    C     0.00706   0.15643   0.26350   0.00000  Uiso   1.00
C12    C     0.08856   0.19651   0.41966   0.00000  Uiso   1.00
C13    C     0.17741   0.32163   0.23700   0.00000  Uiso   1.00
C14    C     0.15063   0.01263   0.26428   0.00000  Uiso   1.00
C15    C     0.15590   0.05637   0.25921   0.00000  Uiso   1.00
C16    C     0.17639   0.27759   0.24142   0.00000  Uiso   1.00
C17    C     0.18787   0.14544   0.14401   0.00000  Uiso   1.00
C18    C     0.14536   0.18737   0.35632   0.00000  Uiso   1.00
C19    C     0.13068   0.18863   0.39963   0.00000  Uiso   1.00
C20    C     0.19736   0.13571   0.10121   0.00000  Uiso   1.00
C21    C     0.07219   0.19014   0.45936   0.00000  Uiso   1.00
C22    C     0.31892   0.09979   0.30019   0.00000  Uiso   1.00
C23    C     0.15693   0.17573   0.42014   0.00000  Uiso   1.00
C24    C     0.29538   0.06832   0.27487   0.00000  Uiso   1.00
C25    C     0.30310   0.02361   0.27698   0.00000  Uiso   1.00
C26    C     0.19104   0.32755   0.17122   0.00000  Uiso   1.00
C27    C     0.21889   0.01902   0.13788   0.00000  Uiso   1.00
C28    C     0.20293   0.00899   0.10074   0.00000  Uiso   1.00
C29    C     0.08674   0.01866   0.31546   0.00000  Uiso   1.00
C30    C     0.09158   0.04923   0.35148   0.00000  Uiso   1.00
C31    C     0.05490   0.07677   0.36614   0.00000  Uiso   1.00
C32    C     0.30236   0.13475   0.08886   0.00000  Uiso   1.00
C33    C     0.21956   0.21708   0.41650   0.00000  Uiso   1.00
C34    C     0.13856   0.16276   0.45847   0.00000  Uiso   1.00
C35    C     0.07129   0.09668   0.07533   0.00000  Uiso   1.00
C36    C     0.18648   0.06448   0.41223   0.00000  Uiso   1.00
C37    C     0.20404   0.04739   0.36904   0.00000  Uiso   1.00
C38    C     0.18893   0.00116   0.36147   0.00000  Uiso   1.00
C39    C     0.09668   0.17314   0.47882   0.00000  Uiso   1.00
C40    C     0.16118   0.14226   0.47810   0.00000  Uiso   1.00
C41    C     0.14643   0.14250   0.01994   0.00000  Uiso   1.00
C42    C     0.10313   0.15026   0.03888   0.00000  Uiso   1.00
C43    C     0.07929   0.16598   0.01828   0.00000  Uiso   1.00
H44    H     0.04685   0.17284   0.03348   0.00000  Uiso   1.00
H45    H     0.26039   0.07124   0.28544   0.00000  Uiso   1.00
H46    H     0.30676   0.07508   0.24351   0.00000  Uiso   1.00
H47    H     0.00440   0.01954   0.26470   0.00000  Uiso   1.00
H48    H     0.28458   0.00160   0.25937   0.00000  Uiso   1.00
H49    H     0.29254   0.01593   0.30804   0.00000  Uiso   1.00
H50    H     0.15728   0.00167   0.17747   0.00000  Uiso   1.00
H51    H     0.19242   0.29362   0.16128   0.00000  Uiso   1.00
H52    H     0.21818   0.05292   0.14788   0.00000  Uiso   1.00
H53    H     0.25260   0.01154   0.13073   0.00000  Uiso   1.00
H54    H     0.20226   0.30834   0.09082   0.00000  Uiso   1.00
H55    H     0.27171   0.09418   0.02245   0.00000  Uiso   1.00
H56    H     0.22484   0.02612   0.07660   0.00000  Uiso   1.00
H57    H     0.17021   0.01865   0.10667   0.00000  Uiso   1.00
H58    H     0.05941   0.32812   0.32574   0.00000  Uiso   1.00
H59    H     0.07743   0.03435   0.29360   0.00000  Uiso   1.00
H60    H     0.09201   0.03132   0.37579   0.00000  Uiso   1.00
H61    H     0.12222   0.06968   0.34398   0.00000  Uiso   1.00
H62    H     0.05635   0.09781   0.34362   0.00000  Uiso   1.00
H63    H     0.05796   0.09634   0.39374   0.00000  Uiso   1.00
H64    H     0.02342   0.05734   0.37240   0.00000  Uiso   1.00
H65    H     0.29770   0.16830   0.09041   0.00000  Uiso   1.00
H66    H     0.01601   0.18923   0.21387   0.00000  Uiso   1.00
H67    H     0.32126   0.12340   0.05883   0.00000  Uiso   1.00
H68    H     0.32123   0.13253   0.10990   0.00000  Uiso   1.00
H69    H     0.21471   0.22025   0.44911   0.00000  Uiso   1.00
H70    H     0.20688   0.24335   0.40787   0.00000  Uiso   1.00
H71    H     0.25464   0.21924   0.40243   0.00000  Uiso   1.00
H72    H     0.10037   0.07976   0.06727   0.00000  Uiso   1.00
H73    H     0.05129   0.08527   0.05446   0.00000  Uiso   1.00
H74    H     0.05213   0.08909   0.10522   0.00000  Uiso   1.00
H75    H     0.15090   0.06330   0.41929   0.00000  Uiso   1.00
H76    H     0.19497   0.04420   0.43118   0.00000  Uiso   1.00
H77    H     0.14164   0.16060   0.09936   0.00000  Uiso   1.00
H78    H     0.19380   0.06547   0.34962   0.00000  Uiso   1.00
H79    H     0.23963   0.05128   0.36145   0.00000  Uiso   1.00
H80    H     0.20156   0.31571   0.37866   0.00000  Uiso   1.00
H81    H     0.20098   0.32381   0.32951   0.00000  Uiso   1.00
H82    H     0.15337   0.32917   0.37003   0.00000  Uiso   1.00
H83    H     0.25091   0.09245   0.46200   0.00000  Uiso   1.00
H84    H     0.03972   0.19711   0.47451   0.00000  Uiso   1.00
H85    H     0.06798   0.20670   0.40441   0.00000  Uiso   1.00
H86    H     0.30545   0.09381   0.33161   0.00000  Uiso   1.00
H87    H     0.02004   0.09467   0.29263   0.00000  Uiso   1.00
O88    O     0.16667   0.16667   0.25000   0.00000  Uiso   1.00
O89    O     0.15693   0.12393   0.16625   0.00000  Uiso   1.00
O90    O     0.12687   0.20646   0.33749   0.00000  Uiso   1.00
O91    O     0.21088   0.17493   0.15877   0.00000  Uiso   1.00
O92    O     0.17198   0.16135   0.33749   0.00000  Uiso   1.00
O93    O     0.31226   0.14123   0.29731   0.00000  Uiso   1.00
O94    O     0.20685   0.00517   0.20492   0.00000  Uiso   1.00
O95    O     0.12410   0.33093   0.29914   0.00000  Uiso   1.00
O96    O     0.26308   0.10952   0.09991   0.00000  Uiso   1.00
O97    O     0.20077   0.17815   0.40300   0.00000  Uiso   1.00
O98    O     0.08213   0.14033   0.07669   0.00000  Uiso   1.00
O99    O     0.17849   0.08101   0.27821   0.00000  Uiso   1.00
O100   O     0.20452   0.10626   0.41763   0.00000  Uiso   1.00
O101   O     0.14581   0.26136   0.26767   0.00000  Uiso   1.00
O102   O     0.07452   0.13251   0.23607   0.00000  Uiso   1.00
O103   O     0.26785   0.19179   0.21805   0.00000  Uiso   1.00
O104   O     0.06990   0.18960   0.27820   0.00000  Uiso   1.00
O105   O     0.25440   0.15277   0.26768   0.00000  Uiso   1.00
O106   O     0.13800   0.06903   0.23607   0.00000  Uiso   1.00
O107   O     0.20437   0.25527   0.21805   0.00000  Uiso   1.00
Zn108  Zn    0.19244   0.14090   0.28278   0.00000  Uiso   1.00
Zn109  Zn    0.13459   0.12378   0.22258   0.00000  Uiso   1.00
Zn110  Zn    0.21166   0.19664   0.21188   0.00000  Uiso   1.00
Zn111  Zn    0.12798   0.20535   0.28277   0.00000  Uiso   1.00
C112   C     0.38604   0.16004   0.25858   0.00000  Uiso   1.00
C113   C     0.52972   0.11931   0.45766   0.00000  Uiso   1.00
C114   C     0.55621   0.10799   0.47834   0.00000  Uiso   1.00
C115   C     0.61423   0.17340   0.24156   0.00000  Uiso   1.00
C116   C     0.54717   0.11685   0.01925   0.00000  Uiso   1.00
C117   C     0.50858   0.13386   0.04072   0.00000  Uiso   1.00
C118   C     0.57632   0.10851   0.03891   0.00000  Uiso   1.00
C119   C     0.56870   0.11877   0.07987   0.00000  Uiso   1.00
C120   C     0.50157   0.14402   0.08186   0.00000  Uiso   1.00
C121   C     0.65982   0.17445   0.23819   0.00000  Uiso   1.00
C122   C     0.34039   0.15643   0.26350   0.00000  Uiso   1.00
C123   C     0.42190   0.19651   0.41966   0.00000  Uiso   1.00
C124   C     0.51074   0.32163   0.23700   0.00000  Uiso   1.00
C125   C     0.48396   0.01263   0.26428   0.00000  Uiso   1.00
C126   C     0.48923   0.05637   0.25921   0.00000  Uiso   1.00
C127   C     0.50972   0.27759   0.24142   0.00000  Uiso   1.00
C128   C     0.52121   0.14544   0.14401   0.00000  Uiso   1.00
C129   C     0.47869   0.18737   0.35632   0.00000  Uiso   1.00
C130   C     0.46401   0.18863   0.39963   0.00000  Uiso   1.00
C131   C     0.53070   0.13571   0.10121   0.00000  Uiso   1.00
C132   C     0.40552   0.19014   0.45936   0.00000  Uiso   1.00
C133   C     0.65225   0.09979   0.30019   0.00000  Uiso   1.00
C134   C     0.49027   0.17573   0.42014   0.00000  Uiso   1.00
C135   C     0.62872   0.06832   0.27487   0.00000  Uiso   1.00
C136   C     0.63643   0.02361   0.27698   0.00000  Uiso   1.00
C137   C     0.52438   0.32755   0.17122   0.00000  Uiso   1.00
C138   C     0.55222   0.01902   0.13788   0.00000  Uiso   1.00
C139   C     0.53627   0.00899   0.10074   0.00000  Uiso   1.00
C140   C     0.42007   0.01866   0.31546   0.00000  Uiso   1.00
C141   C     0.42491   0.04923   0.35148   0.00000  Uiso   1.00
C142   C     0.38823   0.07677   0.36614   0.00000  Uiso   1.00
C143   C     0.63569   0.13475   0.08886   0.00000  Uiso   1.00
C144   C     0.55289   0.21708   0.41650   0.00000  Uiso   1.00
C145   C     0.47189   0.16276   0.45847   0.00000  Uiso   1.00
C146   C     0.40463   0.09668   0.07533   0.00000  Uiso   1.00
C147   C     0.51981   0.06448   0.41223   0.00000  Uiso   1.00
C148   C     0.53738   0.04739   0.36904   0.00000  Uiso   1.00
C149   C     0.52226   0.00116   0.36147   0.00000  Uiso   1.00
C150   C     0.43001   0.17314   0.47882   0.00000  Uiso   1.00
C151   C     0.49451   0.14226   0.47810   0.00000  Uiso   1.00
C152   C     0.47976   0.14250   0.01994   0.00000  Uiso   1.00
C153   C     0.43647   0.15026   0.03888   0.00000  Uiso   1.00
C154   C     0.41262   0.16598   0.01828   0.00000  Uiso   1.00
H155   H     0.38018   0.17284   0.03348   0.00000  Uiso   1.00
H156   H     0.59372   0.07124   0.28544   0.00000  Uiso   1.00
H157   H     0.64009   0.07508   0.24351   0.00000  Uiso   1.00
H158   H     0.33774   0.01954   0.26470   0.00000  Uiso   1.00
H159   H     0.61792   0.00160   0.25937   0.00000  Uiso   1.00
H160   H     0.62587   0.01593   0.30804   0.00000  Uiso   1.00
H161   H     0.49061   0.00167   0.17747   0.00000  Uiso   1.00
H162   H     0.52576   0.29362   0.16128   0.00000  Uiso   1.00
H163   H     0.55151   0.05292   0.14788   0.00000  Uiso   1.00
H164   H     0.58593   0.01154   0.13073   0.00000  Uiso   1.00
H165   H     0.53560   0.30834   0.09082   0.00000  Uiso   1.00
H166   H     0.60505   0.09418   0.02245   0.00000  Uiso   1.00
H167   H     0.55817   0.02612   0.07660   0.00000  Uiso   1.00
H168   H     0.50354   0.01865   0.10667   0.00000  Uiso   1.00
H169   H     0.39275   0.32812   0.32574   0.00000  Uiso   1.00
H170   H     0.41076   0.03435   0.29360   0.00000  Uiso   1.00
H171   H     0.42534   0.03132   0.37579   0.00000  Uiso   1.00
H172   H     0.45555   0.06968   0.34398   0.00000  Uiso   1.00
H173   H     0.38968   0.09781   0.34362   0.00000  Uiso   1.00
H174   H     0.39129   0.09634   0.39374   0.00000  Uiso   1.00
H175   H     0.35675   0.05734   0.37240   0.00000  Uiso   1.00
H176   H     0.63104   0.16830   0.09041   0.00000  Uiso   1.00
H177   H     0.34934   0.18923   0.21387   0.00000  Uiso   1.00
H178   H     0.65459   0.12340   0.05883   0.00000  Uiso   1.00
H179   H     0.65456   0.13253   0.10990   0.00000  Uiso   1.00
H180   H     0.54805   0.22025   0.44911   0.00000  Uiso   1.00
H181   H     0.54022   0.24335   0.40787   0.00000  Uiso   1.00
H182   H     0.58797   0.21924   0.40243   0.00000  Uiso   1.00
H183   H     0.43371   0.07976   0.06727   0.00000  Uiso   1.00
H184   H     0.38462   0.08527   0.05446   0.00000  Uiso   1.00
H185   H     0.38547   0.08909   0.10522   0.00000  Uiso   1.00
H186   H     0.48423   0.06330   0.41929   0.00000  Uiso   1.00
H187   H     0.52830   0.04420   0.43118   0.00000  Uiso   1.00
H188   H     0.47497   0.16060   0.09936   0.00000  Uiso   1.00
H189   H     0.52713   0.06547   0.34962   0.00000  Uiso   1.00
H190   H     0.57296   0.05128   0.36145   0.00000  Uiso   1.00
H191   H     0.53489   0.31571   0.37866   0.00000  Uiso   1.00
H192   H     0.53431   0.32381   0.32951   0.00000  Uiso   1.00
H193   H     0.48670   0.32917   0.37003   0.00000  Uiso   1.00
H194   H     0.58424   0.09245   0.46200   0.00000  Uiso   1.00
H195   H     0.37306   0.19711   0.47451   0.00000  Uiso   1.00
H196   H     0.40131   0.20670   0.40441   0.00000  Uiso   1.00
H197   H     0.63878   0.09381   0.33161   0.00000  Uiso   1.00
H198   H     0.35338   0.09467   0.29263   0.00000  Uiso   1.00
O199   O     0.50000   0.16667   0.25000   0.00000  Uiso   1.00
O200   O     0.49027   0.12393   0.16625   0.00000  Uiso   1.00
O201   O     0.46020   0.20646   0.33749   0.00000  Uiso   1.00
O202   O     0.54421   0.17493   0.15877   0.00000  Uiso   1.00
O203   O     0.50532   0.16135   0.33749   0.00000  Uiso   1.00
O204   O     0.64559   0.14123   0.29731   0.00000  Uiso   1.00
O205   O     0.54018   0.00517   0.20492   0.00000  Uiso   1.00
O206   O     0.45744   0.33093   0.29914   0.00000  Uiso   1.00
O207   O     0.59642   0.10952   0.09991   0.00000  Uiso   1.00
O208   O     0.53410   0.17815   0.40300   0.00000  Uiso   1.00
O209   O     0.41546   0.14033   0.07669   0.00000  Uiso   1.00
O210   O     0.51182   0.08101   0.27821   0.00000  Uiso   1.00
O211   O     0.53786   0.10626   0.41763   0.00000  Uiso   1.00
O212   O     0.47914   0.26136   0.26767   0.00000  Uiso   1.00
O213   O     0.40785   0.13251   0.23607   0.00000  Uiso   1.00
O214   O     0.60119   0.19179   0.21805   0.00000  Uiso   1.00
O215   O     0.40323   0.18960   0.27820   0.00000  Uiso   1.00
O216   O     0.58773   0.15277   0.26768   0.00000  Uiso   1.00
O217   O     0.47133   0.06903   0.23607   0.00000  Uiso   1.00
O218   O     0.53771   0.25527   0.21805   0.00000  Uiso   1.00
Zn219  Zn    0.52577   0.14090   0.28278   0.00000  Uiso   1.00
Zn220  Zn    0.46792   0.12378   0.22258   0.00000  Uiso   1.00
Zn221  Zn    0.54500   0.19664   0.21188   0.00000  Uiso   1.00
Zn222  Zn    0.46131   0.20535   0.28277   0.00000  Uiso   1.00
C223   C     0.71937   0.16004   0.25858   0.00000  Uiso   1.00
C224   C     0.86305   0.11931   0.45766   0.00000  Uiso   1.00
C225   C     0.88955   0.10799   0.47834   0.00000  Uiso   1.00
C226   C     0.94757   0.17340   0.24156   0.00000  Uiso   1.00
C227   C     0.88051   0.11685   0.01925   0.00000  Uiso   1.00
C228   C     0.84191   0.13386   0.04072   0.00000  Uiso   1.00
C229   C     0.90965   0.10851   0.03891   0.00000  Uiso   1.00
C230   C     0.90204   0.11877   0.07987   0.00000  Uiso   1.00
C231   C     0.83491   0.14402   0.08186   0.00000  Uiso   1.00
C232   C     0.99316   0.17445   0.23819   0.00000  Uiso   1.00
C233   C     0.67373   0.15643   0.26350   0.00000  Uiso   1.00
C234   C     0.75523   0.19651   0.41966   0.00000  Uiso   1.00
C235   C     0.84407   0.32163   0.23700   0.00000  Uiso   1.00
C236   C     0.81730   0.01263   0.26428   0.00000  Uiso   1.00
C237   C     0.82257   0.05637   0.25921   0.00000  Uiso   1.00
C238   C     0.84306   0.27759   0.24142   0.00000  Uiso   1.00
C239   C     0.85454   0.14544   0.14401   0.00000  Uiso   1.00
C240   C     0.81203   0.18737   0.35632   0.00000  Uiso   1.00
C241   C     0.79734   0.18863   0.39963   0.00000  Uiso   1.00
C242   C     0.86403   0.13571   0.10121   0.00000  Uiso   1.00
C243   C     0.73885   0.19014   0.45936   0.00000  Uiso   1.00
C244   C     0.98559   0.09979   0.30019   0.00000  Uiso   1.00
C245   C     0.82360   0.17573   0.42014   0.00000  Uiso   1.00
C246   C     0.96205   0.06832   0.27487   0.00000  Uiso   1.00
C247   C     0.96976   0.02361   0.27698   0.00000  Uiso   1.00
C248   C     0.85771   0.32755   0.17122   0.00000  Uiso   1.00
C249   C     0.88556   0.01902   0.13788   0.00000  Uiso   1.00
C250   C     0.86960   0.00899   0.10074   0.00000  Uiso   1.00
C251   C     0.75340   0.01866   0.31546   0.00000  Uiso   1.00
C252   C     0.75825   0.04923   0.35148   0.00000  Uiso   1.00
C253   C     0.72156   0.07677   0.36614   0.00000  Uiso   1.00
C254   C     0.96903   0.13475   0.08886   0.00000  Uiso   1.00
C255   C     0.88622   0.21708   0.41650   0.00000  Uiso   1.00
C256   C     0.80523   0.16276   0.45847   0.00000  Uiso   1.00
C257   C     0.73796   0.09668   0.07533   0.00000  Uiso   1.00
C258   C     0.85315   0.06448   0.41223   0.00000  Uiso   1.00
C259   C     0.87071   0.04739   0.36904   0.00000  Uiso   1.00
C260   C     0.85559   0.00116   0.36147   0.00000  Uiso   1.00
C261   C     0.76335   0.17314   0.47882   0.00000  Uiso   1.00
C262   C     0.82785   0.14226   0.47810   0.00000  Uiso   1.00
C263   C     0.81310   0.14250   0.01994   0.00000  Uiso   1.00
C264   C     0.76980   0.15026   0.03888   0.00000  Uiso   1.00
C265   C     0.74595   0.16598   0.01828   0.00000  Uiso   1.00
H266   H     0.71351   0.17284   0.03348   0.00000  Uiso   1.00
H267   H     0.92705   0.07124   0.28544   0.00000  Uiso   1.00
H268   H     0.97342   0.07508   0.24351   0.00000  Uiso   1.00
H269   H     0.67107   0.01954   0.26470   0.00000  Uiso   1.00
H270   H     0.95125   0.00160   0.25937   0.00000  Uiso   1.00
H271   H     0.95920   0.01593   0.30804   0.00000  Uiso   1.00
H272   H     0.82394   0.00167   0.17747   0.00000  Uiso   1.00
H273   H     0.85909   0.29362   0.16128   0.00000  Uiso   1.00
H274   H     0.88485   0.05292   0.14788   0.00000  Uiso   1.00
H275   H     0.91927   0.01154   0.13073   0.00000  Uiso   1.00
H276   H     0.86893   0.30834   0.09082   0.00000  Uiso   1.00
H277   H     0.93838   0.09418   0.02245   0.00000  Uiso   1.00
H278   H     0.89151   0.02612   0.07660   0.00000  Uiso   1.00
H279   H     0.83688   0.01865   0.10667   0.00000  Uiso   1.00
H280   H     0.72608   0.32812   0.32574   0.00000  Uiso   1.00
H281   H     0.74409   0.03435   0.29360   0.00000  Uiso   1.00
H282   H     0.75867   0.03132   0.37579   0.00000  Uiso   1.00
H283   H     0.78889   0.06968   0.34398   0.00000  Uiso   1.00
H284   H     0.72302   0.09781   0.34362   0.00000  Uiso   1.00
H285   H     0.72463   0.09634   0.39374   0.00000  Uiso   1.00
H286   H     0.69008   0.05734   0.37240   0.00000  Uiso   1.00
H287   H     0.96437   0.16830   0.09041   0.00000  Uiso   1.00
H288   H     0.68267   0.18923   0.21387   0.00000  Uiso   1.00
H289   H     0.98792   0.12340   0.05883   0.00000  Uiso   1.00
H290   H     0.98789   0.13253   0.10990   0.00000  Uiso   1.00
H291   H     0.88138   0.22025   0.44911   0.00000  Uiso   1.00
H292   H     0.87355   0.24335   0.40787   0.00000  Uiso   1.00
H293   H     0.92130   0.21924   0.40243   0.00000  Uiso   1.00
H294   H     0.76704   0.07976   0.06727   0.00000  Uiso   1.00
H295   H     0.71796   0.08527   0.05446   0.00000  Uiso   1.00
H296   H     0.71880   0.08909   0.10522   0.00000  Uiso   1.00
H297   H     0.81757   0.06330   0.41929   0.00000  Uiso   1.00
H298   H     0.86163   0.04420   0.43118   0.00000  Uiso   1.00
H299   H     0.80830   0.16060   0.09936   0.00000  Uiso   1.00
H300   H     0.86046   0.06547   0.34962   0.00000  Uiso   1.00
H301   H     0.90630   0.05128   0.36145   0.00000  Uiso   1.00
H302   H     0.86823   0.31571   0.37866   0.00000  Uiso   1.00
H303   H     0.86764   0.32381   0.32951   0.00000  Uiso   1.00
H304   H     0.82003   0.32917   0.37003   0.00000  Uiso   1.00
H305   H     0.91758   0.09245   0.46200   0.00000  Uiso   1.00
H306   H     0.70639   0.19711   0.47451   0.00000  Uiso   1.00
H307   H     0.73465   0.20670   0.40441   0.00000  Uiso   1.00
H308   H     0.97211   0.09381   0.33161   0.00000  Uiso   1.00
H309   H     0.68671   0.09467   0.29263   0.00000  Uiso   1.00
O310   O     0.83333   0.16667   0.25000   0.00000  Uiso   1.00
O311   O     0.82360   0.12393   0.16625   0.00000  Uiso   1.00
O312   O     0.79354   0.20646   0.33749   0.00000  Uiso   1.00
O313   O     0.87755   0.17493   0.15877   0.00000  Uiso   1.00
O314   O     0.83865   0.16135   0.33749   0.00000  Uiso   1.00
O315   O     0.97893   0.14123   0.29731   0.00000  Uiso   1.00
O316   O     0.87351   0.00517   0.20492   0.00000  Uiso   1.00
O317   O     0.79077   0.33093   0.29914   0.00000  Uiso   1.00
O318   O     0.92975   0.10952   0.09991   0.00000  Uiso   1.00
O319   O     0.86744   0.17815   0.40300   0.00000  Uiso   1.00
O320   O     0.74879   0.14033   0.07669   0.00000  Uiso   1.00
O321   O     0.84515   0.08101   0.27821   0.00000  Uiso   1.00
O322   O     0.87119   0.10626   0.41763   0.00000  Uiso   1.00
O323   O     0.81247   0.26136   0.26767   0.00000  Uiso   1.00
O324   O     0.74119   0.13251   0.23607   0.00000  Uiso   1.00
O325   O     0.93452   0.19179   0.21805   0.00000  Uiso   1.00
O326   O     0.73656   0.18960   0.27820   0.00000  Uiso   1.00
O327   O     0.92106   0.15277   0.26768   0.00000  Uiso   1.00
O328   O     0.80467   0.06903   0.23607   0.00000  Uiso   1.00
O329   O     0.87104   0.25527   0.21805   0.00000  Uiso   1.00
Zn330  Zn    0.85910   0.14090   0.28278   0.00000  Uiso   1.00
Zn331  Zn    0.80125   0.12378   0.22258   0.00000  Uiso   1.00
Zn332  Zn    0.87833   0.19664   0.21188   0.00000  Uiso   1.00
Zn333  Zn    0.79465   0.20535   0.28277   0.00000  Uiso   1.00
C334   C     0.05270   0.49338   0.25858   0.00000  Uiso   1.00
C335   C     0.19639   0.45265   0.45766   0.00000  Uiso   1.00
C336   C     0.22288   0.44132   0.47834   0.00000  Uiso   1.00
C337   C     0.28090   0.50674   0.24156   0.00000  Uiso   1.00
C338   C     0.21384   0.45019   0.01925   0.00000  Uiso   1.00
C339   C     0.17525   0.46720   0.04072   0.00000  Uiso   1.00
C340   C     0.24299   0.44184   0.03891   0.00000  Uiso   1.00
C341   C     0.23537   0.45210   0.07987   0.00000  Uiso   1.00
C342   C     0.16824   0.47735   0.08186   0.00000  Uiso   1.00
C343   C     0.32649   0.50778   0.23819   0.00000  Uiso   1.00
C344   C     0.00706   0.48976   0.26350   0.00000  Uiso   1.00
C345   C     0.08856   0.52985   0.41966   0.00000  Uiso   1.00
C346   C     0.17741   0.65497   0.23700   0.00000  Uiso   1.00
C347   C     0.15063   0.34596   0.26428   0.00000  Uiso   1.00
C348   C     0.15590   0.38970   0.25921   0.00000  Uiso   1.00
C349   C     0.17639   0.61092   0.24142   0.00000  Uiso   1.00
C350   C     0.18787   0.47877   0.14401   0.00000  Uiso   1.00
C351   C     0.14536   0.52070   0.35632   0.00000  Uiso   1.00
C352   C     0.13068   0.52196   0.39963   0.00000  Uiso   1.00
C353   C     0.19736   0.46904   0.10121   0.00000  Uiso   1.00
C354   C     0.07219   0.52347   0.45936   0.00000  Uiso   1.00
C355   C     0.31892   0.43313   0.30019   0.00000  Uiso   1.00
C356   C     0.15693   0.50906   0.42014   0.00000  Uiso   1.00
C357   C     0.29538   0.40165   0.27487   0.00000  Uiso   1.00
C358   C     0.30310   0.35694   0.27698   0.00000  Uiso   1.00
C359   C     0.19104   0.66088   0.17122   0.00000  Uiso   1.00
C360   C     0.21889   0.35236   0.13788   0.00000  Uiso   1.00
C361   C     0.20293   0.34232   0.10074   0.00000  Uiso   1.00
C362   C     0.08674   0.35200   0.31546   0.00000  Uiso   1.00
C363   C     0.09158   0.38256   0.35148   0.00000  Uiso   1.00
C364   C     0.05490   0.41011   0.36614   0.00000  Uiso   1.00
C365   C     0.30236   0.46809   0.08886   0.00000  Uiso   1.00
C366   C     0.21956   0.55042   0.41650   0.00000  Uiso   1.00
C367   C     0.13856   0.49610   0.45847   0.00000  Uiso   1.00
C368   C     0.07129   0.43002   0.07533   0.00000  Uiso   1.00
C369   C     0.18648   0.39781   0.41223   0.00000  Uiso   1.00
C370   C     0.20404   0.38072   0.36904   0.00000  Uiso   1.00
C371   C     0.18893   0.33449   0.36147   0.00000  Uiso   1.00
C372   C     0.09668   0.50647   0.47882   0.00000  Uiso   1.00
C373   C     0.16118   0.47560   0.47810   0.00000  Uiso   1.00
C374   C     0.14643   0.47583   0.01994   0.00000  Uiso   1.00
C375   C     0.10313   0.48360   0.03888   0.00000  Uiso   1.00
C376   C     0.07929   0.49931   0.01828   0.00000  Uiso   1.00
H377   H     0.04685   0.50618   0.03348   0.00000  Uiso   1.00
H378   H     0.26039   0.40457   0.28544   0.00000  Uiso   1.00
H379   H     0.30676   0.40841   0.24351   0.00000  Uiso   1.00
H380   H     0.00440   0.35287   0.26470   0.00000  Uiso   1.00
H381   H     0.28458   0.33494   0.25937   0.00000  Uiso   1.00
H382   H     0.29254   0.34927   0.30804   0.00000  Uiso   1.00
H383   H     0.15728   0.33500   0.17747   0.00000  Uiso   1.00
H384   H     0.19242   0.62696   0.16128   0.00000  Uiso   1.00
H385   H     0.21818   0.38626   0.14788   0.00000  Uiso   1.00
H386   H     0.25260   0.34487   0.13073   0.00000  Uiso   1.00
H387   H     0.20226   0.64168   0.09082   0.00000  Uiso   1.00
H388   H     0.27171   0.42751   0.02245   0.00000  Uiso   1.00
H389   H     0.22484   0.35945   0.07660   0.00000  Uiso   1.00
H390   H     0.17021   0.35199   0.10667   0.00000  Uiso   1.00
H391   H     0.05941   0.66145   0.32574   0.00000  Uiso   1.00
H392   H     0.07743   0.36768   0.29360   0.00000  Uiso   1.00
H393   H     0.09201   0.36465   0.37579   0.00000  Uiso   1.00
H394   H     0.12222   0.40302   0.34398   0.00000  Uiso   1.00
H395   H     0.05635   0.43114   0.34362   0.00000  Uiso   1.00
H396   H     0.05796   0.42968   0.39374   0.00000  Uiso   1.00
H397   H     0.02342   0.39068   0.37240   0.00000  Uiso   1.00
H398   H     0.29770   0.50164   0.09041   0.00000  Uiso   1.00
H399   H     0.01601   0.52256   0.21387   0.00000  Uiso   1.00
H400   H     0.32126   0.45673   0.05883   0.00000  Uiso   1.00
H401   H     0.32123   0.46587   0.10990   0.00000  Uiso   1.00
H402   H     0.21471   0.55358   0.44911   0.00000  Uiso   1.00
H403   H     0.20688   0.57668   0.40787   0.00000  Uiso   1.00
H404   H     0.25464   0.55257   0.40243   0.00000  Uiso   1.00
H405   H     0.10037   0.41309   0.06727   0.00000  Uiso   1.00
H406   H     0.05129   0.41860   0.05446   0.00000  Uiso   1.00
H407   H     0.05213   0.42242   0.10522   0.00000  Uiso   1.00
H408   H     0.15090   0.39664   0.41929   0.00000  Uiso   1.00
H409   H     0.19497   0.37754   0.43118   0.00000  Uiso   1.00
H410   H     0.14164   0.49393   0.09936   0.00000  Uiso   1.00
H411   H     0.19380   0.39881   0.34962   0.00000  Uiso   1.00
H412   H     0.23963   0.38461   0.36145   0.00000  Uiso   1.00
H413   H     0.20156   0.64904   0.37866   0.00000  Uiso   1.00
H414   H     0.20098   0.65714   0.32951   0.00000  Uiso   1.00
H415   H     0.15337   0.66250   0.37003   0.00000  Uiso   1.00
H416   H     0.25091   0.42579   0.46200   0.00000  Uiso   1.00
H417   H     0.03972   0.53044   0.47451   0.00000  Uiso   1.00
H418   H     0.06798   0.54003   0.40441   0.00000  Uiso   1.00
H419   H     0.30545   0.42715   0.33161   0.00000  Uiso   1.00
H420   H     0.02004   0.42800   0.29263   0.00000  Uiso   1.00
O421   O     0.16667   0.50000   0.25000   0.00000  Uiso   1.00
O422   O     0.15693   0.45726   0.16625   0.00000  Uiso   1.00
O423   O     0.12687   0.53979   0.33749   0.00000  Uiso   1.00
O424   O     0.21088   0.50826   0.15877   0.00000  Uiso   1.00
O425   O     0.17198   0.49468   0.33749   0.00000  Uiso   1.00
O426   O     0.31226   0.47457   0.29731   0.00000  Uiso   1.00
O427   O     0.20685   0.33851   0.20492   0.00000  Uiso   1.00
O428   O     0.12410   0.66427   0.29914   0.00000  Uiso   1.00
O429   O     0.26308   0.44285   0.09991   0.00000  Uiso   1.00
O430   O     0.20077   0.51148   0.40300   0.00000  Uiso   1.00
O431   O     0.08213   0.47366   0.07669   0.00000  Uiso   1.00
O432   O     0.17849   0.41434   0.27821   0.00000  Uiso   1.00
O433   O     0.20452   0.43959   0.41763   0.00000  Uiso   1.00
O434   O     0.14581   0.59469   0.26767   0.00000  Uiso   1.00
O435   O     0.07452   0.46584   0.23607   0.00000  Uiso   1.00
O436   O     0.26785   0.52512   0.21805   0.00000  Uiso   1.00
O437   O     0.06990   0.52293   0.27820   0.00000  Uiso   1.00
O438   O     0.25440   0.48610   0.26768   0.00000  Uiso   1.00
O439   O     0.13800   0.40236   0.23607   0.00000  Uiso   1.00
O440   O     0.20437   0.58860   0.21805   0.00000  Uiso   1.00
Zn441  Zn    0.19244   0.47423   0.28278   0.00000  Uiso   1.00
Zn442  Zn    0.13459   0.45711   0.22258   0.00000  Uiso   1.00
Zn443  Zn    0.21166   0.52997   0.21188   0.00000  Uiso   1.00
Zn444  Zn    0.12798   0.53868   0.28277   0.00000  Uiso   1.00
C445   C     0.38604   0.49338   0.25858   0.00000  Uiso   1.00
C446   C     0.52972   0.45265   0.45766   0.00000  Uiso   1.00
C447   C     0.55621   0.44132   0.47834   0.00000  Uiso   1.00
C448   C     0.61423   0.50674   0.24156   0.00000  Uiso   1.00
C449   C     0.54717   0.45019   0.01925   0.00000  Uiso   1.00
C450   C     0.50858   0.46720   0.04072   0.00000  Uiso   1.00
C451   C     0.57632   0.44184   0.03891   0.00000  Uiso   1.00
C452   C     0.56870   0.45210   0.07987   0.00000  Uiso   1.00
C453   C     0.50157   0.47735   0.08186   0.00000  Uiso   1.00
C454   C     0.65982   0.50778   0.23819   0.00000  Uiso   1.00
C455   C     0.34039   0.48976   0.26350   0.00000  Uiso   1.00
C456   C     0.42190   0.52985   0.41966   0.00000  Uiso   1.00
C457   C     0.51074   0.65497   0.23700   0.00000  Uiso   1.00
C458   C     0.48396   0.34596   0.26428   0.00000  Uiso   1.00
C459   C     0.48923   0.38970   0.25921   0.00000  Uiso   1.00
C460   C     0.50972   0.61092   0.24142   0.00000  Uiso   1.00
C461   C     0.52121   0.47877   0.14401   0.00000  Uiso   1.00
C462   C     0.47869   0.52070   0.35632   0.00000  Uiso   1.00
C463   C     0.46401   0.52196   0.39963   0.00000  Uiso   1.00
C464   C     0.53070   0.46904   0.10121   0.00000  Uiso   1.00
C465   C     0.40552   0.52347   0.45936   0.00000  Uiso   1.00
C466   C     0.65225   0.43313   0.30019   0.00000  Uiso   1.00
C467   C     0.49027   0.50906   0.42014   0.00000  Uiso   1.00
C468   C     0.62872   0.40165   0.27487   0.00000  Uiso   1.00
C469   C     0.63643   0.35694   0.27698   0.00000  Uiso   1.00
C470   C     0.52438   0.66088   0.17122   0.00000  Uiso   1.00
C471   C     0.55222   0.35236   0.13788   0.00000  Uiso   1.00
C472   C     0.53627   0.34232   0.10074   0.00000  Uiso   1.00
C473   C     0.42007   0.35200   0.31546   0.00000  Uiso   1.00
C474   C     0.42491   0.38256   0.35148   0.00000  Uiso   1.00
C475   C     0.38823   0.41011   0.36614   0.00000  Uiso   1.00
C476   C     0.63569   0.46809   0.08886   0.00000  Uiso   1.00
C477   C     0.55289   0.55042   0.41650   0.00000  Uiso   1.00
C478   C     0.47189   0.49610   0.45847   0.00000  Uiso   1.00
C479   C     0.40463   0.43002   0.07533   0.00000  Uiso   1.00
C480   C     0.51981   0.39781   0.41223   0.00000  Uiso   1.00
C481   C     0.53738   0.38072   0.36904   0.00000  Uiso   1.00
C482   C     0.52226   0.33449   0.36147   0.00000  Uiso   1.00
C483   C     0.43001   0.50647   0.47882   0.00000  Uiso   1.00
C484   C     0.49451   0.47560   0.47810   0.00000  Uiso   1.00
C485   C     0.47976   0.47583   0.01994   0.00000  Uiso   1.00
C486   C     0.43647   0.48360   0.03888   0.00000  Uiso   1.00
C487   C     0.41262   0.49931   0.01828   0.00000  Uiso   1.00
H488   H     0.38018   0.50618   0.03348   0.00000  Uiso   1.00
H489   H     0.59372   0.40457   0.28544   0.00000  Uiso   1.00
H490   H     0.64009   0.40841   0.24351   0.00000  Uiso   1.00
H491   H     0.33774   0.35287   0.26470   0.00000  Uiso   1.00
H492   H     0.61792   0.33494   0.25937   0.00000  Uiso   1.00
H493   H     0.62587   0.34927   0.30804   0.00000  Uiso   1.00
H494   H     0.49061   0.33500   0.17747   0.00000  Uiso   1.00
H495   H     0.52576   0.62696   0.16128   0.00000  Uiso   1.00
H496   H     0.55151   0.38626   0.14788   0.00000  Uiso   1.00
H497   H     0.58593   0.34487   0.13073   0.00000  Uiso   1.00
H498   H     0.53560   0.64168   0.09082   0.00000  Uiso   1.00
H499   H     0.60505   0.42751   0.02245   0.00000  Uiso   1.00
H500   H     0.55817   0.35945   0.07660   0.00000  Uiso   1.00
H501   H     0.50354   0.35199   0.10667   0.00000  Uiso   1.00
H502   H     0.39275   0.66145   0.32574   0.00000  Uiso   1.00
H503   H     0.41076   0.36768   0.29360   0.00000  Uiso   1.00
H504   H     0.42534   0.36465   0.37579   0.00000  Uiso   1.00
H505   H     0.45555   0.40302   0.34398   0.00000  Uiso   1.00
H506   H     0.38968   0.43114   0.34362   0.00000  Uiso   1.00
H507   H     0.39129   0.42968   0.39374   0.00000  Uiso   1.00
H508   H     0.35675   0.39068   0.37240   0.00000  Uiso   1.00
H509   H     0.63104   0.50164   0.09041   0.00000  Uiso   1.00
H510   H     0.34934   0.52256   0.21387   0.00000  Uiso   1.00
H511   H     0.65459   0.45673   0.05883   0.00000  Uiso   1.00
H512   H     0.65456   0.46587   0.10990   0.00000  Uiso   1.00
H513   H     0.54805   0.55358   0.44911   0.00000  Uiso   1.00
H514   H     0.54022   0.57668   0.40787   0.00000  Uiso   1.00
H515   H     0.58797   0.55257   0.40243   0.00000  Uiso   1.00
H516   H     0.43371   0.41309   0.06727   0.00000  Uiso   1.00
H517   H     0.38462   0.41860   0.05446   0.00000  Uiso   1.00
H518   H     0.38547   0.42242   0.10522   0.00000  Uiso   1.00
H519   H     0.48423   0.39664   0.41929   0.00000  Uiso   1.00
H520   H     0.52830   0.37754   0.43118   0.00000  Uiso   1.00
H521   H     0.47497   0.49393   0.09936   0.00000  Uiso   1.00
H522   H     0.52713   0.39881   0.34962   0.00000  Uiso   1.00
H523   H     0.57296   0.38461   0.36145   0.00000  Uiso   1.00
H524   H     0.53489   0.64904   0.37866   0.00000  Uiso   1.00
H525   H     0.53431   0.65714   0.32951   0.00000  Uiso   1.00
H526   H     0.48670   0.66250   0.37003   0.00000  Uiso   1.00
H527   H     0.58424   0.42579   0.46200   0.00000  Uiso   1.00
H528   H     0.37306   0.53044   0.47451   0.00000  Uiso   1.00
H529   H     0.40131   0.54003   0.40441   0.00000  Uiso   1.00
H530   H     0.63878   0.42715   0.33161   0.00000  Uiso   1.00
H531   H     0.35338   0.42800   0.29263   0.00000  Uiso   1.00
O532   O     0.50000   0.50000   0.25000   0.00000  Uiso   1.00
O533   O     0.49027   0.45726   0.16625   0.00000  Uiso   1.00
O534   O     0.46020   0.53979   0.33749   0.00000  Uiso   1.00
O535   O     0.54421   0.50826   0.15877   0.00000  Uiso   1.00
O536   O     0.50532   0.49468   0.33749   0.00000  Uiso   1.00
O537   O     0.64559   0.47457   0.29731   0.00000  Uiso   1.00
O538   O     0.54018   0.33851   0.20492   0.00000  Uiso   1.00
O539   O     0.45744   0.66427   0.29914   0.00000  Uiso   1.00
O540   O     0.59642   0.44285   0.09991   0.00000  Uiso   1.00
O541   O     0.53410   0.51148   0.40300   0.00000  Uiso   1.00
O542   O     0.41546   0.47366   0.07669   0.00000  Uiso   1.00
O543   O     0.51182   0.41434   0.27821   0.00000  Uiso   1.00
O544   O     0.53786   0.43959   0.41763   0.00000  Uiso   1.00
O545   O     0.47914   0.59469   0.26767   0.00000  Uiso   1.00
O546   O     0.40785   0.46584   0.23607   0.00000  Uiso   1.00
O547   O     0.60119   0.52512   0.21805   0.00000  Uiso   1.00
O548   O     0.40323   0.52293   0.27820   0.00000  Uiso   1.00
O549   O     0.58773   0.48610   0.26768   0.00000  Uiso   1.00
O550   O     0.47133   0.40236   0.23607   0.00000  Uiso   1.00
O551   O     0.53771   0.58860   0.21805   0.00000  Uiso   1.00
Zn552  Zn    0.52577   0.47423   0.28278   0.00000  Uiso   1.00
Zn553  Zn    0.46792   0.45711   0.22258   0.00000  Uiso   1.00
Zn554  Zn    0.54500   0.52997   0.21188   0.00000  Uiso   1.00
Zn555  Zn    0.46131   0.53868   0.28277   0.00000  Uiso   1.00
C556   C     0.71937   0.49338   0.25858   0.00000  Uiso   1.00
C557   C     0.86305   0.45265   0.45766   0.00000  Uiso   1.00
C558   C     0.88955   0.44132   0.47834   0.00000  Uiso   1.00
C559   C     0.94757   0.50674   0.24156   0.00000  Uiso   1.00
C560   C     0.88051   0.45019   0.01925   0.00000  Uiso   1.00
C561   C     0.84191   0.46720   0.04072   0.00000  Uiso   1.00
C562   C     0.90965   0.44184   0.03891   0.00000  Uiso   1.00
C563   C     0.90204   0.45210   0.07987   0.00000  Uiso   1.00
C564   C     0.83491   0.47735   0.08186   0.00000  Uiso   1.00
C565   C     0.99316   0.50778   0.23819   0.00000  Uiso   1.00
C566   C     0.67373   0.48976   0.26350   0.00000  Uiso   1.00
C567   C     0.75523   0.52985   0.41966   0.00000  Uiso   1.00
C568   C     0.84407   0.65497   0.23700   0.00000  Uiso   1.00
C569   C     0.81730   0.34596   0.26428   0.00000  Uiso   1.00
C570   C     0.82257   0.38970   0.25921   0.00000  Uiso   1.00
C571   C     0.84306   0.61092   0.24142   0.00000  Uiso   1.00
C572   C     0.85454   0.47877   0.14401   0.00000  Uiso   1.00
C573   C     0.81203   0.52070   0.35632   0.00000  Uiso   1.00
C574   C     0.79734   0.52196   0.39963   0.00000  Uiso   1.00
C575   C     0.86403   0.46904   0.10121   0.00000  Uiso   1.00
C576   C     0.73885   0.52347   0.45936   0.00000  Uiso   1.00
C577   C     0.98559   0.43313   0.30019   0.00000  Uiso   1.00
C578   C     0.82360   0.50906   0.42014   0.00000  Uiso   1.00
C579   C     0.96205   0.40165   0.27487   0.00000  Uiso   1.00
C580   C     0.96976   0.35694   0.27698   0.00000  Uiso   1.00
C581   C     0.85771   0.66088   0.17122   0.00000  Uiso   1.00
C582   C     0.88556   0.35236   0.13788   0.00000  Uiso   1.00
C583   C     0.86960   0.34232   0.10074   0.00000  Uiso   1.00
C584   C     0.75340   0.35200   0.31546   0.00000  Uiso   1.00
C585   C     0.75825   0.38256   0.35148   0.00000  Uiso   1.00
C586   C     0.72156   0.41011   0.36614   0.00000  Uiso   1.00
C587   C     0.96903   0.46809   0.08886   0.00000  Uiso   1.00
C588   C     0.88622   0.55042   0.41650   0.00000  Uiso   1.00
C589   C     0.80523   0.49610   0.45847   0.00000  Uiso   1.00
C590   C     0.73796   0.43002   0.07533   0.00000  Uiso   1.00
C591   C     0.85315   0.39781   0.41223   0.00000  Uiso   1.00
C592   C     0.87071   0.38072   0.36904   0.00000  Uiso   1.00
C593   C     0.85559   0.33449   0.36147   0.00000  Uiso   1.00
C594   C     0.76335   0.50647   0.47882   0.00000  Uiso   1.00
C595   C     0.82785   0.47560   0.47810   0.00000  Uiso   1.00
C596   C     0.81310   0.47583   0.01994   0.00000  Uiso   1.00
C597   C     0.76980   0.48360   0.03888   0.00000  Uiso   1.00
C598   C     0.74595   0.49931   0.01828   0.00000  Uiso   1.00
H599   H     0.71351   0.50618   0.03348   0.00000  Uiso   1.00
H600   H     0.92705   0.40457   0.28544   0.00000  Uiso   1.00
H601   H     0.97342   0.40841   0.24351   0.00000  Uiso   1.00
H602   H     0.67107   0.35287   0.26470   0.00000  Uiso   1.00
H603   H     0.95125   0.33494   0.25937   0.00000  Uiso   1.00
H604   H     0.95920   0.34927   0.30804   0.00000  Uiso   1.00
H605   H     0.82394   0.33500   0.17747   0.00000  Uiso   1.00
H606   H     0.85909   0.62696   0.16128   0.00000  Uiso   1.00
H607   H     0.88485   0.38626   0.14788   0.00000  Uiso   1.00
H608   H     0.91927   0.34487   0.13073   0.00000  Uiso   1.00
H609   H     0.86893   0.64168   0.09082   0.00000  Uiso   1.00
H610   H     0.93838   0.42751   0.02245   0.00000  Uiso   1.00
H611   H     0.89151   0.35945   0.07660   0.00000  Uiso   1.00
H612   H     0.83688   0.35199   0.10667   0.00000  Uiso   1.00
H613   H     0.72608   0.66145   0.32574   0.00000  Uiso   1.00
H614   H     0.74409   0.36768   0.29360   0.00000  Uiso   1.00
H615   H     0.75867   0.36465   0.37579   0.00000  Uiso   1.00
H616   H     0.78889   0.40302   0.34398   0.00000  Uiso   1.00
H617   H     0.72302   0.43114   0.34362   0.00000  Uiso   1.00
H618   H     0.72463   0.42968   0.39374   0.00000  Uiso   1.00
H619   H     0.69008   0.39068   0.37240   0.00000  Uiso   1.00
H620   H     0.96437   0.50164   0.09041   0.00000  Uiso   1.00
H621   H     0.68267   0.52256   0.21387   0.00000  Uiso   1.00
H622   H     0.98792   0.45673   0.05883   0.00000  Uiso   1.00
H623   H     0.98789   0.46587   0.10990   0.00000  Uiso   1.00
H624   H     0.88138   0.55358   0.44911   0.00000  Uiso   1.00
H625   H     0.87355   0.57668   0.40787   0.00000  Uiso   1.00
H626   H     0.92130   0.55257   0.40243   0.00000  Uiso   1.00
H627   H     0.76704   0.41309   0.06727   0.00000  Uiso   1.00
H628   H     0.71796   0.41860   0.05446   0.00000  Uiso   1.00
H629   H     0.71880   0.42242   0.10522   0.00000  Uiso   1.00
H630   H     0.81757   0.39664   0.41929   0.00000  Uiso   1.00
H631   H     0.86163   0.37754   0.43118   0.00000  Uiso   1.00
H632   H     0.80830   0.49393   0.09936   0.00000  Uiso   1.00
H633   H     0.86046   0.39881   0.34962   0.00000  Uiso   1.00
H634   H     0.90630   0.38461   0.36145   0.00000  Uiso   1.00
H635   H     0.86823   0.64904   0.37866   0.00000  Uiso   1.00
H636   H     0.86764   0.65714   0.32951   0.00000  Uiso   1.00
H637   H     0.82003   0.66250   0.37003   0.00000  Uiso   1.00
H638   H     0.91758   0.42579   0.46200   0.00000  Uiso   1.00
H639   H     0.70639   0.53044   0.47451   0.00000  Uiso   1.00
H640   H     0.73465   0.54003   0.40441   0.00000  Uiso   1.00
H641   H     0.97211   0.42715   0.33161   0.00000  Uiso   1.00
H642   H     0.68671   0.42800   0.29263   0.00000  Uiso   1.00
O643   O     0.83333   0.50000   0.25000   0.00000  Uiso   1.00
O644   O     0.82360   0.45726   0.16625   0.00000  Uiso   1.00
O645   O     0.79354   0.53979   0.33749   0.00000  Uiso   1.00
O646   O     0.87755   0.50826   0.15877   0.00000  Uiso   1.00
O647   O     0.83865   0.49468   0.33749   0.00000  Uiso   1.00
O648   O     0.97893   0.47457   0.29731   0.00000  Uiso   1.00
O649   O     0.87351   0.33851   0.20492   0.00000  Uiso   1.00
O650   O     0.79077   0.66427   0.29914   0.00000  Uiso   1.00
O651   O     0.92975   0.44285   0.09991   0.00000  Uiso   1.00
O652   O     0.86744   0.51148   0.40300   0.00000  Uiso   1.00
O653   O     0.74879   0.47366   0.07669   0.00000  Uiso   1.00
O654   O     0.84515   0.41434   0.27821   0.00000  Uiso   1.00
O655   O     0.87119   0.43959   0.41763   0.00000  Uiso   1.00
O656   O     0.81247   0.59469   0.26767   0.00000  Uiso   1.00
O657   O     0.74119   0.46584   0.23607   0.00000  Uiso   1.00
O658   O     0.93452   0.52512   0.21805   0.00000  Uiso   1.00
O659   O     0.73656   0.52293   0.27820   0.00000  Uiso   1.00
O660   O     0.92106   0.48610   0.26768   0.00000  Uiso   1.00
O661   O     0.80467   0.40236   0.23607   0.00000  Uiso   1.00
O662   O     0.87104   0.58860   0.21805   0.00000  Uiso   1.00
Zn663  Zn    0.85910   0.47423   0.28278   0.00000  Uiso   1.00
Zn664  Zn    0.80125   0.45711   0.22258   0.00000  Uiso   1.00
Zn665  Zn    0.87833   0.52997   0.21188   0.00000  Uiso   1.00
Zn666  Zn    0.79465   0.53868   0.28277   0.00000  Uiso   1.00
C667   C     0.05270   0.82671   0.25858   0.00000  Uiso   1.00
C668   C     0.19639   0.78598   0.45766   0.00000  Uiso   1.00
C669   C     0.22288   0.77466   0.47834   0.00000  Uiso   1.00
C670   C     0.28090   0.84007   0.24156   0.00000  Uiso   1.00
C671   C     0.21384   0.78352   0.01925   0.00000  Uiso   1.00
C672   C     0.17525   0.80053   0.04072   0.00000  Uiso   1.00
C673   C     0.24299   0.77518   0.03891   0.00000  Uiso   1.00
C674   C     0.23537   0.78543   0.07987   0.00000  Uiso   1.00
C675   C     0.16824   0.81068   0.08186   0.00000  Uiso   1.00
C676   C     0.32649   0.84111   0.23819   0.00000  Uiso   1.00
C677   C     0.00706   0.82309   0.26350   0.00000  Uiso   1.00
C678   C     0.08856   0.86318   0.41966   0.00000  Uiso   1.00
C679   C     0.17741   0.98830   0.23700   0.00000  Uiso   1.00
C680   C     0.15063   0.67930   0.26428   0.00000  Uiso   1.00
C681   C     0.15590   0.72304   0.25921   0.00000  Uiso   1.00
C682   C     0.17639   0.94425   0.24142   0.00000  Uiso   1.00
C683   C     0.18787   0.81210   0.14401   0.00000  Uiso   1.00
C684   C     0.14536   0.85404   0.35632   0.00000  Uiso   1.00
C685   C     0.13068   0.85530   0.39963   0.00000  Uiso   1.00
C686   C     0.19736   0.80237   0.10121   0.00000  Uiso   1.00
C687   C     0.07219   0.85680   0.45936   0.00000  Uiso   1.00
C688   C     0.31892   0.76646   0.30019   0.00000  Uiso   1.00
C689   C     0.15693   0.84239   0.42014   0.00000  Uiso   1.00
C690   C     0.29538   0.73499   0.27487   0.00000  Uiso   1.00
C691   C     0.30310   0.69027   0.27698   0.00000  Uiso   1.00
C692   C     0.19104   0.99421   0.17122   0.00000  Uiso   1.00
C693   C     0.21889   0.68569   0.13788   0.00000  Uiso   1.00
C694   C     0.20293   0.67566   0.10074   0.00000  Uiso   1.00
C695   C     0.08674   0.68533   0.31546   0.00000  Uiso   1.00
C696   C     0.09158   0.71589   0.35148   0.00000  Uiso   1.00
C697   C     0.05490   0.74344   0.36614   0.00000  Uiso   1.00
C698   C     0.30236   0.80142   0.08886   0.00000  Uiso   1.00
C699   C     0.21956   0.88375   0.41650   0.00000  Uiso   1.00
C700   C     0.13856   0.82943   0.45847   0.00000  Uiso   1.00
C701   C     0.07129   0.76335   0.07533   0.00000  Uiso   1.00
C702   C     0.18648   0.73115   0.41223   0.00000  Uiso   1.00
C703   C     0.20404   0.71405   0.36904   0.00000  Uiso   1.00
C704   C     0.18893   0.66782   0.36147   0.00000  Uiso   1.00
C705   C     0.09668   0.83981   0.47882   0.00000  Uiso   1.00
C706   C     0.16118   0.80893   0.47810   0.00000  Uiso   1.00
C707   C     0.14643   0.80917   0.01994   0.00000  Uiso   1.00
C708   C     0.10313   0.81693   0.03888   0.00000  Uiso   1.00
C709   C     0.07929   0.83265   0.01828   0.00000  Uiso   1.00
H710   H     0.04685   0.83951   0.03348   0.00000  Uiso   1.00
H711   H     0.26039   0.73790   0.28544   0.00000  Uiso   1.00
H712   H     0.30676   0.74175   0.24351   0.00000  Uiso   1.00
H713   H     0.00440   0.68620   0.26470   0.00000  Uiso   1.00
H714   H     0.28458   0.66827   0.25937   0.00000  Uiso   1.00
H715   H     0.29254   0.68260   0.30804   0.00000  Uiso   1.00
H716   H     0.15728   0.66834   0.17747   0.00000  Uiso   1.00
H717   H     0.19242   0.96029   0.16128   0.00000  Uiso   1.00
H718   H     0.21818   0.71959   0.14788   0.00000  Uiso   1.00
H719   H     0.25260   0.67820   0.13073   0.00000  Uiso   1.00
H720   H     0.20226   0.97501   0.09082   0.00000  Uiso   1.00
H721   H     0.27171   0.76085   0.02245   0.00000  Uiso   1.00
H722   H     0.22484   0.69279   0.07660   0.00000  Uiso   1.00
H723   H     0.17021   0.68532   0.10667   0.00000  Uiso   1.00
H724   H     0.05941   0.99478   0.32574   0.00000  Uiso   1.00
H725   H     0.07743   0.70101   0.29360   0.00000  Uiso   1.00
H726   H     0.09201   0.69799   0.37579   0.00000  Uiso   1.00
H727   H     0.12222   0.73635   0.34398   0.00000  Uiso   1.00
H728   H     0.05635   0.76447   0.34362   0.00000  Uiso   1.00
H729   H     0.05796   0.76301   0.39374   0.00000  Uiso   1.00
H730   H     0.02342   0.72401   0.37240   0.00000  Uiso   1.00
H731   H     0.29770   0.83497   0.09041   0.00000  Uiso   1.00
H732   H     0.01601   0.85590   0.21387   0.00000  Uiso   1.00
H733   H     0.32126   0.79007   0.05883   0.00000  Uiso   1.00
H734   H     0.32123   0.79920   0.10990   0.00000  Uiso   1.00
H735   H     0.21471   0.88692   0.44911   0.00000  Uiso   1.00
H736   H     0.20688   0.91002   0.40787   0.00000  Uiso   1.00
H737   H     0.25464   0.88590   0.40243   0.00000  Uiso   1.00
H738   H     0.10037   0.74642   0.06727   0.00000  Uiso   1.00
H739   H     0.05129   0.75193   0.05446   0.00000  Uiso   1.00
H740   H     0.05213   0.75575   0.10522   0.00000  Uiso   1.00
H741   H     0.15090   0.72997   0.41929   0.00000  Uiso   1.00
H742   H     0.19497   0.71087   0.43118   0.00000  Uiso   1.00
H743   H     0.14164   0.82727   0.09936   0.00000  Uiso   1.00
H744   H     0.19380   0.73214   0.34962   0.00000  Uiso   1.00
H745   H     0.23963   0.71794   0.36145   0.00000  Uiso   1.00
H746   H     0.20156   0.98237   0.37866   0.00000  Uiso   1.00
H747   H     0.20098   0.99047   0.32951   0.00000  Uiso   1.00
H748   H     0.15337   0.99584   0.37003   0.00000  Uiso   1.00
H749   H     0.25091   0.75912   0.46200   0.00000  Uiso   1.00
H750   H     0.03972   0.86378   0.47451   0.00000  Uiso   1.00
H751   H     0.06798   0.87336   0.40441   0.00000  Uiso   1.00
H752   H     0.30545   0.76048   0.33161   0.00000  Uiso   1.00
H753   H     0.02004   0.76133   0.29263   0.00000  Uiso   1.00
O754   O     0.16667   0.83333   0.25000   0.00000  Uiso   1.00
O755   O     0.15693   0.79060   0.16625   0.00000  Uiso   1.00
O756   O     0.12687   0.87313   0.33749   0.00000  Uiso   1.00
O757   O     0.21088   0.84159   0.15877   0.00000  Uiso   1.00
O758   O     0.17198   0.82802   0.33749   0.00000  Uiso   1.00
O759   O     0.31226   0.80790   0.29731   0.00000  Uiso   1.00
O760   O     0.20685   0.67184   0.20492   0.00000  Uiso   1.00
O761   O     0.12410   0.99760   0.29914   0.00000  Uiso   1.00
O762   O     0.26308   0.77618   0.09991   0.00000  Uiso   1.00
O763   O     0.20077   0.84481   0.40300   0.00000  Uiso   1.00
O764   O     0.08213   0.80699   0.07669   0.00000  Uiso   1.00
O765   O     0.17849   0.74768   0.27821   0.00000  Uiso   1.00
O766   O     0.20452   0.77292   0.41763   0.00000  Uiso   1.00
O767   O     0.14581   0.92803   0.26767   0.00000  Uiso   1.00
O768   O     0.07452   0.79917   0.23607   0.00000  Uiso   1.00
O769   O     0.26785   0.85845   0.21805   0.00000  Uiso   1.00
O770   O     0.06990   0.85627   0.27820   0.00000  Uiso   1.00
O771   O     0.25440   0.81944   0.26768   0.00000  Uiso   1.00
O772   O     0.13800   0.73570   0.23607   0.00000  Uiso   1.00
O773   O     0.20437   0.92193   0.21805   0.00000  Uiso   1.00
Zn774  Zn    0.19244   0.80756   0.28278   0.00000  Uiso   1.00
Zn775  Zn    0.13459   0.79044   0.22258   0.00000  Uiso   1.00
Zn776  Zn    0.21166   0.86331   0.21188   0.00000  Uiso   1.00
Zn777  Zn    0.12798   0.87202   0.28277   0.00000  Uiso   1.00
C778   C     0.38604   0.82671   0.25858   0.00000  Uiso   1.00
C779   C     0.52972   0.78598   0.45766   0.00000  Uiso   1.00
C780   C     0.55621   0.77466   0.47834   0.00000  Uiso   1.00
C781   C     0.61423   0.84007   0.24156   0.00000  Uiso   1.00
C782   C     0.54717   0.78352   0.01925   0.00000  Uiso   1.00
C783   C     0.50858   0.80053   0.04072   0.00000  Uiso   1.00
C784   C     0.57632   0.77518   0.03891   0.00000  Uiso   1.00
C785   C     0.56870   0.78543   0.07987   0.00000  Uiso   1.00
C786   C     0.50157   0.81068   0.08186   0.00000  Uiso   1.00
C787   C     0.65982   0.84111   0.23819   0.00000  Uiso   1.00
C788   C     0.34039   0.82309   0.26350   0.00000  Uiso   1.00
C789   C     0.42190   0.86318   0.41966   0.00000  Uiso   1.00
C790   C     0.51074   0.98830   0.23700   0.00000  Uiso   1.00
C791   C     0.48396   0.67930   0.26428   0.00000  Uiso   1.00
C792   C     0.48923   0.72304   0.25921   0.00000  Uiso   1.00
C793   C     0.50972   0.94425   0.24142   0.00000  Uiso   1.00
C794   C     0.52121   0.81210   0.14401   0.00000  Uiso   1.00
C795   C     0.47869   0.85404   0.35632   0.00000  Uiso   1.00
C796   C     0.46401   0.85530   0.39963   0.00000  Uiso   1.00
C797   C     0.53070   0.80237   0.10121   0.00000  Uiso   1.00
C798   C     0.40552   0.85680   0.45936   0.00000  Uiso   1.00
C799   C     0.65225   0.76646   0.30019   0.00000  Uiso   1.00
C800   C     0.49027   0.84239   0.42014   0.00000  Uiso   1.00
C801   C     0.62872   0.73499   0.27487   0.00000  Uiso   1.00
C802   C     0.63643   0.69027   0.27698   0.00000  Uiso   1.00
C803   C     0.52438   0.99421   0.17122   0.00000  Uiso   1.00
C804   C     0.55222   0.68569   0.13788   0.00000  Uiso   1.00
C805   C     0.53627   0.67566   0.10074   0.00000  Uiso   1.00
C806   C     0.42007   0.68533   0.31546   0.00000  Uiso   1.00
C807   C     0.42491   0.71589   0.35148   0.00000  Uiso   1.00
C808   C     0.38823   0.74344   0.36614   0.00000  Uiso   1.00
C809   C     0.63569   0.80142   0.08886   0.00000  Uiso   1.00
C810   C     0.55289   0.88375   0.41650   0.00000  Uiso   1.00
C811   C     0.47189   0.82943   0.45847   0.00000  Uiso   1.00
C812   C     0.40463   0.76335   0.07533   0.00000  Uiso   1.00
C813   C     0.51981   0.73115   0.41223   0.00000  Uiso   1.00
C814   C     0.53738   0.71405   0.36904   0.00000  Uiso   1.00
C815   C     0.52226   0.66782   0.36147   0.00000  Uiso   1.00
C816   C     0.43001   0.83981   0.47882   0.00000  Uiso   1.00
C817   C     0.49451   0.80893   0.47810   0.00000  Uiso   1.00
C818   C     0.47976   0.80917   0.01994   0.00000  Uiso   1.00
C819   C     0.43647   0.81693   0.03888   0.00000  Uiso   1.00
C820   C     0.41262   0.83265   0.01828   0.00000  Uiso   1.00
H821   H     0.38018   0.83951   0.03348   0.00000  Uiso   1.00
H822   H     0.59372   0.73790   0.28544   0.00000  Uiso   1.00
H823   H     0.64009   0.74175   0.24351   0.00000  Uiso   1.00
H824   H     0.33774   0.68620   0.26470   0.00000  Uiso   1.00
H825   H     0.61792   0.66827   0.25937   0.00000  Uiso   1.00
H826   H     0.62587   0.68260   0.30804   0.00000  Uiso   1.00
H827   H     0.49061   0.66834   0.17747   0.00000  Uiso   1.00
H828   H     0.52576   0.96029   0.16128   0.00000  Uiso   1.00
H829   H     0.55151   0.71959   0.14788   0.00000  Uiso   1.00
H830   H     0.58593   0.67820   0.13073   0.00000  Uiso   1.00
H831   H     0.53560   0.97501   0.09082   0.00000  Uiso   1.00
H832   H     0.60505   0.76085   0.02245   0.00000  Uiso   1.00
H833   H     0.55817   0.69279   0.07660   0.00000  Uiso   1.00
H834   H     0.50354   0.68532   0.10667   0.00000  Uiso   1.00
H835   H     0.39275   0.99478   0.32574   0.00000  Uiso   1.00
H836   H     0.41076   0.70101   0.29360   0.00000  Uiso   1.00
H837   H     0.42534   0.69799   0.37579   0.00000  Uiso   1.00
H838   H     0.45555   0.73635   0.34398   0.00000  Uiso   1.00
H839   H     0.38968   0.76447   0.34362   0.00000  Uiso   1.00
H840   H     0.39129   0.76301   0.39374   0.00000  Uiso   1.00
H841   H     0.35675   0.72401   0.37240   0.00000  Uiso   1.00
H842   H     0.63104   0.83497   0.09041   0.00000  Uiso   1.00
H843   H     0.34934   0.85590   0.21387   0.00000  Uiso   1.00
H844   H     0.65459   0.79007   0.05883   0.00000  Uiso   1.00
H845   H     0.65456   0.79920   0.10990   0.00000  Uiso   1.00
H846   H     0.54805   0.88692   0.44911   0.00000  Uiso   1.00
H847   H     0.54022   0.91002   0.40787   0.00000  Uiso   1.00
H848   H     0.58797   0.88590   0.40243   0.00000  Uiso   1.00
H849   H     0.43371   0.74642   0.06727   0.00000  Uiso   1.00
H850   H     0.38462   0.75193   0.05446   0.00000  Uiso   1.00
H851   H     0.38547   0.75575   0.10522   0.00000  Uiso   1.00
H852   H     0.48423   0.72997   0.41929   0.00000  Uiso   1.00
H853   H     0.52830   0.71087   0.43118   0.00000  Uiso   1.00
H854   H     0.47497   0.82727   0.09936   0.00000  Uiso   1.00
H855   H     0.52713   0.73214   0.34962   0.00000  Uiso   1.00
H856   H     0.57296   0.71794   0.36145   0.00000  Uiso   1.00
H857   H     0.53489   0.98237   0.37866   0.00000  Uiso   1.00
H858   H     0.53431   0.99047   0.32951   0.00000  Uiso   1.00
H859   H     0.48670   0.99584   0.37003   0.00000  Uiso   1.00
H860   H     0.58424   0.75912   0.46200   0.00000  Uiso   1.00
H861   H     0.37306   0.86378   0.47451   0.00000  Uiso   1.00
H862   H     0.40131   0.87336   0.40441   0.00000  Uiso   1.00
H863   H     0.63878   0.76048   0.33161   0.00000  Uiso   1.00
H864   H     0.35338   0.76133   0.29263   0.00000  Uiso   1.00
O865   O     0.50000   0.83333   0.25000   0.00000  Uiso   1.00
O866   O     0.49027   0.79060   0.16625   0.00000  Uiso   1.00
O867   O     0.46020   0.87313   0.33749   0.00000  Uiso   1.00
O868   O     0.54421   0.84159   0.15877   0.00000  Uiso   1.00
O869   O     0.50532   0.82802   0.33749   0.00000  Uiso   1.00
O870   O     0.64559   0.80790   0.29731   0.00000  Uiso   1.00
O871   O     0.54018   0.67184   0.20492   0.00000  Uiso   1.00
O872   O     0.45744   0.99760   0.29914   0.00000  Uiso   1.00
O873   O     0.59642   0.77618   0.09991   0.00000  Uiso   1.00
O874   O     0.53410   0.84481   0.40300   0.00000  Uiso   1.00
O875   O     0.41546   0.80699   0.07669   0.00000  Uiso   1.00
O876   O     0.51182   0.74768   0.27821   0.00000  Uiso   1.00
O877   O     0.53786   0.77292   0.41763   0.00000  Uiso   1.00
O878   O     0.47914   0.92803   0.26767   0.00000  Uiso   1.00
O879   O     0.40785   0.79917   0.23607   0.00000  Uiso   1.00
O880   O     0.60119   0.85845   0.21805   0.00000  Uiso   1.00
O881   O     0.40323   0.85627   0.27820   0.00000  Uiso   1.00
O882   O     0.58773   0.81944   0.26768   0.00000  Uiso   1.00
O883   O     0.47133   0.73570   0.23607   0.00000  Uiso   1.00
O884   O     0.53771   0.92193   0.21805   0.00000  Uiso   1.00
Zn885  Zn    0.52577   0.80756   0.28278   0.00000  Uiso   1.00
Zn886  Zn    0.46792   0.79044   0.22258   0.00000  Uiso   1.00
Zn887  Zn    0.54500   0.86331   0.21188   0.00000  Uiso   1.00
Zn888  Zn    0.46131   0.87202   0.28277   0.00000  Uiso   1.00
C889   C     0.71937   0.82671   0.25858   0.00000  Uiso   1.00
C890   C     0.86305   0.78598   0.45766   0.00000  Uiso   1.00
C891   C     0.88955   0.77466   0.47834   0.00000  Uiso   1.00
C892   C     0.94757   0.84007   0.24156   0.00000  Uiso   1.00
C893   C     0.88051   0.78352   0.01925   0.00000  Uiso   1.00
C894   C     0.84191   0.80053   0.04072   0.00000  Uiso   1.00
C895   C     0.90965   0.77518   0.03891   0.00000  Uiso   1.00
C896   C     0.90204   0.78543   0.07987   0.00000  Uiso   1.00
C897   C     0.83491   0.81068   0.08186   0.00000  Uiso   1.00
C898   C     0.99316   0.84111   0.23819   0.00000  Uiso   1.00
C899   C     0.67373   0.82309   0.26350   0.00000  Uiso   1.00
C900   C     0.75523   0.86318   0.41966   0.00000  Uiso   1.00
C901   C     0.84407   0.98830   0.23700   0.00000  Uiso   1.00
C902   C     0.81730   0.67930   0.26428   0.00000  Uiso   1.00
C903   C     0.82257   0.72304   0.25921   0.00000  Uiso   1.00
C904   C     0.84306   0.94425   0.24142   0.00000  Uiso   1.00
C905   C     0.85454   0.81210   0.14401   0.00000  Uiso   1.00
C906   C     0.81203   0.85404   0.35632   0.00000  Uiso   1.00
C907   C     0.79734   0.85530   0.39963   0.00000  Uiso   1.00
C908   C     0.86403   0.80237   0.10121   0.00000  Uiso   1.00
C909   C     0.73885   0.85680   0.45936   0.00000  Uiso   1.00
C910   C     0.98559   0.76646   0.30019   0.00000  Uiso   1.00
C911   C     0.82360   0.84239   0.42014   0.00000  Uiso   1.00
C912   C     0.96205   0.73499   0.27487   0.00000  Uiso   1.00
C913   C     0.96976   0.69027   0.27698   0.00000  Uiso   1.00
C914   C     0.85771   0.99421   0.17122   0.00000  Uiso   1.00
C915   C     0.88556   0.68569   0.13788   0.00000  Uiso   1.00
C916   C     0.86960   0.67566   0.10074   0.00000  Uiso   1.00
C917   C     0.75340   0.68533   0.31546   0.00000  Uiso   1.00
C918   C     0.75825   0.71589   0.35148   0.00000  Uiso   1.00
C919   C     0.72156   0.74344   0.36614   0.00000  Uiso   1.00
C920   C     0.96903   0.80142   0.08886   0.00000  Uiso   1.00
C921   C     0.88622   0.88375   0.41650   0.00000  Uiso   1.00
C922   C     0.80523   0.82943   0.45847   0.00000  Uiso   1.00
C923   C     0.73796   0.76335   0.07533   0.00000  Uiso   1.00
C924   C     0.85315   0.73115   0.41223   0.00000  Uiso   1.00
C925   C     0.87071   0.71405   0.36904   0.00000  Uiso   1.00
C926   C     0.85559   0.66782   0.36147   0.00000  Uiso   1.00
C927   C     0.76335   0.83981   0.47882   0.00000  Uiso   1.00
C928   C     0.82785   0.80893   0.47810   0.00000  Uiso   1.00
C929   C     0.81310   0.80917   0.01994   0.00000  Uiso   1.00
C930   C     0.76980   0.81693   0.03888   0.00000  Uiso   1.00
C931   C     0.74595   0.83265   0.01828   0.00000  Uiso   1.00
H932   H     0.71351   0.83951   0.03348   0.00000  Uiso   1.00
H933   H     0.92705   0.73790   0.28544   0.00000  Uiso   1.00
H934   H     0.97342   0.74175   0.24351   0.00000  Uiso   1.00
H935   H     0.67107   0.68620   0.26470   0.00000  Uiso   1.00
H936   H     0.95125   0.66827   0.25937   0.00000  Uiso   1.00
H937   H     0.95920   0.68260   0.30804   0.00000  Uiso   1.00
H938   H     0.82394   0.66834   0.17747   0.00000  Uiso   1.00
H939   H     0.85909   0.96029   0.16128   0.00000  Uiso   1.00
H940   H     0.88485   0.71959   0.14788   0.00000  Uiso   1.00
H941   H     0.91927   0.67820   0.13073   0.00000  Uiso   1.00
H942   H     0.86893   0.97501   0.09082   0.00000  Uiso   1.00
H943   H     0.93838   0.76085   0.02245   0.00000  Uiso   1.00
H944   H     0.89151   0.69279   0.07660   0.00000  Uiso   1.00
H945   H     0.83688   0.68532   0.10667   0.00000  Uiso   1.00
H946   H     0.72608   0.99478   0.32574   0.00000  Uiso   1.00
H947   H     0.74409   0.70101   0.29360   0.00000  Uiso   1.00
H948   H     0.75867   0.69799   0.37579   0.00000  Uiso   1.00
H949   H     0.78889   0.73635   0.34398   0.00000  Uiso   1.00
H950   H     0.72302   0.76447   0.34362   0.00000  Uiso   1.00
H951   H     0.72463   0.76301   0.39374   0.00000  Uiso   1.00
H952   H     0.69008   0.72401   0.37240   0.00000  Uiso   1.00
H953   H     0.96437   0.83497   0.09041   0.00000  Uiso   1.00
H954   H     0.68267   0.85590   0.21387   0.00000  Uiso   1.00
H955   H     0.98792   0.79007   0.05883   0.00000  Uiso   1.00
H956   H     0.98789   0.79920   0.10990   0.00000  Uiso   1.00
H957   H     0.88138   0.88692   0.44911   0.00000  Uiso   1.00
H958   H     0.87355   0.91002   0.40787   0.00000  Uiso   1.00
H959   H     0.92130   0.88590   0.40243   0.00000  Uiso   1.00
H960   H     0.76704   0.74642   0.06727   0.00000  Uiso   1.00
H961   H     0.71796   0.75193   0.05446   0.00000  Uiso   1.00
H962   H     0.71880   0.75575   0.10522   0.00000  Uiso   1.00
H963   H     0.81757   0.72997   0.41929   0.00000  Uiso   1.00
H964   H     0.86163   0.71087   0.43118   0.00000  Uiso   1.00
H965   H     0.80830   0.82727   0.09936   0.00000  Uiso   1.00
H966   H     0.86046   0.73214   0.34962   0.00000  Uiso   1.00
H967   H     0.90630   0.71794   0.36145   0.00000  Uiso   1.00
H968   H     0.86823   0.98237   0.37866   0.00000  Uiso   1.00
H969   H     0.86764   0.99047   0.32951   0.00000  Uiso   1.00
H970   H     0.82003   0.99584   0.37003   0.00000  Uiso   1.00
H971   H     0.91758   0.75912   0.46200   0.00000  Uiso   1.00
H972   H     0.70639   0.86378   0.47451   0.00000  Uiso   1.00
H973   H     0.73465   0.87336   0.40441   0.00000  Uiso   1.00
H974   H     0.97211   0.76048   0.33161   0.00000  Uiso   1.00
H975   H     0.68671   0.76133   0.29263   0.00000  Uiso   1.00
O976   O     0.83333   0.83333   0.25000   0.00000  Uiso   1.00
O977   O     0.82360   0.79060   0.16625   0.00000  Uiso   1.00
O978   O     0.79354   0.87313   0.33749   0.00000  Uiso   1.00
O979   O     0.87755   0.84159   0.15877   0.00000  Uiso   1.00
O980   O     0.83865   0.82802   0.33749   0.00000  Uiso   1.00
O981   O     0.97893   0.80790   0.29731   0.00000  Uiso   1.00
O982   O     0.87351   0.67184   0.20492   0.00000  Uiso   1.00
O983   O     0.79077   0.99760   0.29914   0.00000  Uiso   1.00
O984   O     0.92975   0.77618   0.09991   0.00000  Uiso   1.00
O985   O     0.86744   0.84481   0.40300   0.00000  Uiso   1.00
O986   O     0.74879   0.80699   0.07669   0.00000  Uiso   1.00
O987   O     0.84515   0.74768   0.27821   0.00000  Uiso   1.00
O988   O     0.87119   0.77292   0.41763   0.00000  Uiso   1.00
O989   O     0.81247   0.92803   0.26767   0.00000  Uiso   1.00
O990   O     0.74119   0.79917   0.23607   0.00000  Uiso   1.00
O991   O     0.93452   0.85845   0.21805   0.00000  Uiso   1.00
O992   O     0.73656   0.85627   0.27820   0.00000  Uiso   1.00
O993   O     0.92106   0.81944   0.26768   0.00000  Uiso   1.00
O994   O     0.80467   0.73570   0.23607   0.00000  Uiso   1.00
O995   O     0.87104   0.92193   0.21805   0.00000  Uiso   1.00
Zn996  Zn    0.85910   0.80756   0.28278   0.00000  Uiso   1.00
Zn997  Zn    0.80125   0.79044   0.22258   0.00000  Uiso   1.00
Zn998  Zn    0.87833   0.86331   0.21188   0.00000  Uiso   1.00
Zn999  Zn    0.79465   0.87202   0.28277   0.00000  Uiso   1.00
C1000  C     0.05270   0.16004   0.75858   0.00000  Uiso   1.00
C1001  C     0.19639   0.11931   0.95766   0.00000  Uiso   1.00
C1002  C     0.22288   0.10799   0.97834   0.00000  Uiso   1.00
C1003  C     0.28090   0.17340   0.74156   0.00000  Uiso   1.00
C1004  C     0.21384   0.11685   0.51925   0.00000  Uiso   1.00
C1005  C     0.17525   0.13386   0.54072   0.00000  Uiso   1.00
C1006  C     0.24299   0.10851   0.53891   0.00000  Uiso   1.00
C1007  C     0.23537   0.11877   0.57987   0.00000  Uiso   1.00
C1008  C     0.16824   0.14402   0.58186   0.00000  Uiso   1.00
C1009  C     0.32649   0.17445   0.73819   0.00000  Uiso   1.00
C1010  C     0.00706   0.15643   0.76350   0.00000  Uiso   1.00
C1011  C     0.08856   0.19651   0.91966   0.00000  Uiso   1.00
C1012  C     0.17741   0.32163   0.73700   0.00000  Uiso   1.00
C1013  C     0.15063   0.01263   0.76428   0.00000  Uiso   1.00
C1014  C     0.15590   0.05637   0.75921   0.00000  Uiso   1.00
C1015  C     0.17639   0.27759   0.74142   0.00000  Uiso   1.00
C1016  C     0.18787   0.14544   0.64401   0.00000  Uiso   1.00
C1017  C     0.14536   0.18737   0.85632   0.00000  Uiso   1.00
C1018  C     0.13068   0.18863   0.89963   0.00000  Uiso   1.00
C1019  C     0.19736   0.13571   0.60121   0.00000  Uiso   1.00
C1020  C     0.07219   0.19014   0.95936   0.00000  Uiso   1.00
C1021  C     0.31892   0.09979   0.80019   0.00000  Uiso   1.00
C1022  C     0.15693   0.17573   0.92014   0.00000  Uiso   1.00
C1023  C     0.29538   0.06832   0.77487   0.00000  Uiso   1.00
C1024  C     0.30310   0.02361   0.77698   0.00000  Uiso   1.00
C1025  C     0.19104   0.32755   0.67122   0.00000  Uiso   1.00
C1026  C     0.21889   0.01902   0.63788   0.00000  Uiso   1.00
C1027  C     0.20293   0.00899   0.60074   0.00000  Uiso   1.00
C1028  C     0.08674   0.01866   0.81546   0.00000  Uiso   1.00
C1029  C     0.09158   0.04923   0.85148   0.00000  Uiso   1.00
C1030  C     0.05490   0.07677   0.86614   0.00000  Uiso   1.00
C1031  C     0.30236   0.13475   0.58886   0.00000  Uiso   1.00
C1032  C     0.21956   0.21708   0.91650   0.00000  Uiso   1.00
C1033  C     0.13856   0.16276   0.95847   0.00000  Uiso   1.00
C1034  C     0.07129   0.09668   0.57533   0.00000  Uiso   1.00
C1035  C     0.18648   0.06448   0.91223   0.00000  Uiso   1.00
C1036  C     0.20404   0.04739   0.86904   0.00000  Uiso   1.00
C1037  C     0.18893   0.00116   0.86147   0.00000  Uiso   1.00
C1038  C     0.09668   0.17314   0.97882   0.00000  Uiso   1.00
C1039  C     0.16118   0.14226   0.97810   0.00000  Uiso   1.00
C1040  C     0.14643   0.14250   0.51994   0.00000  Uiso   1.00
C1041  C     0.10313   0.15026   0.53888   0.00000  Uiso   1.00
C1042  C     0.07929   0.16598   0.51828   0.00000  Uiso   1.00
H1043  H     0.04685   0.17284   0.53348   0.00000  Uiso   1.00
H1044  H     0.26039   0.07124   0.78544   0.00000  Uiso   1.00
H1045  H     0.30676   0.07508   0.74351   0.00000  Uiso   1.00
H1046  H     0.00440   0.01954   0.76470   0.00000  Uiso   1.00
H1047  H     0.28458   0.00160   0.75937   0.00000  Uiso   1.00
H1048  H     0.29254   0.01593   0.80804   0.00000  Uiso   1.00
H1049  H     0.15728   0.00167   0.67747   0.00000  Uiso   1.00
H1050  H     0.19242   0.29362   0.66128   0.00000  Uiso   1.00
H1051  H     0.21818   0.05292   0.64788   0.00000  Uiso   1.00
H1052  H     0.25260   0.01154   0.63073   0.00000  Uiso   1.00
H1053  H     0.20226   0.30834   0.59082   0.00000  Uiso   1.00
H1054  H     0.27171   0.09418   0.52245   0.00000  Uiso   1.00
H1055  H     0.22484   0.02612   0.57660   0.00000  Uiso   1.00
H1056  H     0.17021   0.01865   0.60667   0.00000  Uiso   1.00
H1057  H     0.05941   0.32812   0.82574   0.00000  Uiso   1.00
H1058  H     0.07743   0.03435   0.79360   0.00000  Uiso   1.00
H1059  H     0.09201   0.03132   0.87579   0.00000  Uiso   1.00
H1060  H     0.12222   0.06968   0.84398   0.00000  Uiso   1.00
H1061  H     0.05635   0.09781   0.84362   0.00000  Uiso   1.00
H1062  H     0.05796   0.09634   0.89374   0.00000  Uiso   1.00
H1063  H     0.02342   0.05734   0.87240   0.00000  Uiso   1.00
H1064  H     0.29770   0.16830   0.59041   0.00000  Uiso   1.00
H1065  H     0.01601   0.18923   0.71387   0.00000  Uiso   1.00
H1066  H     0.32126   0.12340   0.55883   0.00000  Uiso   1.00
H1067  H     0.32123   0.13253   0.60990   0.00000  Uiso   1.00
H1068  H     0.21471   0.22025   0.94911   0.00000  Uiso   1.00
H1069  H     0.20688   0.24335   0.90787   0.00000  Uiso   1.00
H1070  H     0.25464   0.21924   0.90243   0.00000  Uiso   1.00
H1071  H     0.10037   0.07976   0.56727   0.00000  Uiso   1.00
H1072  H     0.05129   0.08527   0.55446   0.00000  Uiso   1.00
H1073  H     0.05213   0.08909   0.60522   0.00000  Uiso   1.00
H1074  H     0.15090   0.06330   0.91929   0.00000  Uiso   1.00
H1075  H     0.19497   0.04420   0.93118   0.00000  Uiso   1.00
H1076  H     0.14164   0.16060   0.59936   0.00000  Uiso   1.00
H1077  H     0.19380   0.06547   0.84962   0.00000  Uiso   1.00
H1078  H     0.23963   0.05128   0.86145   0.00000  Uiso   1.00
H1079  H     0.20156   0.31571   0.87866   0.00000  Uiso   1.00
H1080  H     0.20098   0.32381   0.82951   0.00000  Uiso   1.00
H1081  H     0.15337   0.32917   0.87003   0.00000  Uiso   1.00
H1082  H     0.25091   0.09245   0.96200   0.00000  Uiso   1.00
H1083  H     0.03972   0.19711   0.97451   0.00000  Uiso   1.00
H1084  H     0.06798   0.20670   0.90441   0.00000  Uiso   1.00
H1085  H     0.30545   0.09381   0.83161   0.00000  Uiso   1.00
H1086  H     0.02004   0.09467   0.79263   0.00000  Uiso   1.00
O1087  O     0.16667   0.16667   0.75000   0.00000  Uiso   1.00
O1088  O     0.15693   0.12393   0.66625   0.00000  Uiso   1.00
O1089  O     0.12687   0.20646   0.83749   0.00000  Uiso   1.00
O1090  O     0.21088   0.17493   0.65877   0.00000  Uiso   1.00
O1091  O     0.17198   0.16135   0.83749   0.00000  Uiso   1.00
O1092  O     0.31226   0.14123   0.79731   0.00000  Uiso   1.00
O1093  O     0.20685   0.00517   0.70492   0.00000  Uiso   1.00
O1094  O     0.12410   0.33093   0.79914   0.00000  Uiso   1.00
O1095  O     0.26308   0.10952   0.59991   0.00000  Uiso   1.00
O1096  O     0.20077   0.17815   0.90300   0.00000  Uiso   1.00
O1097  O     0.08213   0.14033   0.57669   0.00000  Uiso   1.00
O1098  O     0.17849   0.08101   0.77821   0.00000  Uiso   1.00
O1099  O     0.20452   0.10626   0.91763   0.00000  Uiso   1.00
O1100  O     0.14581   0.26136   0.76767   0.00000  Uiso   1.00
O1101  O     0.07452   0.13251   0.73607   0.00000  Uiso   1.00
O1102  O     0.26785   0.19179   0.71805   0.00000  Uiso   1.00
O1103  O     0.06990   0.18960   0.77820   0.00000  Uiso   1.00
O1104  O     0.25440   0.15277   0.76768   0.00000  Uiso   1.00
O1105  O     0.13800   0.06903   0.73607   0.00000  Uiso   1.00
O1106  O     0.20437   0.25527   0.71805   0.00000  Uiso   1.00
Zn1107 Zn    0.19244   0.14090   0.78278   0.00000  Uiso   1.00
Zn1108 Zn    0.13459   0.12378   0.72258   0.00000  Uiso   1.00
Zn1109 Zn    0.21166   0.19664   0.71188   0.00000  Uiso   1.00
Zn1110 Zn    0.12798   0.20535   0.78277   0.00000  Uiso   1.00
C1111  C     0.38604   0.16004   0.75858   0.00000  Uiso   1.00
C1112  C     0.52972   0.11931   0.95766   0.00000  Uiso   1.00
C1113  C     0.55621   0.10799   0.97834   0.00000  Uiso   1.00
C1114  C     0.61423   0.17340   0.74156   0.00000  Uiso   1.00
C1115  C     0.54717   0.11685   0.51925   0.00000  Uiso   1.00
C1116  C     0.50858   0.13386   0.54072   0.00000  Uiso   1.00
C1117  C     0.57632   0.10851   0.53891   0.00000  Uiso   1.00
C1118  C     0.56870   0.11877   0.57987   0.00000  Uiso   1.00
C1119  C     0.50157   0.14402   0.58186   0.00000  Uiso   1.00
C1120  C     0.65982   0.17445   0.73819   0.00000  Uiso   1.00
C1121  C     0.34039   0.15643   0.76350   0.00000  Uiso   1.00
C1122  C     0.42190   0.19651   0.91966   0.00000  Uiso   1.00
C1123  C     0.51074   0.32163   0.73700   0.00000  Uiso   1.00
C1124  C     0.48396   0.01263   0.76428   0.00000  Uiso   1.00
C1125  C     0.48923   0.05637   0.75921   0.00000  Uiso   1.00
C1126  C     0.50972   0.27759   0.74142   0.00000  Uiso   1.00
C1127  C     0.52121   0.14544   0.64401   0.00000  Uiso   1.00
C1128  C     0.47869   0.18737   0.85632   0.00000  Uiso   1.00
C1129  C     0.46401   0.18863   0.89963   0.00000  Uiso   1.00
C1130  C     0.53070   0.13571   0.60121   0.00000  Uiso   1.00
C1131  C     0.40552   0.19014   0.95936   0.00000  Uiso   1.00
C1132  C     0.65225   0.09979   0.80019   0.00000  Uiso   1.00
C1133  C     0.49027   0.17573   0.92014   0.00000  Uiso   1.00
C1134  C     0.62872   0.06832   0.77487   0.00000  Uiso   1.00
C1135  C     0.63643   0.02361   0.77698   0.00000  Uiso   1.00
C1136  C     0.52438   0.32755   0.67122   0.00000  Uiso   1.00
C1137  C     0.55222   0.01902   0.63788   0.00000  Uiso   1.00
C1138  C     0.53627   0.00899   0.60074   0.00000  Uiso   1.00
C1139  C     0.42007   0.01866   0.81546   0.00000  Uiso   1.00
C1140  C     0.42491   0.04923   0.85148   0.00000  Uiso   1.00
C1141  C     0.38823   0.07677   0.86614   0.00000  Uiso   1.00
C1142  C     0.63569   0.13475   0.58886   0.00000  Uiso   1.00
C1143  C     0.55289   0.21708   0.91650   0.00000  Uiso   1.00
C1144  C     0.47189   0.16276   0.95847   0.00000  Uiso   1.00
C1145  C     0.40463   0.09668   0.57533   0.00000  Uiso   1.00
C1146  C     0.51981   0.06448   0.91223   0.00000  Uiso   1.00
C1147  C     0.53738   0.04739   0.86904   0.00000  Uiso   1.00
C1148  C     0.52226   0.00116   0.86147   0.00000  Uiso   1.00
C1149  C     0.43001   0.17314   0.97882   0.00000  Uiso   1.00
C1150  C     0.49451   0.14226   0.97810   0.00000  Uiso   1.00
C1151  C     0.47976   0.14250   0.51994   0.00000  Uiso   1.00
C1152  C     0.43647   0.15026   0.53888   0.00000  Uiso   1.00
C1153  C     0.41262   0.16598   0.51828   0.00000  Uiso   1.00
H1154  H     0.38018   0.17284   0.53348   0.00000  Uiso   1.00
H1155  H     0.59372   0.07124   0.78544   0.00000  Uiso   1.00
H1156  H     0.64009   0.07508   0.74351   0.00000  Uiso   1.00
H1157  H     0.33774   0.01954   0.76470   0.00000  Uiso   1.00
H1158  H     0.61792   0.00160   0.75937   0.00000  Uiso   1.00
H1159  H     0.62587   0.01593   0.80804   0.00000  Uiso   1.00
H1160  H     0.49061   0.00167   0.67747   0.00000  Uiso   1.00
H1161  H     0.52576   0.29362   0.66128   0.00000  Uiso   1.00
H1162  H     0.55151   0.05292   0.64788   0.00000  Uiso   1.00
H1163  H     0.58593   0.01154   0.63073   0.00000  Uiso   1.00
H1164  H     0.53560   0.30834   0.59082   0.00000  Uiso   1.00
H1165  H     0.60505   0.09418   0.52245   0.00000  Uiso   1.00
H1166  H     0.55817   0.02612   0.57660   0.00000  Uiso   1.00
H1167  H     0.50354   0.01865   0.60667   0.00000  Uiso   1.00
H1168  H     0.39275   0.32812   0.82574   0.00000  Uiso   1.00
H1169  H     0.41076   0.03435   0.79360   0.00000  Uiso   1.00
H1170  H     0.42534   0.03132   0.87579   0.00000  Uiso   1.00
H1171  H     0.45555   0.06968   0.84398   0.00000  Uiso   1.00
H1172  H     0.38968   0.09781   0.84362   0.00000  Uiso   1.00
H1173  H     0.39129   0.09634   0.89374   0.00000  Uiso   1.00
H1174  H     0.35675   0.05734   0.87240   0.00000  Uiso   1.00
H1175  H     0.63104   0.16830   0.59041   0.00000  Uiso   1.00
H1176  H     0.34934   0.18923   0.71387   0.00000  Uiso   1.00
H1177  H     0.65459   0.12340   0.55883   0.00000  Uiso   1.00
H1178  H     0.65456   0.13253   0.60990   0.00000  Uiso   1.00
H1179  H     0.54805   0.22025   0.94911   0.00000  Uiso   1.00
H1180  H     0.54022   0.24335   0.90787   0.00000  Uiso   1.00
H1181  H     0.58797   0.21924   0.90243   0.00000  Uiso   1.00
H1182  H     0.43371   0.07976   0.56727   0.00000  Uiso   1.00
H1183  H     0.38462   0.08527   0.55446   0.00000  Uiso   1.00
H1184  H     0.38547   0.08909   0.60522   0.00000  Uiso   1.00
H1185  H     0.48423   0.06330   0.91929   0.00000  Uiso   1.00
H1186  H     0.52830   0.04420   0.93118   0.00000  Uiso   1.00
H1187  H     0.47497   0.16060   0.59936   0.00000  Uiso   1.00
H1188  H     0.52713   0.06547   0.84962   0.00000  Uiso   1.00
H1189  H     0.57296   0.05128   0.86145   0.00000  Uiso   1.00
H1190  H     0.53489   0.31571   0.87866   0.00000  Uiso   1.00
H1191  H     0.53431   0.32381   0.82951   0.00000  Uiso   1.00
H1192  H     0.48670   0.32917   0.87003   0.00000  Uiso   1.00
H1193  H     0.58424   0.09245   0.96200   0.00000  Uiso   1.00
H1194  H     0.37306   0.19711   0.97451   0.00000  Uiso   1.00
H1195  H     0.40131   0.20670   0.90441   0.00000  Uiso   1.00
H1196  H     0.63878   0.09381   0.83161   0.00000  Uiso   1.00
H1197  H     0.35338   0.09467   0.79263   0.00000  Uiso   1.00
O1198  O     0.50000   0.16667   0.75000   0.00000  Uiso   1.00
O1199  O     0.49027   0.12393   0.66625   0.00000  Uiso   1.00
O1200  O     0.46020   0.20646   0.83749   0.00000  Uiso   1.00
O1201  O     0.54421   0.17493   0.65877   0.00000  Uiso   1.00
O1202  O     0.50532   0.16135   0.83749   0.00000  Uiso   1.00
O1203  O     0.64559   0.14123   0.79731   0.00000  Uiso   1.00
O1204  O     0.54018   0.00517   0.70492   0.00000  Uiso   1.00
O1205  O     0.45744   0.33093   0.79914   0.00000  Uiso   1.00
O1206  O     0.59642   0.10952   0.59991   0.00000  Uiso   1.00
O1207  O     0.53410   0.17815   0.90300   0.00000  Uiso   1.00
O1208  O     0.41546   0.14033   0.57669   0.00000  Uiso   1.00
O1209  O     0.51182   0.08101   0.77821   0.00000  Uiso   1.00
O1210  O     0.53786   0.10626   0.91763   0.00000  Uiso   1.00
O1211  O     0.47914   0.26136   0.76767   0.00000  Uiso   1.00
O1212  O     0.40785   0.13251   0.73607   0.00000  Uiso   1.00
O1213  O     0.60119   0.19179   0.71805   0.00000  Uiso   1.00
O1214  O     0.40323   0.18960   0.77820   0.00000  Uiso   1.00
O1215  O     0.58773   0.15277   0.76768   0.00000  Uiso   1.00
O1216  O     0.47133   0.06903   0.73607   0.00000  Uiso   1.00
O1217  O     0.53771   0.25527   0.71805   0.00000  Uiso   1.00
Zn1218 Zn    0.52577   0.14090   0.78278   0.00000  Uiso   1.00
Zn1219 Zn    0.46792   0.12378   0.72258   0.00000  Uiso   1.00
Zn1220 Zn    0.54500   0.19664   0.71188   0.00000  Uiso   1.00
Zn1221 Zn    0.46131   0.20535   0.78277   0.00000  Uiso   1.00
C1222  C     0.71937   0.16004   0.75858   0.00000  Uiso   1.00
C1223  C     0.86305   0.11931   0.95766   0.00000  Uiso   1.00
C1224  C     0.88955   0.10799   0.97834   0.00000  Uiso   1.00
C1225  C     0.94757   0.17340   0.74156   0.00000  Uiso   1.00
C1226  C     0.88051   0.11685   0.51925   0.00000  Uiso   1.00
C1227  C     0.84191   0.13386   0.54072   0.00000  Uiso   1.00
C1228  C     0.90965   0.10851   0.53891   0.00000  Uiso   1.00
C1229  C     0.90204   0.11877   0.57987   0.00000  Uiso   1.00
C1230  C     0.83491   0.14402   0.58186   0.00000  Uiso   1.00
C1231  C     0.99316   0.17445   0.73819   0.00000  Uiso   1.00
C1232  C     0.67373   0.15643   0.76350   0.00000  Uiso   1.00
C1233  C     0.75523   0.19651   0.91966   0.00000  Uiso   1.00
C1234  C     0.84407   0.32163   0.73700   0.00000  Uiso   1.00
C1235  C     0.81730   0.01263   0.76428   0.00000  Uiso   1.00
C1236  C     0.82257   0.05637   0.75921   0.00000  Uiso   1.00
C1237  C     0.84306   0.27759   0.74142   0.00000  Uiso   1.00
C1238  C     0.85454   0.14544   0.64401   0.00000  Uiso   1.00
C1239  C     0.81203   0.18737   0.85632   0.00000  Uiso   1.00
C1240  C     0.79734   0.18863   0.89963   0.00000  Uiso   1.00
C1241  C     0.86403   0.13571   0.60121   0.00000  Uiso   1.00
C1242  C     0.73885   0.19014   0.95936   0.00000  Uiso   1.00
C1243  C     0.98559   0.09979   0.80019   0.00000  Uiso   1.00
C1244  C     0.82360   0.17573   0.92014   0.00000  Uiso   1.00
C1245  C     0.96205   0.06832   0.77487   0.00000  Uiso   1.00
C1246  C     0.96976   0.02361   0.77698   0.00000  Uiso   1.00
C1247  C     0.85771   0.32755   0.67122   0.00000  Uiso   1.00
C1248  C     0.88556   0.01902   0.63788   0.00000  Uiso   1.00
C1249  C     0.86960   0.00899   0.60074   0.00000  Uiso   1.00
C1250  C     0.75340   0.01866   0.81546   0.00000  Uiso   1.00
C1251  C     0.75825   0.04923   0.85148   0.00000  Uiso   1.00
C1252  C     0.72156   0.07677   0.86614   0.00000  Uiso   1.00
C1253  C     0.96903   0.13475   0.58886   0.00000  Uiso   1.00
C1254  C     0.88622   0.21708   0.91650   0.00000  Uiso   1.00
C1255  C     0.80523   0.16276   0.95847   0.00000  Uiso   1.00
C1256  C     0.73796   0.09668   0.57533   0.00000  Uiso   1.00
C1257  C     0.85315   0.06448   0.91223   0.00000  Uiso   1.00
C1258  C     0.87071   0.04739   0.86904   0.00000  Uiso   1.00
C1259  C     0.85559   0.00116   0.86147   0.00000  Uiso   1.00
C1260  C     0.76335   0.17314   0.97882   0.00000  Uiso   1.00
C1261  C     0.82785   0.14226   0.97810   0.00000  Uiso   1.00
C1262  C     0.81310   0.14250   0.51994   0.00000  Uiso   1.00
C1263  C     0.76980   0.15026   0.53888   0.00000  Uiso   1.00
C1264  C     0.74595   0.16598   0.51828   0.00000  Uiso   1.00
H1265  H     0.71351   0.17284   0.53348   0.00000  Uiso   1.00
H1266  H     0.92705   0.07124   0.78544   0.00000  Uiso   1.00
H1267  H     0.97342   0.07508   0.74351   0.00000  Uiso   1.00
H1268  H     0.67107   0.01954   0.76470   0.00000  Uiso   1.00
H1269  H     0.95125   0.00160   0.75937   0.00000  Uiso   1.00
H1270  H     0.95920   0.01593   0.80804   0.00000  Uiso   1.00
H1271  H     0.82394   0.00167   0.67747   0.00000  Uiso   1.00
H1272  H     0.85909   0.29362   0.66128   0.00000  Uiso   1.00
H1273  H     0.88485   0.05292   0.64788   0.00000  Uiso   1.00
H1274  H     0.91927   0.01154   0.63073   0.00000  Uiso   1.00
H1275  H     0.86893   0.30834   0.59082   0.00000  Uiso   1.00
H1276  H     0.93838   0.09418   0.52245   0.00000  Uiso   1.00
H1277  H     0.89151   0.02612   0.57660   0.00000  Uiso   1.00
H1278  H     0.83688   0.01865   0.60667   0.00000  Uiso   1.00
H1279  H     0.72608   0.32812   0.82574   0.00000  Uiso   1.00
H1280  H     0.74409   0.03435   0.79360   0.00000  Uiso   1.00
H1281  H     0.75867   0.03132   0.87579   0.00000  Uiso   1.00
H1282  H     0.78889   0.06968   0.84398   0.00000  Uiso   1.00
H1283  H     0.72302   0.09781   0.84362   0.00000  Uiso   1.00
H1284  H     0.72463   0.09634   0.89374   0.00000  Uiso   1.00
H1285  H     0.69008   0.05734   0.87240   0.00000  Uiso   1.00
H1286  H     0.96437   0.16830   0.59041   0.00000  Uiso   1.00
H1287  H     0.68267   0.18923   0.71387   0.00000  Uiso   1.00
H1288  H     0.98792   0.12340   0.55883   0.00000  Uiso   1.00
H1289  H     0.98789   0.13253   0.60990   0.00000  Uiso   1.00
H1290  H     0.88138   0.22025   0.94911   0.00000  Uiso   1.00
H1291  H     0.87355   0.24335   0.90787   0.00000  Uiso   1.00
H1292  H     0.92130   0.21924   0.90243   0.00000  Uiso   1.00
H1293  H     0.76704   0.07976   0.56727   0.00000  Uiso   1.00
H1294  H     0.71796   0.08527   0.55446   0.00000  Uiso   1.00
H1295  H     0.71880   0.08909   0.60522   0.00000  Uiso   1.00
H1296  H     0.81757   0.06330   0.91929   0.00000  Uiso   1.00
H1297  H     0.86163   0.04420   0.93118   0.00000  Uiso   1.00
H1298  H     0.80830   0.16060   0.59936   0.00000  Uiso   1.00
H1299  H     0.86046   0.06547   0.84962   0.00000  Uiso   1.00
H1300  H     0.90630   0.05128   0.86145   0.00000  Uiso   1.00
H1301  H     0.86823   0.31571   0.87866   0.00000  Uiso   1.00
H1302  H     0.86764   0.32381   0.82951   0.00000  Uiso   1.00
H1303  H     0.82003   0.32917   0.87003   0.00000  Uiso   1.00
H1304  H     0.91758   0.09245   0.96200   0.00000  Uiso   1.00
H1305  H     0.70639   0.19711   0.97451   0.00000  Uiso   1.00
H1306  H     0.73465   0.20670   0.90441   0.00000  Uiso   1.00
H1307  H     0.97211   0.09381   0.83161   0.00000  Uiso   1.00
H1308  H     0.68671   0.09467   0.79263   0.00000  Uiso   1.00
O1309  O     0.83333   0.16667   0.75000   0.00000  Uiso   1.00
O1310  O     0.82360   0.12393   0.66625   0.00000  Uiso   1.00
O1311  O     0.79354   0.20646   0.83749   0.00000  Uiso   1.00
O1312  O     0.87755   0.17493   0.65877   0.00000  Uiso   1.00
O1313  O     0.83865   0.16135   0.83749   0.00000  Uiso   1.00
O1314  O     0.97893   0.14123   0.79731   0.00000  Uiso   1.00
O1315  O     0.87351   0.00517   0.70492   0.00000  Uiso   1.00
O1316  O     0.79077   0.33093   0.79914   0.00000  Uiso   1.00
O1317  O     0.92975   0.10952   0.59991   0.00000  Uiso   1.00
O1318  O     0.86744   0.17815   0.90300   0.00000  Uiso   1.00
O1319  O     0.74879   0.14033   0.57669   0.00000  Uiso   1.00
O1320  O     0.84515   0.08101   0.77821   0.00000  Uiso   1.00
O1321  O     0.87119   0.10626   0.91763   0.00000  Uiso   1.00
O1322  O     0.81247   0.26136   0.76767   0.00000  Uiso   1.00
O1323  O     0.74119   0.13251   0.73607   0.00000  Uiso   1.00
O1324  O     0.93452   0.19179   0.71805   0.00000  Uiso   1.00
O1325  O     0.73656   0.18960   0.77820   0.00000  Uiso   1.00
O1326  O     0.92106   0.15277   0.76768   0.00000  Uiso   1.00
O1327  O     0.80467   0.06903   0.73607   0.00000  Uiso   1.00
O1328  O     0.87104   0.25527   0.71805   0.00000  Uiso   1.00
Zn1329 Zn    0.85910   0.14090   0.78278   0.00000  Uiso   1.00
Zn1330 Zn    0.80125   0.12378   0.72258   0.00000  Uiso   1.00
Zn1331 Zn    0.87833   0.19664   0.71188   0.00000  Uiso   1.00
Zn1332 Zn    0.79465   0.20535   0.78277   0.00000  Uiso   1.00
C1333  C     0.05270   0.49338   0.75858   0.00000  Uiso   1.00
C1334  C     0.19639   0.45265   0.95766   0.00000  Uiso   1.00
C1335  C     0.22288   0.44132   0.97834   0.00000  Uiso   1.00
C1336  C     0.28090   0.50674   0.74156   0.00000  Uiso   1.00
C1337  C     0.21384   0.45019   0.51925   0.00000  Uiso   1.00
C1338  C     0.17525   0.46720   0.54072   0.00000  Uiso   1.00
C1339  C     0.24299   0.44184   0.53891   0.00000  Uiso   1.00
C1340  C     0.23537   0.45210   0.57987   0.00000  Uiso   1.00
C1341  C     0.16824   0.47735   0.58186   0.00000  Uiso   1.00
C1342  C     0.32649   0.50778   0.73819   0.00000  Uiso   1.00
C1343  C     0.00706   0.48976   0.76350   0.00000  Uiso   1.00
C1344  C     0.08856   0.52985   0.91966   0.00000  Uiso   1.00
C1345  C     0.17741   0.65497   0.73700   0.00000  Uiso   1.00
C1346  C     0.15063   0.34596   0.76428   0.00000  Uiso   1.00
C1347  C     0.15590   0.38970   0.75921   0.00000  Uiso   1.00
C1348  C     0.17639   0.61092   0.74142   0.00000  Uiso   1.00
C1349  C     0.18787   0.47877   0.64401   0.00000  Uiso   1.00
C1350  C     0.14536   0.52070   0.85632   0.00000  Uiso   1.00
C1351  C     0.13068   0.52196   0.89963   0.00000  Uiso   1.00
C1352  C     0.19736   0.46904   0.60121   0.00000  Uiso   1.00
C1353  C     0.07219   0.52347   0.95936   0.00000  Uiso   1.00
C1354  C     0.31892   0.43313   0.80019   0.00000  Uiso   1.00
C1355  C     0.15693   0.50906   0.92014   0.00000  Uiso   1.00
C1356  C     0.29538   0.40165   0.77487   0.00000  Uiso   1.00
C1357  C     0.30310   0.35694   0.77698   0.00000  Uiso   1.00
C1358  C     0.19104   0.66088   0.67122   0.00000  Uiso   1.00
C1359  C     0.21889   0.35236   0.63788   0.00000  Uiso   1.00
C1360  C     0.20293   0.34232   0.60074   0.00000  Uiso   1.00
C1361  C     0.08674   0.35200   0.81546   0.00000  Uiso   1.00
C1362  C     0.09158   0.38256   0.85148   0.00000  Uiso   1.00
C1363  C     0.05490   0.41011   0.86614   0.00000  Uiso   1.00
C1364  C     0.30236   0.46809   0.58886   0.00000  Uiso   1.00
C1365  C     0.21956   0.55042   0.91650   0.00000  Uiso   1.00
C1366  C     0.13856   0.49610   0.95847   0.00000  Uiso   1.00
C1367  C     0.07129   0.43002   0.57533   0.00000  Uiso   1.00
C1368  C     0.18648   0.39781   0.91223   0.00000  Uiso   1.00
C1369  C     0.20404   0.38072   0.86904   0.00000  Uiso   1.00
C1370  C     0.18893   0.33449   0.86147   0.00000  Uiso   1.00
C1371  C     0.09668   0.50647   0.97882   0.00000  Uiso   1.00
C1372  C     0.16118   0.47560   0.97810   0.00000  Uiso   1.00
C1373  C     0.14643   0.47583   0.51994   0.00000  Uiso   1.00
C1374  C     0.10313   0.48360   0.53888   0.00000  Uiso   1.00
C1375  C     0.07929   0.49931   0.51828   0.00000  Uiso   1.00
H1376  H     0.04685   0.50618   0.53348   0.00000  Uiso   1.00
H1377  H     0.26039   0.40457   0.78544   0.00000  Uiso   1.00
H1378  H     0.30676   0.40841   0.74351   0.00000  Uiso   1.00
H1379  H     0.00440   0.35287   0.76470   0.00000  Uiso   1.00
H1380  H     0.28458   0.33494   0.75937   0.00000  Uiso   1.00
H1381  H     0.29254   0.34927   0.80804   0.00000  Uiso   1.00
H1382  H     0.15728   0.33500   0.67747   0.00000  Uiso   1.00
H1383  H     0.19242   0.62696   0.66128   0.00000  Uiso   1.00
H1384  H     0.21818   0.38626   0.64788   0.00000  Uiso   1.00
H1385  H     0.25260   0.34487   0.63073   0.00000  Uiso   1.00
H1386  H     0.20226   0.64168   0.59082   0.00000  Uiso   1.00
H1387  H     0.27171   0.42751   0.52245   0.00000  Uiso   1.00
H1388  H     0.22484   0.35945   0.57660   0.00000  Uiso   1.00
H1389  H     0.17021   0.35199   0.60667   0.00000  Uiso   1.00
H1390  H     0.05941   0.66145   0.82574   0.00000  Uiso   1.00
H1391  H     0.07743   0.36768   0.79360   0.00000  Uiso   1.00
H1392  H     0.09201   0.36465   0.87579   0.00000  Uiso   1.00
H1393  H     0.12222   0.40302   0.84398   0.00000  Uiso   1.00
H1394  H     0.05635   0.43114   0.84362   0.00000  Uiso   1.00
H1395  H     0.05796   0.42968   0.89374   0.00000  Uiso   1.00
H1396  H     0.02342   0.39068   0.87240   0.00000  Uiso   1.00
H1397  H     0.29770   0.50164   0.59041   0.00000  Uiso   1.00
H1398  H     0.01601   0.52256   0.71387   0.00000  Uiso   1.00
H1399  H     0.32126   0.45673   0.55883   0.00000  Uiso   1.00
H1400  H     0.32123   0.46587   0.60990   0.00000  Uiso   1.00
H1401  H     0.21471   0.55358   0.94911   0.00000  Uiso   1.00
H1402  H     0.20688   0.57668   0.90787   0.00000  Uiso   1.00
H1403  H     0.25464   0.55257   0.90243   0.00000  Uiso   1.00
H1404  H     0.10037   0.41309   0.56727   0.00000  Uiso   1.00
H1405  H     0.05129   0.41860   0.55446   0.00000  Uiso   1.00
H1406  H     0.05213   0.42242   0.60522   0.00000  Uiso   1.00
H1407  H     0.15090   0.39664   0.91929   0.00000  Uiso   1.00
H1408  H     0.19497   0.37754   0.93118   0.00000  Uiso   1.00
H1409  H     0.14164   0.49393   0.59936   0.00000  Uiso   1.00
H1410  H     0.19380   0.39881   0.84962   0.00000  Uiso   1.00
H1411  H     0.23963   0.38461   0.86145   0.00000  Uiso   1.00
H1412  H     0.20156   0.64904   0.87866   0.00000  Uiso   1.00
H1413  H     0.20098   0.65714   0.82951   0.00000  Uiso   1.00
H1414  H     0.15337   0.66250   0.87003   0.00000  Uiso   1.00
H1415  H     0.25091   0.42579   0.96200   0.00000  Uiso   1.00
H1416  H     0.03972   0.53044   0.97451   0.00000  Uiso   1.00
H1417  H     0.06798   0.54003   0.90441   0.00000  Uiso   1.00
H1418  H     0.30545   0.42715   0.83161   0.00000  Uiso   1.00
H1419  H     0.02004   0.42800   0.79263   0.00000  Uiso   1.00
O1420  O     0.16667   0.50000   0.75000   0.00000  Uiso   1.00
O1421  O     0.15693   0.45726   0.66625   0.00000  Uiso   1.00
O1422  O     0.12687   0.53979   0.83749   0.00000  Uiso   1.00
O1423  O     0.21088   0.50826   0.65877   0.00000  Uiso   1.00
O1424  O     0.17198   0.49468   0.83749   0.00000  Uiso   1.00
O1425  O     0.31226   0.47457   0.79731   0.00000  Uiso   1.00
O1426  O     0.20685   0.33851   0.70492   0.00000  Uiso   1.00
O1427  O     0.12410   0.66427   0.79914   0.00000  Uiso   1.00
O1428  O     0.26308   0.44285   0.59991   0.00000  Uiso   1.00
O1429  O     0.20077   0.51148   0.90300   0.00000  Uiso   1.00
O1430  O     0.08213   0.47366   0.57669   0.00000  Uiso   1.00
O1431  O     0.17849   0.41434   0.77821   0.00000  Uiso   1.00
O1432  O     0.20452   0.43959   0.91763   0.00000  Uiso   1.00
O1433  O     0.14581   0.59469   0.76767   0.00000  Uiso   1.00
O1434  O     0.07452   0.46584   0.73607   0.00000  Uiso   1.00
O1435  O     0.26785   0.52512   0.71805   0.00000  Uiso   1.00
O1436  O     0.06990   0.52293   0.77820   0.00000  Uiso   1.00
O1437  O     0.25440   0.48610   0.76768   0.00000  Uiso   1.00
O1438  O     0.13800   0.40236   0.73607   0.00000  Uiso   1.00
O1439  O     0.20437   0.58860   0.71805   0.00000  Uiso   1.00
Zn1440 Zn    0.19244   0.47423   0.78278   0.00000  Uiso   1.00
Zn1441 Zn    0.13459   0.45711   0.72258   0.00000  Uiso   1.00
Zn1442 Zn    0.21166   0.52997   0.71188   0.00000  Uiso   1.00
Zn1443 Zn    0.12798   0.53868   0.78277   0.00000  Uiso   1.00
C1444  C     0.38604   0.49338   0.75858   0.00000  Uiso   1.00
C1445  C     0.52972   0.45265   0.95766   0.00000  Uiso   1.00
C1446  C     0.55621   0.44132   0.97834   0.00000  Uiso   1.00
C1447  C     0.61423   0.50674   0.74156   0.00000  Uiso   1.00
C1448  C     0.54717   0.45019   0.51925   0.00000  Uiso   1.00
C1449  C     0.50858   0.46720   0.54072   0.00000  Uiso   1.00
C1450  C     0.57632   0.44184   0.53891   0.00000  Uiso   1.00
C1451  C     0.56870   0.45210   0.57987   0.00000  Uiso   1.00
C1452  C     0.50157   0.47735   0.58186   0.00000  Uiso   1.00
C1453  C     0.65982   0.50778   0.73819   0.00000  Uiso   1.00
C1454  C     0.34039   0.48976   0.76350   0.00000  Uiso   1.00
C1455  C     0.42190   0.52985   0.91966   0.00000  Uiso   1.00
C1456  C     0.51074   0.65497   0.73700   0.00000  Uiso   1.00
C1457  C     0.48396   0.34596   0.76428   0.00000  Uiso   1.00
C1458  C     0.48923   0.38970   0.75921   0.00000  Uiso   1.00
C1459  C     0.50972   0.61092   0.74142   0.00000  Uiso   1.00
C1460  C     0.52121   0.47877   0.64401   0.00000  Uiso   1.00
C1461  C     0.47869   0.52070   0.85632   0.00000  Uiso   1.00
C1462  C     0.46401   0.52196   0.89963   0.00000  Uiso   1.00
C1463  C     0.53070   0.46904   0.60121   0.00000  Uiso   1.00
C1464  C     0.40552   0.52347   0.95936   0.00000  Uiso   1.00
C1465  C     0.65225   0.43313   0.80019   0.00000  Uiso   1.00
C1466  C     0.49027   0.50906   0.92014   0.00000  Uiso   1.00
C1467  C     0.62872   0.40165   0.77487   0.00000  Uiso   1.00
C1468  C     0.63643   0.35694   0.77698   0.00000  Uiso   1.00
C1469  C     0.52438   0.66088   0.67122   0.00000  Uiso   1.00
C1470  C     0.55222   0.35236   0.63788   0.00000  Uiso   1.00
C1471  C     0.53627   0.34232   0.60074   0.00000  Uiso   1.00
C1472  C     0.42007   0.35200   0.81546   0.00000  Uiso   1.00
C1473  C     0.42491   0.38256   0.85148   0.00000  Uiso   1.00
C1474  C     0.38823   0.41011   0.86614   0.00000  Uiso   1.00
C1475  C     0.63569   0.46809   0.58886   0.00000  Uiso   1.00
C1476  C     0.55289   0.55042   0.91650   0.00000  Uiso   1.00
C1477  C     0.47189   0.49610   0.95847   0.00000  Uiso   1.00
C1478  C     0.40463   0.43002   0.57533   0.00000  Uiso   1.00
C1479  C     0.51981   0.39781   0.91223   0.00000  Uiso   1.00
C1480  C     0.53738   0.38072   0.86904   0.00000  Uiso   1.00
C1481  C     0.52226   0.33449   0.86147   0.00000  Uiso   1.00
C1482  C     0.43001   0.50647   0.97882   0.00000  Uiso   1.00
C1483  C     0.49451   0.47560   0.97810   0.00000  Uiso   1.00
C1484  C     0.47976   0.47583   0.51994   0.00000  Uiso   1.00
C1485  C     0.43647   0.48360   0.53888   0.00000  Uiso   1.00
C1486  C     0.41262   0.49931   0.51828   0.00000  Uiso   1.00
H1487  H     0.38018   0.50618   0.53348   0.00000  Uiso   1.00
H1488  H     0.59372   0.40457   0.78544   0.00000  Uiso   1.00
H1489  H     0.64009   0.40841   0.74351   0.00000  Uiso   1.00
H1490  H     0.33774   0.35287   0.76470   0.00000  Uiso   1.00
H1491  H     0.61792   0.33494   0.75937   0.00000  Uiso   1.00
H1492  H     0.62587   0.34927   0.80804   0.00000  Uiso   1.00
H1493  H     0.49061   0.33500   0.67747   0.00000  Uiso   1.00
H1494  H     0.52576   0.62696   0.66128   0.00000  Uiso   1.00
H1495  H     0.55151   0.38626   0.64788   0.00000  Uiso   1.00
H1496  H     0.58593   0.34487   0.63073   0.00000  Uiso   1.00
H1497  H     0.53560   0.64168   0.59082   0.00000  Uiso   1.00
H1498  H     0.60505   0.42751   0.52245   0.00000  Uiso   1.00
H1499  H     0.55817   0.35945   0.57660   0.00000  Uiso   1.00
H1500  H     0.50354   0.35199   0.60667   0.00000  Uiso   1.00
H1501  H     0.39275   0.66145   0.82574   0.00000  Uiso   1.00
H1502  H     0.41076   0.36768   0.79360   0.00000  Uiso   1.00
H1503  H     0.42534   0.36465   0.87579   0.00000  Uiso   1.00
H1504  H     0.45555   0.40302   0.84398   0.00000  Uiso   1.00
H1505  H     0.38968   0.43114   0.84362   0.00000  Uiso   1.00
H1506  H     0.39129   0.42968   0.89374   0.00000  Uiso   1.00
H1507  H     0.35675   0.39068   0.87240   0.00000  Uiso   1.00
H1508  H     0.63104   0.50164   0.59041   0.00000  Uiso   1.00
H1509  H     0.34934   0.52256   0.71387   0.00000  Uiso   1.00
H1510  H     0.65459   0.45673   0.55883   0.00000  Uiso   1.00
H1511  H     0.65456   0.46587   0.60990   0.00000  Uiso   1.00
H1512  H     0.54805   0.55358   0.94911   0.00000  Uiso   1.00
H1513  H     0.54022   0.57668   0.90787   0.00000  Uiso   1.00
H1514  H     0.58797   0.55257   0.90243   0.00000  Uiso   1.00
H1515  H     0.43371   0.41309   0.56727   0.00000  Uiso   1.00
H1516  H     0.38462   0.41860   0.55446   0.00000  Uiso   1.00
H1517  H     0.38547   0.42242   0.60522   0.00000  Uiso   1.00
H1518  H     0.48423   0.39664   0.91929   0.00000  Uiso   1.00
H1519  H     0.52830   0.37754   0.93118   0.00000  Uiso   1.00
H1520  H     0.47497   0.49393   0.59936   0.00000  Uiso   1.00
H1521  H     0.52713   0.39881   0.84962   0.00000  Uiso   1.00
H1522  H     0.57296   0.38461   0.86145   0.00000  Uiso   1.00
H1523  H     0.53489   0.64904   0.87866   0.00000  Uiso   1.00
H1524  H     0.53431   0.65714   0.82951   0.00000  Uiso   1.00
H1525  H     0.48670   0.66250   0.87003   0.00000  Uiso   1.00
H1526  H     0.58424   0.42579   0.96200   0.00000  Uiso   1.00
H1527  H     0.37306   0.53044   0.97451   0.00000  Uiso   1.00
H1528  H     0.40131   0.54003   0.90441   0.00000  Uiso   1.00
H1529  H     0.63878   0.42715   0.83161   0.00000  Uiso   1.00
H1530  H     0.35338   0.42800   0.79263   0.00000  Uiso   1.00
O1531  O     0.50000   0.50000   0.75000   0.00000  Uiso   1.00
O1532  O     0.49027   0.45726   0.66625   0.00000  Uiso   1.00
O1533  O     0.46020   0.53979   0.83749   0.00000  Uiso   1.00
O1534  O     0.54421   0.50826   0.65877   0.00000  Uiso   1.00
O1535  O     0.50532   0.49468   0.83749   0.00000  Uiso   1.00
O1536  O     0.64559   0.47457   0.79731   0.00000  Uiso   1.00
O1537  O     0.54018   0.33851   0.70492   0.00000  Uiso   1.00
O1538  O     0.45744   0.66427   0.79914   0.00000  Uiso   1.00
O1539  O     0.59642   0.44285   0.59991   0.00000  Uiso   1.00
O1540  O     0.53410   0.51148   0.90300   0.00000  Uiso   1.00
O1541  O     0.41546   0.47366   0.57669   0.00000  Uiso   1.00
O1542  O     0.51182   0.41434   0.77821   0.00000  Uiso   1.00
O1543  O     0.53786   0.43959   0.91763   0.00000  Uiso   1.00
O1544  O     0.47914   0.59469   0.76767   0.00000  Uiso   1.00
O1545  O     0.40785   0.46584   0.73607   0.00000  Uiso   1.00
O1546  O     0.60119   0.52512   0.71805   0.00000  Uiso   1.00
O1547  O     0.40323   0.52293   0.77820   0.00000  Uiso   1.00
O1548  O     0.58773   0.48610   0.76768   0.00000  Uiso   1.00
O1549  O     0.47133   0.40236   0.73607   0.00000  Uiso   1.00
O1550  O     0.53771   0.58860   0.71805   0.00000  Uiso   1.00
Zn1551 Zn    0.52577   0.47423   0.78278   0.00000  Uiso   1.00
Zn1552 Zn    0.46792   0.45711   0.72258   0.00000  Uiso   1.00
Zn1553 Zn    0.54500   0.52997   0.71188   0.00000  Uiso   1.00
Zn1554 Zn    0.46131   0.53868   0.78277   0.00000  Uiso   1.00
C1555  C     0.71937   0.49338   0.75858   0.00000  Uiso   1.00
C1556  C     0.86305   0.45265   0.95766   0.00000  Uiso   1.00
C1557  C     0.88955   0.44132   0.97834   0.00000  Uiso   1.00
C1558  C     0.94757   0.50674   0.74156   0.00000  Uiso   1.00
C1559  C     0.88051   0.45019   0.51925   0.00000  Uiso   1.00
C1560  C     0.84191   0.46720   0.54072   0.00000  Uiso   1.00
C1561  C     0.90965   0.44184   0.53891   0.00000  Uiso   1.00
C1562  C     0.90204   0.45210   0.57987   0.00000  Uiso   1.00
C1563  C     0.83491   0.47735   0.58186   0.00000  Uiso   1.00
C1564  C     0.99316   0.50778   0.73819   0.00000  Uiso   1.00
C1565  C     0.67373   0.48976   0.76350   0.00000  Uiso   1.00
C1566  C     0.75523   0.52985   0.91966   0.00000  Uiso   1.00
C1567  C     0.84407   0.65497   0.73700   0.00000  Uiso   1.00
C1568  C     0.81730   0.34596   0.76428   0.00000  Uiso   1.00
C1569  C     0.82257   0.38970   0.75921   0.00000  Uiso   1.00
C1570  C     0.84306   0.61092   0.74142   0.00000  Uiso   1.00
C1571  C     0.85454   0.47877   0.64401   0.00000  Uiso   1.00
C1572  C     0.81203   0.52070   0.85632   0.00000  Uiso   1.00
C1573  C     0.79734   0.52196   0.89963   0.00000  Uiso   1.00
C1574  C     0.86403   0.46904   0.60121   0.00000  Uiso   1.00
C1575  C     0.73885   0.52347   0.95936   0.00000  Uiso   1.00
C1576  C     0.98559   0.43313   0.80019   0.00000  Uiso   1.00
C1577  C     0.82360   0.50906   0.92014   0.00000  Uiso   1.00
C1578  C     0.96205   0.40165   0.77487   0.00000  Uiso   1.00
C1579  C     0.96976   0.35694   0.77698   0.00000  Uiso   1.00
C1580  C     0.85771   0.66088   0.67122   0.00000  Uiso   1.00
C1581  C     0.88556   0.35236   0.63788   0.00000  Uiso   1.00
C1582  C     0.86960   0.34232   0.60074   0.00000  Uiso   1.00
C1583  C     0.75340   0.35200   0.81546   0.00000  Uiso   1.00
C1584  C     0.75825   0.38256   0.85148   0.00000  Uiso   1.00
C1585  C     0.72156   0.41011   0.86614   0.00000  Uiso   1.00
C1586  C     0.96903   0.46809   0.58886   0.00000  Uiso   1.00
C1587  C     0.88622   0.55042   0.91650   0.00000  Uiso   1.00
C1588  C     0.80523   0.49610   0.95847   0.00000  Uiso   1.00
C1589  C     0.73796   0.43002   0.57533   0.00000  Uiso   1.00
C1590  C     0.85315   0.39781   0.91223   0.00000  Uiso   1.00
C1591  C     0.87071   0.38072   0.86904   0.00000  Uiso   1.00
C1592  C     0.85559   0.33449   0.86147   0.00000  Uiso   1.00
C1593  C     0.76335   0.50647   0.97882   0.00000  Uiso   1.00
C1594  C     0.82785   0.47560   0.97810   0.00000  Uiso   1.00
C1595  C     0.81310   0.47583   0.51994   0.00000  Uiso   1.00
C1596  C     0.76980   0.48360   0.53888   0.00000  Uiso   1.00
C1597  C     0.74595   0.49931   0.51828   0.00000  Uiso   1.00
H1598  H     0.71351   0.50618   0.53348   0.00000  Uiso   1.00
H1599  H     0.92705   0.40457   0.78544   0.00000  Uiso   1.00
H1600  H     0.97342   0.40841   0.74351   0.00000  Uiso   1.00
H1601  H     0.67107   0.35287   0.76470   0.00000  Uiso   1.00
H1602  H     0.95125   0.33494   0.75937   0.00000  Uiso   1.00
H1603  H     0.95920   0.34927   0.80804   0.00000  Uiso   1.00
H1604  H     0.82394   0.33500   0.67747   0.00000  Uiso   1.00
H1605  H     0.85909   0.62696   0.66128   0.00000  Uiso   1.00
H1606  H     0.88485   0.38626   0.64788   0.00000  Uiso   1.00
H1607  H     0.91927   0.34487   0.63073   0.00000  Uiso   1.00
H1608  H     0.86893   0.64168   0.59082   0.00000  Uiso   1.00
H1609  H     0.93838   0.42751   0.52245   0.00000  Uiso   1.00
H1610  H     0.89151   0.35945   0.57660   0.00000  Uiso   1.00
H1611  H     0.83688   0.35199   0.60667   0.00000  Uiso   1.00
H1612  H     0.72608   0.66145   0.82574   0.00000  Uiso   1.00
H1613  H     0.74409   0.36768   0.79360   0.00000  Uiso   1.00
H1614  H     0.75867   0.36465   0.87579   0.00000  Uiso   1.00
H1615  H     0.78889   0.40302   0.84398   0.00000  Uiso   1.00
H1616  H     0.72302   0.43114   0.84362   0.00000  Uiso   1.00
H1617  H     0.72463   0.42968   0.89374   0.00000  Uiso   1.00
H1618  H     0.69008   0.39068   0.87240   0.00000  Uiso   1.00
H1619  H     0.96437   0.50164   0.59041   0.00000  Uiso   1.00
H1620  H     0.68267   0.52256   0.71387   0.00000  Uiso   1.00
H1621  H     0.98792   0.45673   0.55883   0.00000  Uiso   1.00
H1622  H     0.98789   0.46587   0.60990   0.00000  Uiso   1.00
H1623  H     0.88138   0.55358   0.94911   0.00000  Uiso   1.00
H1624  H     0.87355   0.57668   0.90787   0.00000  Uiso   1.00
H1625  H     0.92130   0.55257   0.90243   0.00000  Uiso   1.00
H1626  H     0.76704   0.41309   0.56727   0.00000  Uiso   1.00
H1627  H     0.71796   0.41860   0.55446   0.00000  Uiso   1.00
H1628  H     0.71880   0.42242   0.60522   0.00000  Uiso   1.00
H1629  H     0.81757   0.39664   0.91929   0.00000  Uiso   1.00
H1630  H     0.86163   0.37754   0.93118   0.00000  Uiso   1.00
H1631  H     0.80830   0.49393   0.59936   0.00000  Uiso   1.00
H1632  H     0.86046   0.39881   0.84962   0.00000  Uiso   1.00
H1633  H     0.90630   0.38461   0.86145   0.00000  Uiso   1.00
H1634  H     0.86823   0.64904   0.87866   0.00000  Uiso   1.00
H1635  H     0.86764   0.65714   0.82951   0.00000  Uiso   1.00
H1636  H     0.82003   0.66250   0.87003   0.00000  Uiso   1.00
H1637  H     0.91758   0.42579   0.96200   0.00000  Uiso   1.00
H1638  H     0.70639   0.53044   0.97451   0.00000  Uiso   1.00
H1639  H     0.73465   0.54003   0.90441   0.00000  Uiso   1.00
H1640  H     0.97211   0.42715   0.83161   0.00000  Uiso   1.00
H1641  H     0.68671   0.42800   0.79263   0.00000  Uiso   1.00
O1642  O     0.83333   0.50000   0.75000   0.00000  Uiso   1.00
O1643  O     0.82360   0.45726   0.66625   0.00000  Uiso   1.00
O1644  O     0.79354   0.53979   0.83749   0.00000  Uiso   1.00
O1645  O     0.87755   0.50826   0.65877   0.00000  Uiso   1.00
O1646  O     0.83865   0.49468   0.83749   0.00000  Uiso   1.00
O1647  O     0.97893   0.47457   0.79731   0.00000  Uiso   1.00
O1648  O     0.87351   0.33851   0.70492   0.00000  Uiso   1.00
O1649  O     0.79077   0.66427   0.79914   0.00000  Uiso   1.00
O1650  O     0.92975   0.44285   0.59991   0.00000  Uiso   1.00
O1651  O     0.86744   0.51148   0.90300   0.00000  Uiso   1.00
O1652  O     0.74879   0.47366   0.57669   0.00000  Uiso   1.00
O1653  O     0.84515   0.41434   0.77821   0.00000  Uiso   1.00
O1654  O     0.87119   0.43959   0.91763   0.00000  Uiso   1.00
O1655  O     0.81247   0.59469   0.76767   0.00000  Uiso   1.00
O1656  O     0.74119   0.46584   0.73607   0.00000  Uiso   1.00
O1657  O     0.93452   0.52512   0.71805   0.00000  Uiso   1.00
O1658  O     0.73656   0.52293   0.77820   0.00000  Uiso   1.00
O1659  O     0.92106   0.48610   0.76768   0.00000  Uiso   1.00
O1660  O     0.80467   0.40236   0.73607   0.00000  Uiso   1.00
O1661  O     0.87104   0.58860   0.71805   0.00000  Uiso   1.00
Zn1662 Zn    0.85910   0.47423   0.78278   0.00000  Uiso   1.00
Zn1663 Zn    0.80125   0.45711   0.72258   0.00000  Uiso   1.00
Zn1664 Zn    0.87833   0.52997   0.71188   0.00000  Uiso   1.00
Zn1665 Zn    0.79465   0.53868   0.78277   0.00000  Uiso   1.00
C1666  C     0.05270   0.82671   0.75858   0.00000  Uiso   1.00
C1667  C     0.19639   0.78598   0.95766   0.00000  Uiso   1.00
C1668  C     0.22288   0.77466   0.97834   0.00000  Uiso   1.00
C1669  C     0.28090   0.84007   0.74156   0.00000  Uiso   1.00
C1670  C     0.21384   0.78352   0.51925   0.00000  Uiso   1.00
C1671  C     0.17525   0.80053   0.54072   0.00000  Uiso   1.00
C1672  C     0.24299   0.77518   0.53891   0.00000  Uiso   1.00
C1673  C     0.23537   0.78543   0.57987   0.00000  Uiso   1.00
C1674  C     0.16824   0.81068   0.58186   0.00000  Uiso   1.00
C1675  C     0.32649   0.84111   0.73819   0.00000  Uiso   1.00
C1676  C     0.00706   0.82309   0.76350   0.00000  Uiso   1.00
C1677  C     0.08856   0.86318   0.91966   0.00000  Uiso   1.00
C1678  C     0.17741   0.98830   0.73700   0.00000  Uiso   1.00
C1679  C     0.15063   0.67930   0.76428   0.00000  Uiso   1.00
C1680  C     0.15590   0.72304   0.75921   0.00000  Uiso   1.00
C1681  C     0.17639   0.94425   0.74142   0.00000  Uiso   1.00
C1682  C     0.18787   0.81210   0.64401   0.00000  Uiso   1.00
C1683  C     0.14536   0.85404   0.85632   0.00000  Uiso   1.00
C1684  C     0.13068   0.85530   0.89963   0.00000  Uiso   1.00
C1685  C     0.19736   0.80237   0.60121   0.00000  Uiso   1.00
C1686  C     0.07219   0.85680   0.95936   0.00000  Uiso   1.00
C1687  C     0.31892   0.76646   0.80019   0.00000  Uiso   1.00
C1688  C     0.15693   0.84239   0.92014   0.00000  Uiso   1.00
C1689  C     0.29538   0.73499   0.77487   0.00000  Uiso   1.00
C1690  C     0.30310   0.69027   0.77698   0.00000  Uiso   1.00
C1691  C     0.19104   0.99421   0.67122   0.00000  Uiso   1.00
C1692  C     0.21889   0.68569   0.63788   0.00000  Uiso   1.00
C1693  C     0.20293   0.67566   0.60074   0.00000  Uiso   1.00
C1694  C     0.08674   0.68533   0.81546   0.00000  Uiso   1.00
C1695  C     0.09158   0.71589   0.85148   0.00000  Uiso   1.00
C1696  C     0.05490   0.74344   0.86614   0.00000  Uiso   1.00
C1697  C     0.30236   0.80142   0.58886   0.00000  Uiso   1.00
C1698  C     0.21956   0.88375   0.91650   0.00000  Uiso   1.00
C1699  C     0.13856   0.82943   0.95847   0.00000  Uiso   1.00
C1700  C     0.07129   0.76335   0.57533   0.00000  Uiso   1.00
C1701  C     0.18648   0.73115   0.91223   0.00000  Uiso   1.00
C1702  C     0.20404   0.71405   0.86904   0.00000  Uiso   1.00
C1703  C     0.18893   0.66782   0.86147   0.00000  Uiso   1.00
C1704  C     0.09668   0.83981   0.97882   0.00000  Uiso   1.00
C1705  C     0.16118   0.80893   0.97810   0.00000  Uiso   1.00
C1706  C     0.14643   0.80917   0.51994   0.00000  Uiso   1.00
C1707  C     0.10313   0.81693   0.53888   0.00000  Uiso   1.00
C1708  C     0.07929   0.83265   0.51828   0.00000  Uiso   1.00
H1709  H     0.04685   0.83951   0.53348   0.00000  Uiso   1.00
H1710  H     0.26039   0.73790   0.78544   0.00000  Uiso   1.00
H1711  H     0.30676   0.74175   0.74351   0.00000  Uiso   1.00
H1712  H     0.00440   0.68620   0.76470   0.00000  Uiso   1.00
H1713  H     0.28458   0.66827   0.75937   0.00000  Uiso   1.00
H1714  H     0.29254   0.68260   0.80804   0.00000  Uiso   1.00
H1715  H     0.15728   0.66834   0.67747   0.00000  Uiso   1.00
H1716  H     0.19242   0.96029   0.66128   0.00000  Uiso   1.00
H1717  H     0.21818   0.71959   0.64788   0.00000  Uiso   1.00
H1718  H     0.25260   0.67820   0.63073   0.00000  Uiso   1.00
H1719  H     0.20226   0.97501   0.59082   0.00000  Uiso   1.00
H1720  H     0.27171   0.76085   0.52245   0.00000  Uiso   1.00
H1721  H     0.22484   0.69279   0.57660   0.00000  Uiso   1.00
H1722  H     0.17021   0.68532   0.60667   0.00000  Uiso   1.00
H1723  H     0.05941   0.99478   0.82574   0.00000  Uiso   1.00
H1724  H     0.07743   0.70101   0.79360   0.00000  Uiso   1.00
H1725  H     0.09201   0.69799   0.87579   0.00000  Uiso   1.00
H1726  H     0.12222   0.73635   0.84398   0.00000  Uiso   1.00
H1727  H     0.05635   0.76447   0.84362   0.00000  Uiso   1.00
H1728  H     0.05796   0.76301   0.89374   0.00000  Uiso   1.00
H1729  H     0.02342   0.72401   0.87240   0.00000  Uiso   1.00
H1730  H     0.29770   0.83497   0.59041   0.00000  Uiso   1.00
H1731  H     0.01601   0.85590   0.71387   0.00000  Uiso   1.00
H1732  H     0.32126   0.79007   0.55883   0.00000  Uiso   1.00
H1733  H     0.32123   0.79920   0.60990   0.00000  Uiso   1.00
H1734  H     0.21471   0.88692   0.94911   0.00000  Uiso   1.00
H1735  H     0.20688   0.91002   0.90787   0.00000  Uiso   1.00
H1736  H     0.25464   0.88590   0.90243   0.00000  Uiso   1.00
H1737  H     0.10037   0.74642   0.56727   0.00000  Uiso   1.00
H1738  H     0.05129   0.75193   0.55446   0.00000  Uiso   1.00
H1739  H     0.05213   0.75575   0.60522   0.00000  Uiso   1.00
H1740  H     0.15090   0.72997   0.91929   0.00000  Uiso   1.00
H1741  H     0.19497   0.71087   0.93118   0.00000  Uiso   1.00
H1742  H     0.14164   0.82727   0.59936   0.00000  Uiso   1.00
H1743  H     0.19380   0.73214   0.84962   0.00000  Uiso   1.00
H1744  H     0.23963   0.71794   0.86145   0.00000  Uiso   1.00
H1745  H     0.20156   0.98237   0.87866   0.00000  Uiso   1.00
H1746  H     0.20098   0.99047   0.82951   0.00000  Uiso   1.00
H1747  H     0.15337   0.99584   0.87003   0.00000  Uiso   1.00
H1748  H     0.25091   0.75912   0.96200   0.00000  Uiso   1.00
H1749  H     0.03972   0.86378   0.97451   0.00000  Uiso   1.00
H1750  H     0.06798   0.87336   0.90441   0.00000  Uiso   1.00
H1751  H     0.30545   0.76048   0.83161   0.00000  Uiso   1.00
H1752  H     0.02004   0.76133   0.79263   0.00000  Uiso   1.00
O1753  O     0.16667   0.83333   0.75000   0.00000  Uiso   1.00
O1754  O     0.15693   0.79060   0.66625   0.00000  Uiso   1.00
O1755  O     0.12687   0.87313   0.83749   0.00000  Uiso   1.00
O1756  O     0.21088   0.84159   0.65877   0.00000  Uiso   1.00
O1757  O     0.17198   0.82802   0.83749   0.00000  Uiso   1.00
O1758  O     0.31226   0.80790   0.79731   0.00000  Uiso   1.00
O1759  O     0.20685   0.67184   0.70492   0.00000  Uiso   1.00
O1760  O     0.12410   0.99760   0.79914   0.00000  Uiso   1.00
O1761  O     0.26308   0.77618   0.59991   0.00000  Uiso   1.00
O1762  O     0.20077   0.84481   0.90300   0.00000  Uiso   1.00
O1763  O     0.08213   0.80699   0.57669   0.00000  Uiso   1.00
O1764  O     0.17849   0.74768   0.77821   0.00000  Uiso   1.00
O1765  O     0.20452   0.77292   0.91763   0.00000  Uiso   1.00
O1766  O     0.14581   0.92803   0.76767   0.00000  Uiso   1.00
O1767  O     0.07452   0.79917   0.73607   0.00000  Uiso   1.00
O1768  O     0.26785   0.85845   0.71805   0.00000  Uiso   1.00
O1769  O     0.06990   0.85627   0.77820   0.00000  Uiso   1.00
O1770  O     0.25440   0.81944   0.76768   0.00000  Uiso   1.00
O1771  O     0.13800   0.73570   0.73607   0.00000  Uiso   1.00
O1772  O     0.20437   0.92193   0.71805   0.00000  Uiso   1.00
Zn1773 Zn    0.19244   0.80756   0.78278   0.00000  Uiso   1.00
Zn1774 Zn    0.13459   0.79044   0.72258   0.00000  Uiso   1.00
Zn1775 Zn    0.21166   0.86331   0.71188   0.00000  Uiso   1.00
Zn1776 Zn    0.12798   0.87202   0.78277   0.00000  Uiso   1.00
C1777  C     0.38604   0.82671   0.75858   0.00000  Uiso   1.00
C1778  C     0.52972   0.78598   0.95766   0.00000  Uiso   1.00
C1779  C     0.55621   0.77466   0.97834   0.00000  Uiso   1.00
C1780  C     0.61423   0.84007   0.74156   0.00000  Uiso   1.00
C1781  C     0.54717   0.78352   0.51925   0.00000  Uiso   1.00
C1782  C     0.50858   0.80053   0.54072   0.00000  Uiso   1.00
C1783  C     0.57632   0.77518   0.53891   0.00000  Uiso   1.00
C1784  C     0.56870   0.78543   0.57987   0.00000  Uiso   1.00
C1785  C     0.50157   0.81068   0.58186   0.00000  Uiso   1.00
C1786  C     0.65982   0.84111   0.73819   0.00000  Uiso   1.00
C1787  C     0.34039   0.82309   0.76350   0.00000  Uiso   1.00
C1788  C     0.42190   0.86318   0.91966   0.00000  Uiso   1.00
C1789  C     0.51074   0.98830   0.73700   0.00000  Uiso   1.00
C1790  C     0.48396   0.67930   0.76428   0.00000  Uiso   1.00
C1791  C     0.48923   0.72304   0.75921   0.00000  Uiso   1.00
C1792  C     0.50972   0.94425   0.74142   0.00000  Uiso   1.00
C1793  C     0.52121   0.81210   0.64401   0.00000  Uiso   1.00
C1794  C     0.47869   0.85404   0.85632   0.00000  Uiso   1.00
C1795  C     0.46401   0.85530   0.89963   0.00000  Uiso   1.00
C1796  C     0.53070   0.80237   0.60121   0.00000  Uiso   1.00
C1797  C     0.40552   0.85680   0.95936   0.00000  Uiso   1.00
C1798  C     0.65225   0.76646   0.80019   0.00000  Uiso   1.00
C1799  C     0.49027   0.84239   0.92014   0.00000  Uiso   1.00
C1800  C     0.62872   0.73499   0.77487   0.00000  Uiso   1.00
C1801  C     0.63643   0.69027   0.77698   0.00000  Uiso   1.00
C1802  C     0.52438   0.99421   0.67122   0.00000  Uiso   1.00
C1803  C     0.55222   0.68569   0.63788   0.00000  Uiso   1.00
C1804  C     0.53627   0.67566   0.60074   0.00000  Uiso   1.00
C1805  C     0.42007   0.68533   0.81546   0.00000  Uiso   1.00
C1806  C     0.42491   0.71589   0.85148   0.00000  Uiso   1.00
C1807  C     0.38823   0.74344   0.86614   0.00000  Uiso   1.00
C1808  C     0.63569   0.80142   0.58886   0.00000  Uiso   1.00
C1809  C     0.55289   0.88375   0.91650   0.00000  Uiso   1.00
C1810  C     0.47189   0.82943   0.95847   0.00000  Uiso   1.00
C1811  C     0.40463   0.76335   0.57533   0.00000  Uiso   1.00
C1812  C     0.51981   0.73115   0.91223   0.00000  Uiso   1.00
C1813  C     0.53738   0.71405   0.86904   0.00000  Uiso   1.00
C1814  C     0.52226   0.66782   0.86147   0.00000  Uiso   1.00
C1815  C     0.43001   0.83981   0.97882   0.00000  Uiso   1.00
C1816  C     0.49451   0.80893   0.97810   0.00000  Uiso   1.00
C1817  C     0.47976   0.80917   0.51994   0.00000  Uiso   1.00
C1818  C     0.43647   0.81693   0.53888   0.00000  Uiso   1.00
C1819  C     0.41262   0.83265   0.51828   0.00000  Uiso   1.00
H1820  H     0.38018   0.83951   0.53348   0.00000  Uiso   1.00
H1821  H     0.59372   0.73790   0.78544   0.00000  Uiso   1.00
H1822  H     0.64009   0.74175   0.74351   0.00000  Uiso   1.00
H1823  H     0.33774   0.68620   0.76470   0.00000  Uiso   1.00
H1824  H     0.61792   0.66827   0.75937   0.00000  Uiso   1.00
H1825  H     0.62587   0.68260   0.80804   0.00000  Uiso   1.00
H1826  H     0.49061   0.66834   0.67747   0.00000  Uiso   1.00
H1827  H     0.52576   0.96029   0.66128   0.00000  Uiso   1.00
H1828  H     0.55151   0.71959   0.64788   0.00000  Uiso   1.00
H1829  H     0.58593   0.67820   0.63073   0.00000  Uiso   1.00
H1830  H     0.53560   0.97501   0.59082   0.00000  Uiso   1.00
H1831  H     0.60505   0.76085   0.52245   0.00000  Uiso   1.00
H1832  H     0.55817   0.69279   0.57660   0.00000  Uiso   1.00
H1833  H     0.50354   0.68532   0.60667   0.00000  Uiso   1.00
H1834  H     0.39275   0.99478   0.82574   0.00000  Uiso   1.00
H1835  H     0.41076   0.70101   0.79360   0.00000  Uiso   1.00
H1836  H     0.42534   0.69799   0.87579   0.00000  Uiso   1.00
H1837  H     0.45555   0.73635   0.84398   0.00000  Uiso   1.00
H1838  H     0.38968   0.76447   0.84362   0.00000  Uiso   1.00
H1839  H     0.39129   0.76301   0.89374   0.00000  Uiso   1.00
H1840  H     0.35675   0.72401   0.87240   0.00000  Uiso   1.00
H1841  H     0.63104   0.83497   0.59041   0.00000  Uiso   1.00
H1842  H     0.34934   0.85590   0.71387   0.00000  Uiso   1.00
H1843  H     0.65459   0.79007   0.55883   0.00000  Uiso   1.00
H1844  H     0.65456   0.79920   0.60990   0.00000  Uiso   1.00
H1845  H     0.54805   0.88692   0.94911   0.00000  Uiso   1.00
H1846  H     0.54022   0.91002   0.90787   0.00000  Uiso   1.00
H1847  H     0.58797   0.88590   0.90243   0.00000  Uiso   1.00
H1848  H     0.43371   0.74642   0.56727   0.00000  Uiso   1.00
H1849  H     0.38462   0.75193   0.55446   0.00000  Uiso   1.00
H1850  H     0.38547   0.75575   0.60522   0.00000  Uiso   1.00
H1851  H     0.48423   0.72997   0.91929   0.00000  Uiso   1.00
H1852  H     0.52830   0.71087   0.93118   0.00000  Uiso   1.00
H1853  H     0.47497   0.82727   0.59936   0.00000  Uiso   1.00
H1854  H     0.52713   0.73214   0.84962   0.00000  Uiso   1.00
H1855  H     0.57296   0.71794   0.86145   0.00000  Uiso   1.00
H1856  H     0.53489   0.98237   0.87866   0.00000  Uiso   1.00
H1857  H     0.53431   0.99047   0.82951   0.00000  Uiso   1.00
H1858  H     0.48670   0.99584   0.87003   0.00000  Uiso   1.00
H1859  H     0.58424   0.75912   0.96200   0.00000  Uiso   1.00
H1860  H     0.37306   0.86378   0.97451   0.00000  Uiso   1.00
H1861  H     0.40131   0.87336   0.90441   0.00000  Uiso   1.00
H1862  H     0.63878   0.76048   0.83161   0.00000  Uiso   1.00
H1863  H     0.35338   0.76133   0.79263   0.00000  Uiso   1.00
O1864  O     0.50000   0.83333   0.75000   0.00000  Uiso   1.00
O1865  O     0.49027   0.79060   0.66625   0.00000  Uiso   1.00
O1866  O     0.46020   0.87313   0.83749   0.00000  Uiso   1.00
O1867  O     0.54421   0.84159   0.65877   0.00000  Uiso   1.00
O1868  O     0.50532   0.82802   0.83749   0.00000  Uiso   1.00
O1869  O     0.64559   0.80790   0.79731   0.00000  Uiso   1.00
O1870  O     0.54018   0.67184   0.70492   0.00000  Uiso   1.00
O1871  O     0.45744   0.99760   0.79914   0.00000  Uiso   1.00
O1872  O     0.59642   0.77618   0.59991   0.00000  Uiso   1.00
O1873  O     0.53410   0.84481   0.90300   0.00000  Uiso   1.00
O1874  O     0.41546   0.80699   0.57669   0.00000  Uiso   1.00
O1875  O     0.51182   0.74768   0.77821   0.00000  Uiso   1.00
O1876  O     0.53786   0.77292   0.91763   0.00000  Uiso   1.00
O1877  O     0.47914   0.92803   0.76767   0.00000  Uiso   1.00
O1878  O     0.40785   0.79917   0.73607   0.00000  Uiso   1.00
O1879  O     0.60119   0.85845   0.71805   0.00000  Uiso   1.00
O1880  O     0.40323   0.85627   0.77820   0.00000  Uiso   1.00
O1881  O     0.58773   0.81944   0.76768   0.00000  Uiso   1.00
O1882  O     0.47133   0.73570   0.73607   0.00000  Uiso   1.00
O1883  O     0.53771   0.92193   0.71805   0.00000  Uiso   1.00
Zn1884 Zn    0.52577   0.80756   0.78278   0.00000  Uiso   1.00
Zn1885 Zn    0.46792   0.79044   0.72258   0.00000  Uiso   1.00
Zn1886 Zn    0.54500   0.86331   0.71188   0.00000  Uiso   1.00
Zn1887 Zn    0.46131   0.87202   0.78277   0.00000  Uiso   1.00
C1888  C     0.71937   0.82671   0.75858   0.00000  Uiso   1.00
C1889  C     0.86305   0.78598   0.95766   0.00000  Uiso   1.00
C1890  C     0.88955   0.77466   0.97834   0.00000  Uiso   1.00
C1891  C     0.94757   0.84007   0.74156   0.00000  Uiso   1.00
C1892  C     0.88051   0.78352   0.51925   0.00000  Uiso   1.00
C1893  C     0.84191   0.80053   0.54072   0.00000  Uiso   1.00
C1894  C     0.90965   0.77518   0.53891   0.00000  Uiso   1.00
C1895  C     0.90204   0.78543   0.57987   0.00000  Uiso   1.00
C1896  C     0.83491   0.81068   0.58186   0.00000  Uiso   1.00
C1897  C     0.99316   0.84111   0.73819   0.00000  Uiso   1.00
C1898  C     0.67373   0.82309   0.76350   0.00000  Uiso   1.00
C1899  C     0.75523   0.86318   0.91966   0.00000  Uiso   1.00
C1900  C     0.84407   0.98830   0.73700   0.00000  Uiso   1.00
C1901  C     0.81730   0.67930   0.76428   0.00000  Uiso   1.00
C1902  C     0.82257   0.72304   0.75921   0.00000  Uiso   1.00
C1903  C     0.84306   0.94425   0.74142   0.00000  Uiso   1.00
C1904  C     0.85454   0.81210   0.64401   0.00000  Uiso   1.00
C1905  C     0.81203   0.85404   0.85632   0.00000  Uiso   1.00
C1906  C     0.79734   0.85530   0.89963   0.00000  Uiso   1.00
C1907  C     0.86403   0.80237   0.60121   0.00000  Uiso   1.00
C1908  C     0.73885   0.85680   0.95936   0.00000  Uiso   1.00
C1909  C     0.98559   0.76646   0.80019   0.00000  Uiso   1.00
C1910  C     0.82360   0.84239   0.92014   0.00000  Uiso   1.00
C1911  C     0.96205   0.73499   0.77487   0.00000  Uiso   1.00
C1912  C     0.96976   0.69027   0.77698   0.00000  Uiso   1.00
C1913  C     0.85771   0.99421   0.67122   0.00000  Uiso   1.00
C1914  C     0.88556   0.68569   0.63788   0.00000  Uiso   1.00
C1915  C     0.86960   0.67566   0.60074   0.00000  Uiso   1.00
C1916  C     0.75340   0.68533   0.81546   0.00000  Uiso   1.00
C1917  C     0.75825   0.71589   0.85148   0.00000  Uiso   1.00
C1918  C     0.72156   0.74344   0.86614   0.00000  Uiso   1.00
C1919  C     0.96903   0.80142   0.58886   0.00000  Uiso   1.00
C1920  C     0.88622   0.88375   0.91650   0.00000  Uiso   1.00
C1921  C     0.80523   0.82943   0.95847   0.00000  Uiso   1.00
C1922  C     0.73796   0.76335   0.57533   0.00000  Uiso   1.00
C1923  C     0.85315   0.73115   0.91223   0.00000  Uiso   1.00
C1924  C     0.87071   0.71405   0.86904   0.00000  Uiso   1.00
C1925  C     0.85559   0.66782   0.86147   0.00000  Uiso   1.00
C1926  C     0.76335   0.83981   0.97882   0.00000  Uiso   1.00
C1927  C     0.82785   0.80893   0.97810   0.00000  Uiso   1.00
C1928  C     0.81310   0.80917   0.51994   0.00000  Uiso   1.00
C1929  C     0.76980   0.81693   0.53888   0.00000  Uiso   1.00
C1930  C     0.74595   0.83265   0.51828   0.00000  Uiso   1.00
H1931  H     0.71351   0.83951   0.53348   0.00000  Uiso   1.00
H1932  H     0.92705   0.73790   0.78544   0.00000  Uiso   1.00
H1933  H     0.97342   0.74175   0.74351   0.00000  Uiso   1.00
H1934  H     0.67107   0.68620   0.76470   0.00000  Uiso   1.00
H1935  H     0.95125   0.66827   0.75937   0.00000  Uiso   1.00
H1936  H     0.95920   0.68260   0.80804   0.00000  Uiso   1.00
H1937  H     0.82394   0.66834   0.67747   0.00000  Uiso   1.00
H1938  H     0.85909   0.96029   0.66128   0.00000  Uiso   1.00
H1939  H     0.88485   0.71959   0.64788   0.00000  Uiso   1.00
H1940  H     0.91927   0.67820   0.63073   0.00000  Uiso   1.00
H1941  H     0.86893   0.97501   0.59082   0.00000  Uiso   1.00
H1942  H     0.93838   0.76085   0.52245   0.00000  Uiso   1.00
H1943  H     0.89151   0.69279   0.57660   0.00000  Uiso   1.00
H1944  H     0.83688   0.68532   0.60667   0.00000  Uiso   1.00
H1945  H     0.72608   0.99478   0.82574   0.00000  Uiso   1.00
H1946  H     0.74409   0.70101   0.79360   0.00000  Uiso   1.00
H1947  H     0.75867   0.69799   0.87579   0.00000  Uiso   1.00
H1948  H     0.78889   0.73635   0.84398   0.00000  Uiso   1.00
H1949  H     0.72302   0.76447   0.84362   0.00000  Uiso   1.00
H1950  H     0.72463   0.76301   0.89374   0.00000  Uiso   1.00
H1951  H     0.69008   0.72401   0.87240   0.00000  Uiso   1.00
H1952  H     0.96437   0.83497   0.59041   0.00000  Uiso   1.00
H1953  H     0.68267   0.85590   0.71387   0.00000  Uiso   1.00
H1954  H     0.98792   0.79007   0.55883   0.00000  Uiso   1.00
H1955  H     0.98789   0.79920   0.60990   0.00000  Uiso   1.00
H1956  H     0.88138   0.88692   0.94911   0.00000  Uiso   1.00
H1957  H     0.87355   0.91002   0.90787   0.00000  Uiso   1.00
H1958  H     0.92130   0.88590   0.90243   0.00000  Uiso   1.00
H1959  H     0.76704   0.74642   0.56727   0.00000  Uiso   1.00
H1960  H     0.71796   0.75193   0.55446   0.00000  Uiso   1.00
H1961  H     0.71880   0.75575   0.60522   0.00000  Uiso   1.00
H1962  H     0.81757   0.72997   0.91929   0.00000  Uiso   1.00
H1963  H     0.86163   0.71087   0.93118   0.00000  Uiso   1.00
H1964  H     0.80830   0.82727   0.59936   0.00000  Uiso   1.00
H1965  H     0.86046   0.73214   0.84962   0.00000  Uiso   1.00
H1966  H     0.90630   0.71794   0.86145   0.00000  Uiso   1.00
H1967  H     0.86823   0.98237   0.87866   0.00000  Uiso   1.00
H1968  H     0.86764   0.99047   0.82951   0.00000  Uiso   1.00
H1969  H     0.82003   0.99584   0.87003   0.00000  Uiso   1.00
H1970  H     0.91758   0.75912   0.96200   0.00000  Uiso   1.00
H1971  H     0.70639   0.86378   0.97451   0.00000  Uiso   1.00
H1972  H     0.73465   0.87336   0.90441   0.00000  Uiso   1.00
H1973  H     0.97211   0.76048   0.83161   0.00000  Uiso   1.00
H1974  H     0.68671   0.76133   0.79263   0.00000  Uiso   1.00
O1975  O     0.83333   0.83333   0.75000   0.00000  Uiso   1.00
O1976  O     0.82360   0.79060   0.66625   0.00000  Uiso   1.00
O1977  O     0.79354   0.87313   0.83749   0.00000  Uiso   1.00
O1978  O     0.87755   0.84159   0.65877   0.00000  Uiso   1.00
O1979  O     0.83865   0.82802   0.83749   0.00000  Uiso   1.00
O1980  O     0.97893   0.80790   0.79731   0.00000  Uiso   1.00
O1981  O     0.87351   0.67184   0.70492   0.00000  Uiso   1.00
O1982  O     0.79077   0.99760   0.79914   0.00000  Uiso   1.00
O1983  O     0.92975   0.77618   0.59991   0.00000  Uiso   1.00
O1984  O     0.86744   0.84481   0.90300   0.00000  Uiso   1.00
O1985  O     0.74879   0.80699   0.57669   0.00000  Uiso   1.00
O1986  O     0.84515   0.74768   0.77821   0.00000  Uiso   1.00
O1987  O     0.87119   0.77292   0.91763   0.00000  Uiso   1.00
O1988  O     0.81247   0.92803   0.76767   0.00000  Uiso   1.00
O1989  O     0.74119   0.79917   0.73607   0.00000  Uiso   1.00
O1990  O     0.93452   0.85845   0.71805   0.00000  Uiso   1.00
O1991  O     0.73656   0.85627   0.77820   0.00000  Uiso   1.00
O1992  O     0.92106   0.81944   0.76768   0.00000  Uiso   1.00
O1993  O     0.80467   0.73570   0.73607   0.00000  Uiso   1.00
O1994  O     0.87104   0.92193   0.71805   0.00000  Uiso   1.00
Zn1995 Zn    0.85910   0.80756   0.78278   0.00000  Uiso   1.00
Zn1996 Zn    0.80125   0.79044   0.72258   0.00000  Uiso   1.00
Zn1997 Zn    0.87833   0.86331   0.71188   0.00000  Uiso   1.00
Zn1998 Zn    0.79465   0.87202   0.78277   0.00000  Uiso   1.00
loop_
_geom_bond_atom_site_label_1
_geom_bond_atom_site_label_2
_geom_bond_distance
_geom_bond_site_symmetry_2
_ccdc_geom_bond_type
C1     O104    1.267   .     A
C1     C11     1.441   .     S
C1     O102    1.266   .     A
C2     O100    1.383   .     S
C2     C3      1.395   .     A
C2     C40     1.422   .     A
C3     H83     1.085   .     S
C3     C1004   1.392   .     S
C4     O103    1.284   .     A
C4     C10     1.456   .     S
C4     O105    1.271   .     A
C5     C7      1.402   .     A
C5     C6      1.417   .     A
C5     C1002   1.392   1_554 S
C6     C9      1.409   .     A
C6     C41     1.425   .     A
C7     H55     1.084   .     S
C7     C8      1.401   .     A
C8     C20     1.400   .     A
C8     O96     1.384   .     S
C9     C20     1.394   .     A
C9     H77     1.079   .     S
C10    C122    1.345   .     S
C10    H177    1.088   .     S
C11    C232    1.345   1_455 S
C11    O315    1.393   1_455 S
C12    H85     1.083   .     S
C12    C21     1.391   .     A
C12    C19     1.399   .     A
C13    C16     1.458   .     S
C13    C347    1.352   .     S
C13    O427    1.389   .     S
C14    C15     1.440   .     S
C14    C679    1.352   1_545 S
C14    O761    1.401   1_545 S
C15    O106    1.272   .     A
C15    O99     1.266   .     A
C16    O107    1.279   .     A
C16    O101    1.268   .     A
C17    O91     1.280   .     A
C17    C20     1.457   .     S
C17    O89     1.280   .     A
C18    C19     1.470   .     S
C18    O90     1.283   .     A
C18    O92     1.279   .     A
C19    C23     1.407   .     A
C21    C39     1.402   .     A
C21    H84     1.084   .     S
C22    O93     1.418   .     S
C22    C24     1.534   .     S
C22    H86     1.110   .     S
C22    H198    1.112   .     S
C23    C34     1.419   .     A
C23    O97     1.384   .     S
C24    H45     1.111   .     S
C24    C25     1.526   .     S
C24    H46     1.111   .     S
C25    H48     1.111   .     S
C25    H49     1.110   .     S
C25    H158    1.111   .     S
C26    H51     1.113   .     S
C26    C360    1.527   .     S
C26    H383    1.116   .     S
C26    O427    1.413   .     S
C27    H52     1.111   .     S
C27    H53     1.112   .     S
C27    C28     1.527   .     S
C27    C692    1.527   1_545 S
C28    H56     1.110   .     S
C28    H57     1.111   .     S
C28    H720    1.111   1_545 S
C29    C30     1.535   .     S
C29    H59     1.115   .     S
C29    H724    1.111   1_545 S
C29    O761    1.420   1_545 S
C30    C31     1.525   .     S
C30    H60     1.111   .     S
C30    H61     1.108   .     S
C31    H62     1.110   .     S
C31    H63     1.111   .     S
C31    H64     1.111   .     S
C32    H68     1.109   .     S
C32    H67     1.110   .     S
C32    O96     1.409   .     S
C32    H65     1.115   .     S
C33    H69     1.113   .     S
C33    H70     1.114   .     S
C33    O97     1.410   .     S
C33    H71     1.109   .     S
C34    C40     1.427   .     A
C34    C39     1.417   .     A
C35    H74     1.109   .     S
C35    O98     1.412   .     S
C35    H72     1.112   .     S
C35    H73     1.113   .     S
C36    C37     1.528   .     S
C36    H76     1.116   .     S
C36    H75     1.114   .     S
C36    O100    1.413   .     S
C37    H79     1.109   .     S
C37    C38     1.527   .     S
C37    H78     1.110   .     S
C38    H746    1.111   1_545 S
C38    H747    1.111   1_545 S
C38    H748    1.109   1_545 S
C39    C1042   1.392   .     S
C40    C1040   1.423   .     S
C41    C42     1.425   .     A
C41    C1039   1.423   1_554 S
C42    C43     1.393   .     A
C42    O98     1.383   .     S
C43    H44     1.083   .     S
C43    C1038   1.392   1_554 S
H47    C247    1.111   1_455 S
H50    C692    1.116   1_545 S
H54    C361    1.111   .     S
H58    C362    1.111   .     S
H66    C232    1.088   1_455 S
H80    C371    1.111   .     S
H81    C371    1.111   .     S
H82    C371    1.109   .     S
H87    C244    1.112   1_455 S
O88    Zn108   1.946   .     S
O88    Zn111   1.932   .     S
O88    Zn110   1.945   .     S
O88    Zn109   1.942   .     S
O89    Zn109   1.922   .     S
O90    Zn111   1.925   .     S
O91    Zn110   1.921   .     S
O92    Zn108   1.918   .     S
O93    C122    1.393   .     S
O94    C679    1.389   1_545 S
O94    C692    1.413   1_545 S
O95    C347    1.401   .     S
O95    C362    1.420   .     S
O99    Zn108   1.932   .     S
O101   Zn111   1.936   .     S
O102   Zn109   1.935   .     S
O103   Zn110   1.939   .     S
O104   Zn111   1.940   .     S
O105   Zn108   1.938   .     S
O106   Zn109   1.934   .     S
O107   Zn110   1.930   .     S
C112   O215    1.267   .     A
C112   C122    1.441   .     S
C112   O213    1.266   .     A
C113   O211    1.383   .     S
C113   C114    1.395   .     A
C113   C151    1.422   .     A
C114   H194    1.085   .     S
C114   C1115   1.392   .     S
C115   O214    1.284   .     A
C115   C121    1.456   .     S
C115   O216    1.271   .     A
C116   C118    1.402   .     A
C116   C117    1.417   .     A
C116   C1113   1.392   1_554 S
C117   C120    1.409   .     A
C117   C152    1.425   .     A
C118   H166    1.084   .     S
C118   C119    1.401   .     A
C119   C131    1.400   .     A
C119   O207    1.384   .     S
C120   C131    1.394   .     A
C120   H188    1.079   .     S
C121   C233    1.345   .     S
C121   H288    1.088   .     S
C123   H196    1.083   .     S
C123   C132    1.391   .     A
C123   C130    1.399   .     A
C124   C127    1.458   .     S
C124   C458    1.352   .     S
C124   O538    1.389   .     S
C125   C126    1.440   .     S
C125   C790    1.352   1_545 S
C125   O872    1.401   1_545 S
C126   O217    1.272   .     A
C126   O210    1.266   .     A
C127   O218    1.279   .     A
C127   O212    1.268   .     A
C128   O202    1.280   .     A
C128   C131    1.457   .     S
C128   O200    1.280   .     A
C129   C130    1.470   .     S
C129   O201    1.283   .     A
C129   O203    1.279   .     A
C130   C134    1.407   .     A
C132   C150    1.402   .     A
C132   H195    1.084   .     S
C133   O204    1.418   .     S
C133   C135    1.534   .     S
C133   H197    1.110   .     S
C133   H309    1.112   .     S
C134   C145    1.419   .     A
C134   O208    1.384   .     S
C135   H156    1.111   .     S
C135   C136    1.526   .     S
C135   H157    1.111   .     S
C136   H159    1.111   .     S
C136   H160    1.110   .     S
C136   H269    1.111   .     S
C137   H162    1.113   .     S
C137   C471    1.527   .     S
C137   H494    1.116   .     S
C137   O538    1.413   .     S
C138   H163    1.111   .     S
C138   H164    1.112   .     S
C138   C139    1.527   .     S
C138   C803    1.527   1_545 S
C139   H167    1.110   .     S
C139   H168    1.111   .     S
C139   H831    1.111   1_545 S
C140   C141    1.535   .     S
C140   H170    1.115   .     S
C140   H835    1.111   1_545 S
C140   O872    1.420   1_545 S
C141   C142    1.525   .     S
C141   H171    1.111   .     S
C141   H172    1.108   .     S
C142   H173    1.110   .     S
C142   H174    1.111   .     S
C142   H175    1.111   .     S
C143   H179    1.109   .     S
C143   H178    1.110   .     S
C143   O207    1.409   .     S
C143   H176    1.115   .     S
C144   H180    1.113   .     S
C144   H181    1.114   .     S
C144   O208    1.410   .     S
C144   H182    1.109   .     S
C145   C151    1.427   .     A
C145   C150    1.417   .     A
C146   H185    1.109   .     S
C146   O209    1.412   .     S
C146   H183    1.112   .     S
C146   H184    1.113   .     S
C147   C148    1.528   .     S
C147   H187    1.116   .     S
C147   H186    1.114   .     S
C147   O211    1.413   .     S
C148   H190    1.109   .     S
C148   C149    1.527   .     S
C148   H189    1.110   .     S
C149   H857    1.111   1_545 S
C149   H858    1.111   1_545 S
C149   H859    1.109   1_545 S
C150   C1153   1.392   .     S
C151   C1151   1.423   .     S
C152   C153    1.425   .     A
C152   C1150   1.423   1_554 S
C153   C154    1.393   .     A
C153   O209    1.383   .     S
C154   H155    1.083   .     S
C154   C1149   1.392   1_554 S
H161   C803    1.116   1_545 S
H165   C472    1.111   .     S
H169   C473    1.111   .     S
H191   C482    1.111   .     S
H192   C482    1.111   .     S
H193   C482    1.109   .     S
O199   Zn219   1.946   .     S
O199   Zn222   1.932   .     S
O199   Zn221   1.945   .     S
O199   Zn220   1.942   .     S
O200   Zn220   1.922   .     S
O201   Zn222   1.925   .     S
O202   Zn221   1.921   .     S
O203   Zn219   1.918   .     S
O204   C233    1.393   .     S
O205   C790    1.389   1_545 S
O205   C803    1.413   1_545 S
O206   C458    1.401   .     S
O206   C473    1.420   .     S
O210   Zn219   1.932   .     S
O212   Zn222   1.936   .     S
O213   Zn220   1.935   .     S
O214   Zn221   1.939   .     S
O215   Zn222   1.940   .     S
O216   Zn219   1.938   .     S
O217   Zn220   1.934   .     S
O218   Zn221   1.930   .     S
C223   O326    1.267   .     A
C223   C233    1.441   .     S
C223   O324    1.266   .     A
C224   O322    1.383   .     S
C224   C225    1.395   .     A
C224   C262    1.422   .     A
C225   H305    1.085   .     S
C225   C1226   1.392   .     S
C226   O325    1.284   .     A
C226   C232    1.456   .     S
C226   O327    1.271   .     A
C227   C229    1.402   .     A
C227   C228    1.417   .     A
C227   C1224   1.392   1_554 S
C228   C231    1.409   .     A
C228   C263    1.425   .     A
C229   H277    1.084   .     S
C229   C230    1.401   .     A
C230   C242    1.400   .     A
C230   O318    1.384   .     S
C231   C242    1.394   .     A
C231   H299    1.079   .     S
C232   C11     1.345   1_655 S
C232   H66     1.088   1_655 S
C234   H307    1.083   .     S
C234   C243    1.391   .     A
C234   C241    1.399   .     A
C235   C238    1.458   .     S
C235   C569    1.352   .     S
C235   O649    1.389   .     S
C236   C237    1.440   .     S
C236   C901    1.352   1_545 S
C236   O983    1.401   1_545 S
C237   O328    1.272   .     A
C237   O321    1.266   .     A
C238   O329    1.279   .     A
C238   O323    1.268   .     A
C239   O313    1.280   .     A
C239   C242    1.457   .     S
C239   O311    1.280   .     A
C240   C241    1.470   .     S
C240   O312    1.283   .     A
C240   O314    1.279   .     A
C241   C245    1.407   .     A
C243   C261    1.402   .     A
C243   H306    1.084   .     S
C244   O315    1.418   .     S
C244   C246    1.534   .     S
C244   H308    1.110   .     S
C244   H87     1.112   1_655 S
C245   C256    1.419   .     A
C245   O319    1.384   .     S
C246   H267    1.111   .     S
C246   C247    1.526   .     S
C246   H268    1.111   .     S
C247   H270    1.111   .     S
C247   H271    1.110   .     S
C247   H47     1.111   1_655 S
C248   H273    1.113   .     S
C248   C582    1.527   .     S
C248   H605    1.116   .     S
C248   O649    1.413   .     S
C249   H274    1.111   .     S
C249   H275    1.112   .     S
C249   C250    1.527   .     S
C249   C914    1.527   1_545 S
C250   H278    1.110   .     S
C250   H279    1.111   .     S
C250   H942    1.111   1_545 S
C251   C252    1.535   .     S
C251   H281    1.115   .     S
C251   H946    1.111   1_545 S
C251   O983    1.420   1_545 S
C252   C253    1.525   .     S
C252   H282    1.111   .     S
C252   H283    1.108   .     S
C253   H284    1.110   .     S
C253   H285    1.111   .     S
C253   H286    1.111   .     S
C254   H290    1.109   .     S
C254   H289    1.110   .     S
C254   O318    1.409   .     S
C254   H287    1.115   .     S
C255   H291    1.113   .     S
C255   H292    1.114   .     S
C255   O319    1.410   .     S
C255   H293    1.109   .     S
C256   C262    1.427   .     A
C256   C261    1.417   .     A
C257   H296    1.109   .     S
C257   O320    1.412   .     S
C257   H294    1.112   .     S
C257   H295    1.113   .     S
C258   C259    1.528   .     S
C258   H298    1.116   .     S
C258   H297    1.114   .     S
C258   O322    1.413   .     S
C259   H301    1.109   .     S
C259   C260    1.527   .     S
C259   H300    1.110   .     S
C260   H968    1.111   1_545 S
C260   H969    1.111   1_545 S
C260   H970    1.109   1_545 S
C261   C1264   1.392   .     S
C262   C1262   1.423   .     S
C263   C264    1.425   .     A
C263   C1261   1.423   1_554 S
C264   C265    1.393   .     A
C264   O320    1.383   .     S
C265   H266    1.083   .     S
C265   C1260   1.392   1_554 S
H272   C914    1.116   1_545 S
H276   C583    1.111   .     S
H280   C584    1.111   .     S
H302   C593    1.111   .     S
H303   C593    1.111   .     S
H304   C593    1.109   .     S
O310   Zn330   1.946   .     S
O310   Zn333   1.932   .     S
O310   Zn332   1.945   .     S
O310   Zn331   1.942   .     S
O311   Zn331   1.922   .     S
O312   Zn333   1.925   .     S
O313   Zn332   1.921   .     S
O314   Zn330   1.918   .     S
O315   C11     1.393   1_655 S
O316   C901    1.389   1_545 S
O316   C914    1.413   1_545 S
O317   C569    1.401   .     S
O317   C584    1.420   .     S
O321   Zn330   1.932   .     S
O323   Zn333   1.936   .     S
O324   Zn331   1.935   .     S
O325   Zn332   1.939   .     S
O326   Zn333   1.940   .     S
O327   Zn330   1.938   .     S
O328   Zn331   1.934   .     S
O329   Zn332   1.930   .     S
C334   O437    1.267   .     A
C334   C344    1.441   .     S
C334   O435    1.266   .     A
C335   O433    1.383   .     S
C335   C336    1.395   .     A
C335   C373    1.422   .     A
C336   H416    1.085   .     S
C336   C1337   1.392   .     S
C337   O436    1.284   .     A
C337   C343    1.456   .     S
C337   O438    1.271   .     A
C338   C340    1.402   .     A
C338   C339    1.417   .     A
C338   C1335   1.392   1_554 S
C339   C342    1.409   .     A
C339   C374    1.425   .     A
C340   H388    1.084   .     S
C340   C341    1.401   .     A
C341   C353    1.400   .     A
C341   O429    1.384   .     S
C342   C353    1.394   .     A
C342   H410    1.079   .     S
C343   C455    1.345   .     S
C343   H510    1.088   .     S
C344   C565    1.345   1_455 S
C344   O648    1.393   1_455 S
C345   H418    1.083   .     S
C345   C354    1.391   .     A
C345   C352    1.399   .     A
C346   C349    1.458   .     S
C346   C680    1.352   .     S
C346   O760    1.389   .     S
C347   C348    1.440   .     S
C348   O439    1.272   .     A
C348   O432    1.266   .     A
C349   O440    1.279   .     A
C349   O434    1.268   .     A
C350   O424    1.280   .     A
C350   C353    1.457   .     S
C350   O422    1.280   .     A
C351   C352    1.470   .     S
C351   O423    1.283   .     A
C351   O425    1.279   .     A
C352   C356    1.407   .     A
C354   C372    1.402   .     A
C354   H417    1.084   .     S
C355   O426    1.418   .     S
C355   C357    1.534   .     S
C355   H419    1.110   .     S
C355   H531    1.112   .     S
C356   C367    1.419   .     A
C356   O430    1.384   .     S
C357   H378    1.111   .     S
C357   C358    1.526   .     S
C357   H379    1.111   .     S
C358   H381    1.111   .     S
C358   H382    1.110   .     S
C358   H491    1.111   .     S
C359   H384    1.113   .     S
C359   C693    1.527   .     S
C359   H716    1.116   .     S
C359   O760    1.413   .     S
C360   H385    1.111   .     S
C360   H386    1.112   .     S
C360   C361    1.527   .     S
C361   H389    1.110   .     S
C361   H390    1.111   .     S
C362   C363    1.535   .     S
C362   H392    1.115   .     S
C363   C364    1.525   .     S
C363   H393    1.111   .     S
C363   H394    1.108   .     S
C364   H395    1.110   .     S
C364   H396    1.111   .     S
C364   H397    1.111   .     S
C365   H401    1.109   .     S
C365   H400    1.110   .     S
C365   O429    1.409   .     S
C365   H398    1.115   .     S
C366   H402    1.113   .     S
C366   H403    1.114   .     S
C366   O430    1.410   .     S
C366   H404    1.109   .     S
C367   C373    1.427   .     A
C367   C372    1.417   .     A
C368   H407    1.109   .     S
C368   O431    1.412   .     S
C368   H405    1.112   .     S
C368   H406    1.113   .     S
C369   C370    1.528   .     S
C369   H409    1.116   .     S
C369   H408    1.114   .     S
C369   O433    1.413   .     S
C370   H412    1.109   .     S
C370   C371    1.527   .     S
C370   H411    1.110   .     S
C372   C1375   1.392   .     S
C373   C1373   1.423   .     S
C374   C375    1.425   .     A
C374   C1372   1.423   1_554 S
C375   C376    1.393   .     A
C375   O431    1.383   .     S
C376   H377    1.083   .     S
C376   C1371   1.392   1_554 S
H380   C580    1.111   1_455 S
H387   C694    1.111   .     S
H391   C695    1.111   .     S
H399   C565    1.088   1_455 S
H413   C704    1.111   .     S
H414   C704    1.111   .     S
H415   C704    1.109   .     S
H420   C577    1.112   1_455 S
O421   Zn441   1.946   .     S
O421   Zn444   1.932   .     S
O421   Zn443   1.945   .     S
O421   Zn442   1.942   .     S
O422   Zn442   1.922   .     S
O423   Zn444   1.925   .     S
O424   Zn443   1.921   .     S
O425   Zn441   1.918   .     S
O426   C455    1.393   .     S
O428   C680    1.401   .     S
O428   C695    1.420   .     S
O432   Zn441   1.932   .     S
O434   Zn444   1.936   .     S
O435   Zn442   1.935   .     S
O436   Zn443   1.939   .     S
O437   Zn444   1.940   .     S
O438   Zn441   1.938   .     S
O439   Zn442   1.934   .     S
O440   Zn443   1.930   .     S
C445   O548    1.267   .     A
C445   C455    1.441   .     S
C445   O546    1.266   .     A
C446   O544    1.383   .     S
C446   C447    1.395   .     A
C446   C484    1.422   .     A
C447   H527    1.085   .     S
C447   C1448   1.392   .     S
C448   O547    1.284   .     A
C448   C454    1.456   .     S
C448   O549    1.271   .     A
C449   C451    1.402   .     A
C449   C450    1.417   .     A
C449   C1446   1.392   1_554 S
C450   C453    1.409   .     A
C450   C485    1.425   .     A
C451   H499    1.084   .     S
C451   C452    1.401   .     A
C452   C464    1.400   .     A
C452   O540    1.384   .     S
C453   C464    1.394   .     A
C453   H521    1.079   .     S
C454   C566    1.345   .     S
C454   H621    1.088   .     S
C456   H529    1.083   .     S
C456   C465    1.391   .     A
C456   C463    1.399   .     A
C457   C460    1.458   .     S
C457   C791    1.352   .     S
C457   O871    1.389   .     S
C458   C459    1.440   .     S
C459   O550    1.272   .     A
C459   O543    1.266   .     A
C460   O551    1.279   .     A
C460   O545    1.268   .     A
C461   O535    1.280   .     A
C461   C464    1.457   .     S
C461   O533    1.280   .     A
C462   C463    1.470   .     S
C462   O534    1.283   .     A
C462   O536    1.279   .     A
C463   C467    1.407   .     A
C465   C483    1.402   .     A
C465   H528    1.084   .     S
C466   O537    1.418   .     S
C466   C468    1.534   .     S
C466   H530    1.110   .     S
C466   H642    1.112   .     S
C467   C478    1.419   .     A
C467   O541    1.384   .     S
C468   H489    1.111   .     S
C468   C469    1.526   .     S
C468   H490    1.111   .     S
C469   H492    1.111   .     S
C469   H493    1.110   .     S
C469   H602    1.111   .     S
C470   H495    1.113   .     S
C470   C804    1.527   .     S
C470   H827    1.116   .     S
C470   O871    1.413   .     S
C471   H496    1.111   .     S
C471   H497    1.112   .     S
C471   C472    1.527   .     S
C472   H500    1.110   .     S
C472   H501    1.111   .     S
C473   C474    1.535   .     S
C473   H503    1.115   .     S
C474   C475    1.525   .     S
C474   H504    1.111   .     S
C474   H505    1.108   .     S
C475   H506    1.110   .     S
C475   H507    1.111   .     S
C475   H508    1.111   .     S
C476   H512    1.109   .     S
C476   H511    1.110   .     S
C476   O540    1.409   .     S
C476   H509    1.115   .     S
C477   H513    1.113   .     S
C477   H514    1.114   .     S
C477   O541    1.410   .     S
C477   H515    1.109   .     S
C478   C484    1.427   .     A
C478   C483    1.417   .     A
C479   H518    1.109   .     S
C479   O542    1.412   .     S
C479   H516    1.112   .     S
C479   H517    1.113   .     S
C480   C481    1.528   .     S
C480   H520    1.116   .     S
C480   H519    1.114   .     S
C480   O544    1.413   .     S
C481   H523    1.109   .     S
C481   C482    1.527   .     S
C481   H522    1.110   .     S
C483   C1486   1.392   .     S
C484   C1484   1.423   .     S
C485   C486    1.425   .     A
C485   C1483   1.423   1_554 S
C486   C487    1.393   .     A
C486   O542    1.383   .     S
C487   H488    1.083   .     S
C487   C1482   1.392   1_554 S
H498   C805    1.111   .     S
H502   C806    1.111   .     S
H524   C815    1.111   .     S
H525   C815    1.111   .     S
H526   C815    1.109   .     S
O532   Zn552   1.946   .     S
O532   Zn555   1.932   .     S
O532   Zn554   1.945   .     S
O532   Zn553   1.942   .     S
O533   Zn553   1.922   .     S
O534   Zn555   1.925   .     S
O535   Zn554   1.921   .     S
O536   Zn552   1.918   .     S
O537   C566    1.393   .     S
O539   C791    1.401   .     S
O539   C806    1.420   .     S
O543   Zn552   1.932   .     S
O545   Zn555   1.936   .     S
O546   Zn553   1.935   .     S
O547   Zn554   1.939   .     S
O548   Zn555   1.940   .     S
O549   Zn552   1.938   .     S
O550   Zn553   1.934   .     S
O551   Zn554   1.930   .     S
C556   O659    1.267   .     A
C556   C566    1.441   .     S
C556   O657    1.266   .     A
C557   O655    1.383   .     S
C557   C558    1.395   .     A
C557   C595    1.422   .     A
C558   H638    1.085   .     S
C558   C1559   1.392   .     S
C559   O658    1.284   .     A
C559   C565    1.456   .     S
C559   O660    1.271   .     A
C560   C562    1.402   .     A
C560   C561    1.417   .     A
C560   C1557   1.392   1_554 S
C561   C564    1.409   .     A
C561   C596    1.425   .     A
C562   H610    1.084   .     S
C562   C563    1.401   .     A
C563   C575    1.400   .     A
C563   O651    1.384   .     S
C564   C575    1.394   .     A
C564   H632    1.079   .     S
C565   C344    1.345   1_655 S
C565   H399    1.088   1_655 S
C567   H640    1.083   .     S
C567   C576    1.391   .     A
C567   C574    1.399   .     A
C568   C571    1.458   .     S
C568   C902    1.352   .     S
C568   O982    1.389   .     S
C569   C570    1.440   .     S
C570   O661    1.272   .     A
C570   O654    1.266   .     A
C571   O662    1.279   .     A
C571   O656    1.268   .     A
C572   O646    1.280   .     A
C572   C575    1.457   .     S
C572   O644    1.280   .     A
C573   C574    1.470   .     S
C573   O645    1.283   .     A
C573   O647    1.279   .     A
C574   C578    1.407   .     A
C576   C594    1.402   .     A
C576   H639    1.084   .     S
C577   O648    1.418   .     S
C577   C579    1.534   .     S
C577   H641    1.110   .     S
C577   H420    1.112   1_655 S
C578   C589    1.419   .     A
C578   O652    1.384   .     S
C579   H600    1.111   .     S
C579   C580    1.526   .     S
C579   H601    1.111   .     S
C580   H603    1.111   .     S
C580   H604    1.110   .     S
C580   H380    1.111   1_655 S
C581   H606    1.113   .     S
C581   C915    1.527   .     S
C581   H938    1.116   .     S
C581   O982    1.413   .     S
C582   H607    1.111   .     S
C582   H608    1.112   .     S
C582   C583    1.527   .     S
C583   H611    1.110   .     S
C583   H612    1.111   .     S
C584   C585    1.535   .     S
C584   H614    1.115   .     S
C585   C586    1.525   .     S
C585   H615    1.111   .     S
C585   H616    1.108   .     S
C586   H617    1.110   .     S
C586   H618    1.111   .     S
C586   H619    1.111   .     S
C587   H623    1.109   .     S
C587   H622    1.110   .     S
C587   O651    1.409   .     S
C587   H620    1.115   .     S
C588   H624    1.113   .     S
C588   H625    1.114   .     S
C588   O652    1.410   .     S
C588   H626    1.109   .     S
C589   C595    1.427   .     A
C589   C594    1.417   .     A
C590   H629    1.109   .     S
C590   O653    1.412   .     S
C590   H627    1.112   .     S
C590   H628    1.113   .     S
C591   C592    1.528   .     S
C591   H631    1.116   .     S
C591   H630    1.114   .     S
C591   O655    1.413   .     S
C592   H634    1.109   .     S
C592   C593    1.527   .     S
C592   H633    1.110   .     S
C594   C1597   1.392   .     S
C595   C1595   1.423   .     S
C596   C597    1.425   .     A
C596   C1594   1.423   1_554 S
C597   C598    1.393   .     A
C597   O653    1.383   .     S
C598   H599    1.083   .     S
C598   C1593   1.392   1_554 S
H609   C916    1.111   .     S
H613   C917    1.111   .     S
H635   C926    1.111   .     S
H636   C926    1.111   .     S
H637   C926    1.109   .     S
O643   Zn663   1.946   .     S
O643   Zn666   1.932   .     S
O643   Zn665   1.945   .     S
O643   Zn664   1.942   .     S
O644   Zn664   1.922   .     S
O645   Zn666   1.925   .     S
O646   Zn665   1.921   .     S
O647   Zn663   1.918   .     S
O648   C344    1.393   1_655 S
O650   C902    1.401   .     S
O650   C917    1.420   .     S
O654   Zn663   1.932   .     S
O656   Zn666   1.936   .     S
O657   Zn664   1.935   .     S
O658   Zn665   1.939   .     S
O659   Zn666   1.940   .     S
O660   Zn663   1.938   .     S
O661   Zn664   1.934   .     S
O662   Zn665   1.930   .     S
C667   O770    1.267   .     A
C667   C677    1.441   .     S
C667   O768    1.266   .     A
C668   O766    1.383   .     S
C668   C669    1.395   .     A
C668   C706    1.422   .     A
C669   H749    1.085   .     S
C669   C1670   1.392   .     S
C670   O769    1.284   .     A
C670   C676    1.456   .     S
C670   O771    1.271   .     A
C671   C673    1.402   .     A
C671   C672    1.417   .     A
C671   C1668   1.392   1_554 S
C672   C675    1.409   .     A
C672   C707    1.425   .     A
C673   H721    1.084   .     S
C673   C674    1.401   .     A
C674   C686    1.400   .     A
C674   O762    1.384   .     S
C675   C686    1.394   .     A
C675   H743    1.079   .     S
C676   C788    1.345   .     S
C676   H843    1.088   .     S
C677   C898    1.345   1_455 S
C677   O981    1.393   1_455 S
C678   H751    1.083   .     S
C678   C687    1.391   .     A
C678   C685    1.399   .     A
C679   C682    1.458   .     S
C679   C14     1.352   1_565 S
C679   O94     1.389   1_565 S
C680   C681    1.440   .     S
C681   O772    1.272   .     A
C681   O765    1.266   .     A
C682   O773    1.279   .     A
C682   O767    1.268   .     A
C683   O757    1.280   .     A
C683   C686    1.457   .     S
C683   O755    1.280   .     A
C684   C685    1.470   .     S
C684   O756    1.283   .     A
C684   O758    1.279   .     A
C685   C689    1.407   .     A
C687   C705    1.402   .     A
C687   H750    1.084   .     S
C688   O759    1.418   .     S
C688   C690    1.534   .     S
C688   H752    1.110   .     S
C688   H864    1.112   .     S
C689   C700    1.419   .     A
C689   O763    1.384   .     S
C690   H711    1.111   .     S
C690   C691    1.526   .     S
C690   H712    1.111   .     S
C691   H714    1.111   .     S
C691   H715    1.110   .     S
C691   H824    1.111   .     S
C692   H717    1.113   .     S
C692   C27     1.527   1_565 S
C692   H50     1.116   1_565 S
C692   O94     1.413   1_565 S
C693   H718    1.111   .     S
C693   H719    1.112   .     S
C693   C694    1.527   .     S
C694   H722    1.110   .     S
C694   H723    1.111   .     S
C695   C696    1.535   .     S
C695   H725    1.115   .     S
C696   C697    1.525   .     S
C696   H726    1.111   .     S
C696   H727    1.108   .     S
C697   H728    1.110   .     S
C697   H729    1.111   .     S
C697   H730    1.111   .     S
C698   H734    1.109   .     S
C698   H733    1.110   .     S
C698   O762    1.409   .     S
C698   H731    1.115   .     S
C699   H735    1.113   .     S
C699   H736    1.114   .     S
C699   O763    1.410   .     S
C699   H737    1.109   .     S
C700   C706    1.427   .     A
C700   C705    1.417   .     A
C701   H740    1.109   .     S
C701   O764    1.412   .     S
C701   H738    1.112   .     S
C701   H739    1.113   .     S
C702   C703    1.528   .     S
C702   H742    1.116   .     S
C702   H741    1.114   .     S
C702   O766    1.413   .     S
C703   H745    1.109   .     S
C703   C704    1.527   .     S
C703   H744    1.110   .     S
C705   C1708   1.392   .     S
C706   C1706   1.423   .     S
C707   C708    1.425   .     A
C707   C1705   1.423   1_554 S
C708   C709    1.393   .     A
C708   O764    1.383   .     S
C709   H710    1.083   .     S
C709   C1704   1.392   1_554 S
H713   C913    1.111   1_455 S
H720   C28     1.111   1_565 S
H724   C29     1.111   1_565 S
H732   C898    1.088   1_455 S
H746   C38     1.111   1_565 S
H747   C38     1.111   1_565 S
H748   C38     1.109   1_565 S
H753   C910    1.112   1_455 S
O754   Zn774   1.946   .     S
O754   Zn777   1.932   .     S
O754   Zn776   1.945   .     S
O754   Zn775   1.942   .     S
O755   Zn775   1.922   .     S
O756   Zn777   1.925   .     S
O757   Zn776   1.921   .     S
O758   Zn774   1.918   .     S
O759   C788    1.393   .     S
O761   C14     1.401   1_565 S
O761   C29     1.420   1_565 S
O765   Zn774   1.932   .     S
O767   Zn777   1.936   .     S
O768   Zn775   1.935   .     S
O769   Zn776   1.939   .     S
O770   Zn777   1.940   .     S
O771   Zn774   1.938   .     S
O772   Zn775   1.934   .     S
O773   Zn776   1.930   .     S
C778   O881    1.267   .     A
C778   C788    1.441   .     S
C778   O879    1.266   .     A
C779   O877    1.383   .     S
C779   C780    1.395   .     A
C779   C817    1.422   .     A
C780   H860    1.085   .     S
C780   C1781   1.392   .     S
C781   O880    1.284   .     A
C781   C787    1.456   .     S
C781   O882    1.271   .     A
C782   C784    1.402   .     A
C782   C783    1.417   .     A
C782   C1779   1.392   1_554 S
C783   C786    1.409   .     A
C783   C818    1.425   .     A
C784   H832    1.084   .     S
C784   C785    1.401   .     A
C785   C797    1.400   .     A
C785   O873    1.384   .     S
C786   C797    1.394   .     A
C786   H854    1.079   .     S
C787   C899    1.345   .     S
C787   H954    1.088   .     S
C789   H862    1.083   .     S
C789   C798    1.391   .     A
C789   C796    1.399   .     A
C790   C793    1.458   .     S
C790   C125    1.352   1_565 S
C790   O205    1.389   1_565 S
C791   C792    1.440   .     S
C792   O883    1.272   .     A
C792   O876    1.266   .     A
C793   O884    1.279   .     A
C793   O878    1.268   .     A
C794   O868    1.280   .     A
C794   C797    1.457   .     S
C794   O866    1.280   .     A
C795   C796    1.470   .     S
C795   O867    1.283   .     A
C795   O869    1.279   .     A
C796   C800    1.407   .     A
C798   C816    1.402   .     A
C798   H861    1.084   .     S
C799   O870    1.418   .     S
C799   C801    1.534   .     S
C799   H863    1.110   .     S
C799   H975    1.112   .     S
C800   C811    1.419   .     A
C800   O874    1.384   .     S
C801   H822    1.111   .     S
C801   C802    1.526   .     S
C801   H823    1.111   .     S
C802   H825    1.111   .     S
C802   H826    1.110   .     S
C802   H935    1.111   .     S
C803   H828    1.113   .     S
C803   C138    1.527   1_565 S
C803   H161    1.116   1_565 S
C803   O205    1.413   1_565 S
C804   H829    1.111   .     S
C804   H830    1.112   .     S
C804   C805    1.527   .     S
C805   H833    1.110   .     S
C805   H834    1.111   .     S
C806   C807    1.535   .     S
C806   H836    1.115   .     S
C807   C808    1.525   .     S
C807   H837    1.111   .     S
C807   H838    1.108   .     S
C808   H839    1.110   .     S
C808   H840    1.111   .     S
C808   H841    1.111   .     S
C809   H845    1.109   .     S
C809   H844    1.110   .     S
C809   O873    1.409   .     S
C809   H842    1.115   .     S
C810   H846    1.113   .     S
C810   H847    1.114   .     S
C810   O874    1.410   .     S
C810   H848    1.109   .     S
C811   C817    1.427   .     A
C811   C816    1.417   .     A
C812   H851    1.109   .     S
C812   O875    1.412   .     S
C812   H849    1.112   .     S
C812   H850    1.113   .     S
C813   C814    1.528   .     S
C813   H853    1.116   .     S
C813   H852    1.114   .     S
C813   O877    1.413   .     S
C814   H856    1.109   .     S
C814   C815    1.527   .     S
C814   H855    1.110   .     S
C816   C1819   1.392   .     S
C817   C1817   1.423   .     S
C818   C819    1.425   .     A
C818   C1816   1.423   1_554 S
C819   C820    1.393   .     A
C819   O875    1.383   .     S
C820   H821    1.083   .     S
C820   C1815   1.392   1_554 S
H831   C139    1.111   1_565 S
H835   C140    1.111   1_565 S
H857   C149    1.111   1_565 S
H858   C149    1.111   1_565 S
H859   C149    1.109   1_565 S
O865   Zn885   1.946   .     S
O865   Zn888   1.932   .     S
O865   Zn887   1.945   .     S
O865   Zn886   1.942   .     S
O866   Zn886   1.922   .     S
O867   Zn888   1.925   .     S
O868   Zn887   1.921   .     S
O869   Zn885   1.918   .     S
O870   C899    1.393   .     S
O872   C125    1.401   1_565 S
O872   C140    1.420   1_565 S
O876   Zn885   1.932   .     S
O878   Zn888   1.936   .     S
O879   Zn886   1.935   .     S
O880   Zn887   1.939   .     S
O881   Zn888   1.940   .     S
O882   Zn885   1.938   .     S
O883   Zn886   1.934   .     S
O884   Zn887   1.930   .     S
C889   O992    1.267   .     A
C889   C899    1.441   .     S
C889   O990    1.266   .     A
C890   O988    1.383   .     S
C890   C891    1.395   .     A
C890   C928    1.422   .     A
C891   H971    1.085   .     S
C891   C1892   1.392   .     S
C892   O991    1.284   .     A
C892   C898    1.456   .     S
C892   O993    1.271   .     A
C893   C895    1.402   .     A
C893   C894    1.417   .     A
C893   C1890   1.392   1_554 S
C894   C897    1.409   .     A
C894   C929    1.425   .     A
C895   H943    1.084   .     S
C895   C896    1.401   .     A
C896   C908    1.400   .     A
C896   O984    1.384   .     S
C897   C908    1.394   .     A
C897   H965    1.079   .     S
C898   C677    1.345   1_655 S
C898   H732    1.088   1_655 S
C900   H973    1.083   .     S
C900   C909    1.391   .     A
C900   C907    1.399   .     A
C901   C904    1.458   .     S
C901   C236    1.352   1_565 S
C901   O316    1.389   1_565 S
C902   C903    1.440   .     S
C903   O994    1.272   .     A
C903   O987    1.266   .     A
C904   O995    1.279   .     A
C904   O989    1.268   .     A
C905   O979    1.280   .     A
C905   C908    1.457   .     S
C905   O977    1.280   .     A
C906   C907    1.470   .     S
C906   O978    1.283   .     A
C906   O980    1.279   .     A
C907   C911    1.407   .     A
C909   C927    1.402   .     A
C909   H972    1.084   .     S
C910   O981    1.418   .     S
C910   C912    1.534   .     S
C910   H974    1.110   .     S
C910   H753    1.112   1_655 S
C911   C922    1.419   .     A
C911   O985    1.384   .     S
C912   H933    1.111   .     S
C912   C913    1.526   .     S
C912   H934    1.111   .     S
C913   H936    1.111   .     S
C913   H937    1.110   .     S
C913   H713    1.111   1_655 S
C914   H939    1.113   .     S
C914   C249    1.527   1_565 S
C914   H272    1.116   1_565 S
C914   O316    1.413   1_565 S
C915   H940    1.111   .     S
C915   H941    1.112   .     S
C915   C916    1.527   .     S
C916   H944    1.110   .     S
C916   H945    1.111   .     S
C917   C918    1.535   .     S
C917   H947    1.115   .     S
C918   C919    1.525   .     S
C918   H948    1.111   .     S
C918   H949    1.108   .     S
C919   H950    1.110   .     S
C919   H951    1.111   .     S
C919   H952    1.111   .     S
C920   H956    1.109   .     S
C920   H955    1.110   .     S
C920   O984    1.409   .     S
C920   H953    1.115   .     S
C921   H957    1.113   .     S
C921   H958    1.114   .     S
C921   O985    1.410   .     S
C921   H959    1.109   .     S
C922   C928    1.427   .     A
C922   C927    1.417   .     A
C923   H962    1.109   .     S
C923   O986    1.412   .     S
C923   H960    1.112   .     S
C923   H961    1.113   .     S
C924   C925    1.528   .     S
C924   H964    1.116   .     S
C924   H963    1.114   .     S
C924   O988    1.413   .     S
C925   H967    1.109   .     S
C925   C926    1.527   .     S
C925   H966    1.110   .     S
C927   C1930   1.392   .     S
C928   C1928   1.423   .     S
C929   C930    1.425   .     A
C929   C1927   1.423   1_554 S
C930   C931    1.393   .     A
C930   O986    1.383   .     S
C931   H932    1.083   .     S
C931   C1926   1.392   1_554 S
H942   C250    1.111   1_565 S
H946   C251    1.111   1_565 S
H968   C260    1.111   1_565 S
H969   C260    1.111   1_565 S
H970   C260    1.109   1_565 S
O976   Zn996   1.946   .     S
O976   Zn999   1.932   .     S
O976   Zn998   1.945   .     S
O976   Zn997   1.942   .     S
O977   Zn997   1.922   .     S
O978   Zn999   1.925   .     S
O979   Zn998   1.921   .     S
O980   Zn996   1.918   .     S
O981   C677    1.393   1_655 S
O983   C236    1.401   1_565 S
O983   C251    1.420   1_565 S
O987   Zn996   1.932   .     S
O989   Zn999   1.936   .     S
O990   Zn997   1.935   .     S
O991   Zn998   1.939   .     S
O992   Zn999   1.940   .     S
O993   Zn996   1.938   .     S
O994   Zn997   1.934   .     S
O995   Zn998   1.930   .     S
C1000  O1103   1.267   .     A
C1000  C1010   1.441   .     S
C1000  O1101   1.266   .     A
C1001  O1099   1.383   .     S
C1001  C1002   1.395   .     A
C1001  C1039   1.422   .     A
C1002  H1082   1.085   .     S
C1002  C5      1.392   1_556 S
C1003  O1102   1.284   .     A
C1003  C1009   1.456   .     S
C1003  O1104   1.271   .     A
C1004  C1006   1.402   .     A
C1004  C1005   1.417   .     A
C1005  C1008   1.409   .     A
C1005  C1040   1.425   .     A
C1006  H1054   1.084   .     S
C1006  C1007   1.401   .     A
C1007  C1019   1.400   .     A
C1007  O1095   1.384   .     S
C1008  C1019   1.394   .     A
C1008  H1076   1.079   .     S
C1009  C1121   1.345   .     S
C1009  H1176   1.088   .     S
C1010  C1231   1.345   1_455 S
C1010  O1314   1.393   1_455 S
C1011  H1084   1.083   .     S
C1011  C1020   1.391   .     A
C1011  C1018   1.399   .     A
C1012  C1015   1.458   .     S
C1012  C1346   1.352   .     S
C1012  O1426   1.389   .     S
C1013  C1014   1.440   .     S
C1013  C1678   1.352   1_545 S
C1013  O1760   1.401   1_545 S
C1014  O1105   1.272   .     A
C1014  O1098   1.266   .     A
C1015  O1106   1.279   .     A
C1015  O1100   1.268   .     A
C1016  O1090   1.280   .     A
C1016  C1019   1.457   .     S
C1016  O1088   1.280   .     A
C1017  C1018   1.470   .     S
C1017  O1089   1.283   .     A
C1017  O1091   1.279   .     A
C1018  C1022   1.407   .     A
C1020  C1038   1.402   .     A
C1020  H1083   1.084   .     S
C1021  O1092   1.418   .     S
C1021  C1023   1.534   .     S
C1021  H1085   1.110   .     S
C1021  H1197   1.112   .     S
C1022  C1033   1.419   .     A
C1022  O1096   1.384   .     S
C1023  H1044   1.111   .     S
C1023  C1024   1.526   .     S
C1023  H1045   1.111   .     S
C1024  H1047   1.111   .     S
C1024  H1048   1.110   .     S
C1024  H1157   1.111   .     S
C1025  H1050   1.113   .     S
C1025  C1359   1.527   .     S
C1025  H1382   1.116   .     S
C1025  O1426   1.413   .     S
C1026  H1051   1.111   .     S
C1026  H1052   1.112   .     S
C1026  C1027   1.527   .     S
C1026  C1691   1.527   1_545 S
C1027  H1055   1.110   .     S
C1027  H1056   1.111   .     S
C1027  H1719   1.111   1_545 S
C1028  C1029   1.535   .     S
C1028  H1058   1.115   .     S
C1028  H1723   1.111   1_545 S
C1028  O1760   1.420   1_545 S
C1029  C1030   1.525   .     S
C1029  H1059   1.111   .     S
C1029  H1060   1.108   .     S
C1030  H1061   1.110   .     S
C1030  H1062   1.111   .     S
C1030  H1063   1.111   .     S
C1031  H1067   1.109   .     S
C1031  H1066   1.110   .     S
C1031  O1095   1.409   .     S
C1031  H1064   1.115   .     S
C1032  H1068   1.113   .     S
C1032  H1069   1.114   .     S
C1032  O1096   1.410   .     S
C1032  H1070   1.109   .     S
C1033  C1039   1.427   .     A
C1033  C1038   1.417   .     A
C1034  H1073   1.109   .     S
C1034  O1097   1.412   .     S
C1034  H1071   1.112   .     S
C1034  H1072   1.113   .     S
C1035  C1036   1.528   .     S
C1035  H1075   1.116   .     S
C1035  H1074   1.114   .     S
C1035  O1099   1.413   .     S
C1036  H1078   1.109   .     S
C1036  C1037   1.527   .     S
C1036  H1077   1.110   .     S
C1037  H1745   1.111   1_545 S
C1037  H1746   1.111   1_545 S
C1037  H1747   1.109   1_545 S
C1038  C43     1.392   1_556 S
C1039  C41     1.423   1_556 S
C1040  C1041   1.425   .     A
C1041  C1042   1.393   .     A
C1041  O1097   1.383   .     S
C1042  H1043   1.083   .     S
H1046  C1246   1.111   1_455 S
H1049  C1691   1.116   1_545 S
H1053  C1360   1.111   .     S
H1057  C1361   1.111   .     S
H1065  C1231   1.088   1_455 S
H1079  C1370   1.111   .     S
H1080  C1370   1.111   .     S
H1081  C1370   1.109   .     S
H1086  C1243   1.112   1_455 S
O1087  Zn1107  1.946   .     S
O1087  Zn1110  1.932   .     S
O1087  Zn1109  1.945   .     S
O1087  Zn1108  1.942   .     S
O1088  Zn1108  1.922   .     S
O1089  Zn1110  1.925   .     S
O1090  Zn1109  1.921   .     S
O1091  Zn1107  1.918   .     S
O1092  C1121   1.393   .     S
O1093  C1678   1.389   1_545 S
O1093  C1691   1.413   1_545 S
O1094  C1346   1.401   .     S
O1094  C1361   1.420   .     S
O1098  Zn1107  1.932   .     S
O1100  Zn1110  1.936   .     S
O1101  Zn1108  1.935   .     S
O1102  Zn1109  1.939   .     S
O1103  Zn1110  1.940   .     S
O1104  Zn1107  1.938   .     S
O1105  Zn1108  1.934   .     S
O1106  Zn1109  1.930   .     S
C1111  O1214   1.267   .     A
C1111  C1121   1.441   .     S
C1111  O1212   1.266   .     A
C1112  O1210   1.383   .     S
C1112  C1113   1.395   .     A
C1112  C1150   1.422   .     A
C1113  H1193   1.085   .     S
C1113  C116    1.392   1_556 S
C1114  O1213   1.284   .     A
C1114  C1120   1.456   .     S
C1114  O1215   1.271   .     A
C1115  C1117   1.402   .     A
C1115  C1116   1.417   .     A
C1116  C1119   1.409   .     A
C1116  C1151   1.425   .     A
C1117  H1165   1.084   .     S
C1117  C1118   1.401   .     A
C1118  C1130   1.400   .     A
C1118  O1206   1.384   .     S
C1119  C1130   1.394   .     A
C1119  H1187   1.079   .     S
C1120  C1232   1.345   .     S
C1120  H1287   1.088   .     S
C1122  H1195   1.083   .     S
C1122  C1131   1.391   .     A
C1122  C1129   1.399   .     A
C1123  C1126   1.458   .     S
C1123  C1457   1.352   .     S
C1123  O1537   1.389   .     S
C1124  C1125   1.440   .     S
C1124  C1789   1.352   1_545 S
C1124  O1871   1.401   1_545 S
C1125  O1216   1.272   .     A
C1125  O1209   1.266   .     A
C1126  O1217   1.279   .     A
C1126  O1211   1.268   .     A
C1127  O1201   1.280   .     A
C1127  C1130   1.457   .     S
C1127  O1199   1.280   .     A
C1128  C1129   1.470   .     S
C1128  O1200   1.283   .     A
C1128  O1202   1.279   .     A
C1129  C1133   1.407   .     A
C1131  C1149   1.402   .     A
C1131  H1194   1.084   .     S
C1132  O1203   1.418   .     S
C1132  C1134   1.534   .     S
C1132  H1196   1.110   .     S
C1132  H1308   1.112   .     S
C1133  C1144   1.419   .     A
C1133  O1207   1.384   .     S
C1134  H1155   1.111   .     S
C1134  C1135   1.526   .     S
C1134  H1156   1.111   .     S
C1135  H1158   1.111   .     S
C1135  H1159   1.110   .     S
C1135  H1268   1.111   .     S
C1136  H1161   1.113   .     S
C1136  C1470   1.527   .     S
C1136  H1493   1.116   .     S
C1136  O1537   1.413   .     S
C1137  H1162   1.111   .     S
C1137  H1163   1.112   .     S
C1137  C1138   1.527   .     S
C1137  C1802   1.527   1_545 S
C1138  H1166   1.110   .     S
C1138  H1167   1.111   .     S
C1138  H1830   1.111   1_545 S
C1139  C1140   1.535   .     S
C1139  H1169   1.115   .     S
C1139  H1834   1.111   1_545 S
C1139  O1871   1.420   1_545 S
C1140  C1141   1.525   .     S
C1140  H1170   1.111   .     S
C1140  H1171   1.108   .     S
C1141  H1172   1.110   .     S
C1141  H1173   1.111   .     S
C1141  H1174   1.111   .     S
C1142  H1178   1.109   .     S
C1142  H1177   1.110   .     S
C1142  O1206   1.409   .     S
C1142  H1175   1.115   .     S
C1143  H1179   1.113   .     S
C1143  H1180   1.114   .     S
C1143  O1207   1.410   .     S
C1143  H1181   1.109   .     S
C1144  C1150   1.427   .     A
C1144  C1149   1.417   .     A
C1145  H1184   1.109   .     S
C1145  O1208   1.412   .     S
C1145  H1182   1.112   .     S
C1145  H1183   1.113   .     S
C1146  C1147   1.528   .     S
C1146  H1186   1.116   .     S
C1146  H1185   1.114   .     S
C1146  O1210   1.413   .     S
C1147  H1189   1.109   .     S
C1147  C1148   1.527   .     S
C1147  H1188   1.110   .     S
C1148  H1856   1.111   1_545 S
C1148  H1857   1.111   1_545 S
C1148  H1858   1.109   1_545 S
C1149  C154    1.392   1_556 S
C1150  C152    1.423   1_556 S
C1151  C1152   1.425   .     A
C1152  C1153   1.393   .     A
C1152  O1208   1.383   .     S
C1153  H1154   1.083   .     S
H1160  C1802   1.116   1_545 S
H1164  C1471   1.111   .     S
H1168  C1472   1.111   .     S
H1190  C1481   1.111   .     S
H1191  C1481   1.111   .     S
H1192  C1481   1.109   .     S
O1198  Zn1218  1.946   .     S
O1198  Zn1221  1.932   .     S
O1198  Zn1220  1.945   .     S
O1198  Zn1219  1.942   .     S
O1199  Zn1219  1.922   .     S
O1200  Zn1221  1.925   .     S
O1201  Zn1220  1.921   .     S
O1202  Zn1218  1.918   .     S
O1203  C1232   1.393   .     S
O1204  C1789   1.389   1_545 S
O1204  C1802   1.413   1_545 S
O1205  C1457   1.401   .     S
O1205  C1472   1.420   .     S
O1209  Zn1218  1.932   .     S
O1211  Zn1221  1.936   .     S
O1212  Zn1219  1.935   .     S
O1213  Zn1220  1.939   .     S
O1214  Zn1221  1.940   .     S
O1215  Zn1218  1.938   .     S
O1216  Zn1219  1.934   .     S
O1217  Zn1220  1.930   .     S
C1222  O1325   1.267   .     A
C1222  C1232   1.441   .     S
C1222  O1323   1.266   .     A
C1223  O1321   1.383   .     S
C1223  C1224   1.395   .     A
C1223  C1261   1.422   .     A
C1224  H1304   1.085   .     S
C1224  C227    1.392   1_556 S
C1225  O1324   1.284   .     A
C1225  C1231   1.456   .     S
C1225  O1326   1.271   .     A
C1226  C1228   1.402   .     A
C1226  C1227   1.417   .     A
C1227  C1230   1.409   .     A
C1227  C1262   1.425   .     A
C1228  H1276   1.084   .     S
C1228  C1229   1.401   .     A
C1229  C1241   1.400   .     A
C1229  O1317   1.384   .     S
C1230  C1241   1.394   .     A
C1230  H1298   1.079   .     S
C1231  C1010   1.345   1_655 S
C1231  H1065   1.088   1_655 S
C1233  H1306   1.083   .     S
C1233  C1242   1.391   .     A
C1233  C1240   1.399   .     A
C1234  C1237   1.458   .     S
C1234  C1568   1.352   .     S
C1234  O1648   1.389   .     S
C1235  C1236   1.440   .     S
C1235  C1900   1.352   1_545 S
C1235  O1982   1.401   1_545 S
C1236  O1327   1.272   .     A
C1236  O1320   1.266   .     A
C1237  O1328   1.279   .     A
C1237  O1322   1.268   .     A
C1238  O1312   1.280   .     A
C1238  C1241   1.457   .     S
C1238  O1310   1.280   .     A
C1239  C1240   1.470   .     S
C1239  O1311   1.283   .     A
C1239  O1313   1.279   .     A
C1240  C1244   1.407   .     A
C1242  C1260   1.402   .     A
C1242  H1305   1.084   .     S
C1243  O1314   1.418   .     S
C1243  C1245   1.534   .     S
C1243  H1307   1.110   .     S
C1243  H1086   1.112   1_655 S
C1244  C1255   1.419   .     A
C1244  O1318   1.384   .     S
C1245  H1266   1.111   .     S
C1245  C1246   1.526   .     S
C1245  H1267   1.111   .     S
C1246  H1269   1.111   .     S
C1246  H1270   1.110   .     S
C1246  H1046   1.111   1_655 S
C1247  H1272   1.113   .     S
C1247  C1581   1.527   .     S
C1247  H1604   1.116   .     S
C1247  O1648   1.413   .     S
C1248  H1273   1.111   .     S
C1248  H1274   1.112   .     S
C1248  C1249   1.527   .     S
C1248  C1913   1.527   1_545 S
C1249  H1277   1.110   .     S
C1249  H1278   1.111   .     S
C1249  H1941   1.111   1_545 S
C1250  C1251   1.535   .     S
C1250  H1280   1.115   .     S
C1250  H1945   1.111   1_545 S
C1250  O1982   1.420   1_545 S
C1251  C1252   1.525   .     S
C1251  H1281   1.111   .     S
C1251  H1282   1.108   .     S
C1252  H1283   1.110   .     S
C1252  H1284   1.111   .     S
C1252  H1285   1.111   .     S
C1253  H1289   1.109   .     S
C1253  H1288   1.110   .     S
C1253  O1317   1.409   .     S
C1253  H1286   1.115   .     S
C1254  H1290   1.113   .     S
C1254  H1291   1.114   .     S
C1254  O1318   1.410   .     S
C1254  H1292   1.109   .     S
C1255  C1261   1.427   .     A
C1255  C1260   1.417   .     A
C1256  H1295   1.109   .     S
C1256  O1319   1.412   .     S
C1256  H1293   1.112   .     S
C1256  H1294   1.113   .     S
C1257  C1258   1.528   .     S
C1257  H1297   1.116   .     S
C1257  H1296   1.114   .     S
C1257  O1321   1.413   .     S
C1258  H1300   1.109   .     S
C1258  C1259   1.527   .     S
C1258  H1299   1.110   .     S
C1259  H1967   1.111   1_545 S
C1259  H1968   1.111   1_545 S
C1259  H1969   1.109   1_545 S
C1260  C265    1.392   1_556 S
C1261  C263    1.423   1_556 S
C1262  C1263   1.425   .     A
C1263  C1264   1.393   .     A
C1263  O1319   1.383   .     S
C1264  H1265   1.083   .     S
H1271  C1913   1.116   1_545 S
H1275  C1582   1.111   .     S
H1279  C1583   1.111   .     S
H1301  C1592   1.111   .     S
H1302  C1592   1.111   .     S
H1303  C1592   1.109   .     S
O1309  Zn1329  1.946   .     S
O1309  Zn1332  1.932   .     S
O1309  Zn1331  1.945   .     S
O1309  Zn1330  1.942   .     S
O1310  Zn1330  1.922   .     S
O1311  Zn1332  1.925   .     S
O1312  Zn1331  1.921   .     S
O1313  Zn1329  1.918   .     S
O1314  C1010   1.393   1_655 S
O1315  C1900   1.389   1_545 S
O1315  C1913   1.413   1_545 S
O1316  C1568   1.401   .     S
O1316  C1583   1.420   .     S
O1320  Zn1329  1.932   .     S
O1322  Zn1332  1.936   .     S
O1323  Zn1330  1.935   .     S
O1324  Zn1331  1.939   .     S
O1325  Zn1332  1.940   .     S
O1326  Zn1329  1.938   .     S
O1327  Zn1330  1.934   .     S
O1328  Zn1331  1.930   .     S
C1333  O1436   1.267   .     A
C1333  C1343   1.441   .     S
C1333  O1434   1.266   .     A
C1334  O1432   1.383   .     S
C1334  C1335   1.395   .     A
C1334  C1372   1.422   .     A
C1335  H1415   1.085   .     S
C1335  C338    1.392   1_556 S
C1336  O1435   1.284   .     A
C1336  C1342   1.456   .     S
C1336  O1437   1.271   .     A
C1337  C1339   1.402   .     A
C1337  C1338   1.417   .     A
C1338  C1341   1.409   .     A
C1338  C1373   1.425   .     A
C1339  H1387   1.084   .     S
C1339  C1340   1.401   .     A
C1340  C1352   1.400   .     A
C1340  O1428   1.384   .     S
C1341  C1352   1.394   .     A
C1341  H1409   1.079   .     S
C1342  C1454   1.345   .     S
C1342  H1509   1.088   .     S
C1343  C1564   1.345   1_455 S
C1343  O1647   1.393   1_455 S
C1344  H1417   1.083   .     S
C1344  C1353   1.391   .     A
C1344  C1351   1.399   .     A
C1345  C1348   1.458   .     S
C1345  C1679   1.352   .     S
C1345  O1759   1.389   .     S
C1346  C1347   1.440   .     S
C1347  O1438   1.272   .     A
C1347  O1431   1.266   .     A
C1348  O1439   1.279   .     A
C1348  O1433   1.268   .     A
C1349  O1423   1.280   .     A
C1349  C1352   1.457   .     S
C1349  O1421   1.280   .     A
C1350  C1351   1.470   .     S
C1350  O1422   1.283   .     A
C1350  O1424   1.279   .     A
C1351  C1355   1.407   .     A
C1353  C1371   1.402   .     A
C1353  H1416   1.084   .     S
C1354  O1425   1.418   .     S
C1354  C1356   1.534   .     S
C1354  H1418   1.110   .     S
C1354  H1530   1.112   .     S
C1355  C1366   1.419   .     A
C1355  O1429   1.384   .     S
C1356  H1377   1.111   .     S
C1356  C1357   1.526   .     S
C1356  H1378   1.111   .     S
C1357  H1380   1.111   .     S
C1357  H1381   1.110   .     S
C1357  H1490   1.111   .     S
C1358  H1383   1.113   .     S
C1358  C1692   1.527   .     S
C1358  H1715   1.116   .     S
C1358  O1759   1.413   .     S
C1359  H1384   1.111   .     S
C1359  H1385   1.112   .     S
C1359  C1360   1.527   .     S
C1360  H1388   1.110   .     S
C1360  H1389   1.111   .     S
C1361  C1362   1.535   .     S
C1361  H1391   1.115   .     S
C1362  C1363   1.525   .     S
C1362  H1392   1.111   .     S
C1362  H1393   1.108   .     S
C1363  H1394   1.110   .     S
C1363  H1395   1.111   .     S
C1363  H1396   1.111   .     S
C1364  H1400   1.109   .     S
C1364  H1399   1.110   .     S
C1364  O1428   1.409   .     S
C1364  H1397   1.115   .     S
C1365  H1401   1.113   .     S
C1365  H1402   1.114   .     S
C1365  O1429   1.410   .     S
C1365  H1403   1.109   .     S
C1366  C1372   1.427   .     A
C1366  C1371   1.417   .     A
C1367  H1406   1.109   .     S
C1367  O1430   1.412   .     S
C1367  H1404   1.112   .     S
C1367  H1405   1.113   .     S
C1368  C1369   1.528   .     S
C1368  H1408   1.116   .     S
C1368  H1407   1.114   .     S
C1368  O1432   1.413   .     S
C1369  H1411   1.109   .     S
C1369  C1370   1.527   .     S
C1369  H1410   1.110   .     S
C1371  C376    1.392   1_556 S
C1372  C374    1.423   1_556 S
C1373  C1374   1.425   .     A
C1374  C1375   1.393   .     A
C1374  O1430   1.383   .     S
C1375  H1376   1.083   .     S
H1379  C1579   1.111   1_455 S
H1386  C1693   1.111   .     S
H1390  C1694   1.111   .     S
H1398  C1564   1.088   1_455 S
H1412  C1703   1.111   .     S
H1413  C1703   1.111   .     S
H1414  C1703   1.109   .     S
H1419  C1576   1.112   1_455 S
O1420  Zn1440  1.946   .     S
O1420  Zn1443  1.932   .     S
O1420  Zn1442  1.945   .     S
O1420  Zn1441  1.942   .     S
O1421  Zn1441  1.922   .     S
O1422  Zn1443  1.925   .     S
O1423  Zn1442  1.921   .     S
O1424  Zn1440  1.918   .     S
O1425  C1454   1.393   .     S
O1427  C1679   1.401   .     S
O1427  C1694   1.420   .     S
O1431  Zn1440  1.932   .     S
O1433  Zn1443  1.936   .     S
O1434  Zn1441  1.935   .     S
O1435  Zn1442  1.939   .     S
O1436  Zn1443  1.940   .     S
O1437  Zn1440  1.938   .     S
O1438  Zn1441  1.934   .     S
O1439  Zn1442  1.930   .     S
C1444  O1547   1.267   .     A
C1444  C1454   1.441   .     S
C1444  O1545   1.266   .     A
C1445  O1543   1.383   .     S
C1445  C1446   1.395   .     A
C1445  C1483   1.422   .     A
C1446  H1526   1.085   .     S
C1446  C449    1.392   1_556 S
C1447  O1546   1.284   .     A
C1447  C1453   1.456   .     S
C1447  O1548   1.271   .     A
C1448  C1450   1.402   .     A
C1448  C1449   1.417   .     A
C1449  C1452   1.409   .     A
C1449  C1484   1.425   .     A
C1450  H1498   1.084   .     S
C1450  C1451   1.401   .     A
C1451  C1463   1.400   .     A
C1451  O1539   1.384   .     S
C1452  C1463   1.394   .     A
C1452  H1520   1.079   .     S
C1453  C1565   1.345   .     S
C1453  H1620   1.088   .     S
C1455  H1528   1.083   .     S
C1455  C1464   1.391   .     A
C1455  C1462   1.399   .     A
C1456  C1459   1.458   .     S
C1456  C1790   1.352   .     S
C1456  O1870   1.389   .     S
C1457  C1458   1.440   .     S
C1458  O1549   1.272   .     A
C1458  O1542   1.266   .     A
C1459  O1550   1.279   .     A
C1459  O1544   1.268   .     A
C1460  O1534   1.280   .     A
C1460  C1463   1.457   .     S
C1460  O1532   1.280   .     A
C1461  C1462   1.470   .     S
C1461  O1533   1.283   .     A
C1461  O1535   1.279   .     A
C1462  C1466   1.407   .     A
C1464  C1482   1.402   .     A
C1464  H1527   1.084   .     S
C1465  O1536   1.418   .     S
C1465  C1467   1.534   .     S
C1465  H1529   1.110   .     S
C1465  H1641   1.112   .     S
C1466  C1477   1.419   .     A
C1466  O1540   1.384   .     S
C1467  H1488   1.111   .     S
C1467  C1468   1.526   .     S
C1467  H1489   1.111   .     S
C1468  H1491   1.111   .     S
C1468  H1492   1.110   .     S
C1468  H1601   1.111   .     S
C1469  H1494   1.113   .     S
C1469  C1803   1.527   .     S
C1469  H1826   1.116   .     S
C1469  O1870   1.413   .     S
C1470  H1495   1.111   .     S
C1470  H1496   1.112   .     S
C1470  C1471   1.527   .     S
C1471  H1499   1.110   .     S
C1471  H1500   1.111   .     S
C1472  C1473   1.535   .     S
C1472  H1502   1.115   .     S
C1473  C1474   1.525   .     S
C1473  H1503   1.111   .     S
C1473  H1504   1.108   .     S
C1474  H1505   1.110   .     S
C1474  H1506   1.111   .     S
C1474  H1507   1.111   .     S
C1475  H1511   1.109   .     S
C1475  H1510   1.110   .     S
C1475  O1539   1.409   .     S
C1475  H1508   1.115   .     S
C1476  H1512   1.113   .     S
C1476  H1513   1.114   .     S
C1476  O1540   1.410   .     S
C1476  H1514   1.109   .     S
C1477  C1483   1.427   .     A
C1477  C1482   1.417   .     A
C1478  H1517   1.109   .     S
C1478  O1541   1.412   .     S
C1478  H1515   1.112   .     S
C1478  H1516   1.113   .     S
C1479  C1480   1.528   .     S
C1479  H1519   1.116   .     S
C1479  H1518   1.114   .     S
C1479  O1543   1.413   .     S
C1480  H1522   1.109   .     S
C1480  C1481   1.527   .     S
C1480  H1521   1.110   .     S
C1482  C487    1.392   1_556 S
C1483  C485    1.423   1_556 S
C1484  C1485   1.425   .     A
C1485  C1486   1.393   .     A
C1485  O1541   1.383   .     S
C1486  H1487   1.083   .     S
H1497  C1804   1.111   .     S
H1501  C1805   1.111   .     S
H1523  C1814   1.111   .     S
H1524  C1814   1.111   .     S
H1525  C1814   1.109   .     S
O1531  Zn1551  1.946   .     S
O1531  Zn1554  1.932   .     S
O1531  Zn1553  1.945   .     S
O1531  Zn1552  1.942   .     S
O1532  Zn1552  1.922   .     S
O1533  Zn1554  1.925   .     S
O1534  Zn1553  1.921   .     S
O1535  Zn1551  1.918   .     S
O1536  C1565   1.393   .     S
O1538  C1790   1.401   .     S
O1538  C1805   1.420   .     S
O1542  Zn1551  1.932   .     S
O1544  Zn1554  1.936   .     S
O1545  Zn1552  1.935   .     S
O1546  Zn1553  1.939   .     S
O1547  Zn1554  1.940   .     S
O1548  Zn1551  1.938   .     S
O1549  Zn1552  1.934   .     S
O1550  Zn1553  1.930   .     S
C1555  O1658   1.267   .     A
C1555  C1565   1.441   .     S
C1555  O1656   1.266   .     A
C1556  O1654   1.383   .     S
C1556  C1557   1.395   .     A
C1556  C1594   1.422   .     A
C1557  H1637   1.085   .     S
C1557  C560    1.392   1_556 S
C1558  O1657   1.284   .     A
C1558  C1564   1.456   .     S
C1558  O1659   1.271   .     A
C1559  C1561   1.402   .     A
C1559  C1560   1.417   .     A
C1560  C1563   1.409   .     A
C1560  C1595   1.425   .     A
C1561  H1609   1.084   .     S
C1561  C1562   1.401   .     A
C1562  C1574   1.400   .     A
C1562  O1650   1.384   .     S
C1563  C1574   1.394   .     A
C1563  H1631   1.079   .     S
C1564  C1343   1.345   1_655 S
C1564  H1398   1.088   1_655 S
C1566  H1639   1.083   .     S
C1566  C1575   1.391   .     A
C1566  C1573   1.399   .     A
C1567  C1570   1.458   .     S
C1567  C1901   1.352   .     S
C1567  O1981   1.389   .     S
C1568  C1569   1.440   .     S
C1569  O1660   1.272   .     A
C1569  O1653   1.266   .     A
C1570  O1661   1.279   .     A
C1570  O1655   1.268   .     A
C1571  O1645   1.280   .     A
C1571  C1574   1.457   .     S
C1571  O1643   1.280   .     A
C1572  C1573   1.470   .     S
C1572  O1644   1.283   .     A
C1572  O1646   1.279   .     A
C1573  C1577   1.407   .     A
C1575  C1593   1.402   .     A
C1575  H1638   1.084   .     S
C1576  O1647   1.418   .     S
C1576  C1578   1.534   .     S
C1576  H1640   1.110   .     S
C1576  H1419   1.112   1_655 S
C1577  C1588   1.419   .     A
C1577  O1651   1.384   .     S
C1578  H1599   1.111   .     S
C1578  C1579   1.526   .     S
C1578  H1600   1.111   .     S
C1579  H1602   1.111   .     S
C1579  H1603   1.110   .     S
C1579  H1379   1.111   1_655 S
C1580  H1605   1.113   .     S
C1580  C1914   1.527   .     S
C1580  H1937   1.116   .     S
C1580  O1981   1.413   .     S
C1581  H1606   1.111   .     S
C1581  H1607   1.112   .     S
C1581  C1582   1.527   .     S
C1582  H1610   1.110   .     S
C1582  H1611   1.111   .     S
C1583  C1584   1.535   .     S
C1583  H1613   1.115   .     S
C1584  C1585   1.525   .     S
C1584  H1614   1.111   .     S
C1584  H1615   1.108   .     S
C1585  H1616   1.110   .     S
C1585  H1617   1.111   .     S
C1585  H1618   1.111   .     S
C1586  H1622   1.109   .     S
C1586  H1621   1.110   .     S
C1586  O1650   1.409   .     S
C1586  H1619   1.115   .     S
C1587  H1623   1.113   .     S
C1587  H1624   1.114   .     S
C1587  O1651   1.410   .     S
C1587  H1625   1.109   .     S
C1588  C1594   1.427   .     A
C1588  C1593   1.417   .     A
C1589  H1628   1.109   .     S
C1589  O1652   1.412   .     S
C1589  H1626   1.112   .     S
C1589  H1627   1.113   .     S
C1590  C1591   1.528   .     S
C1590  H1630   1.116   .     S
C1590  H1629   1.114   .     S
C1590  O1654   1.413   .     S
C1591  H1633   1.109   .     S
C1591  C1592   1.527   .     S
C1591  H1632   1.110   .     S
C1593  C598    1.392   1_556 S
C1594  C596    1.423   1_556 S
C1595  C1596   1.425   .     A
C1596  C1597   1.393   .     A
C1596  O1652   1.383   .     S
C1597  H1598   1.083   .     S
H1608  C1915   1.111   .     S
H1612  C1916   1.111   .     S
H1634  C1925   1.111   .     S
H1635  C1925   1.111   .     S
H1636  C1925   1.109   .     S
O1642  Zn1662  1.946   .     S
O1642  Zn1665  1.932   .     S
O1642  Zn1664  1.945   .     S
O1642  Zn1663  1.942   .     S
O1643  Zn1663  1.922   .     S
O1644  Zn1665  1.925   .     S
O1645  Zn1664  1.921   .     S
O1646  Zn1662  1.918   .     S
O1647  C1343   1.393   1_655 S
O1649  C1901   1.401   .     S
O1649  C1916   1.420   .     S
O1653  Zn1662  1.932   .     S
O1655  Zn1665  1.936   .     S
O1656  Zn1663  1.935   .     S
O1657  Zn1664  1.939   .     S
O1658  Zn1665  1.940   .     S
O1659  Zn1662  1.938   .     S
O1660  Zn1663  1.934   .     S
O1661  Zn1664  1.930   .     S
C1666  O1769   1.267   .     A
C1666  C1676   1.441   .     S
C1666  O1767   1.266   .     A
C1667  O1765   1.383   .     S
C1667  C1668   1.395   .     A
C1667  C1705   1.422   .     A
C1668  H1748   1.085   .     S
C1668  C671    1.392   1_556 S
C1669  O1768   1.284   .     A
C1669  C1675   1.456   .     S
C1669  O1770   1.271   .     A
C1670  C1672   1.402   .     A
C1670  C1671   1.417   .     A
C1671  C1674   1.409   .     A
C1671  C1706   1.425   .     A
C1672  H1720   1.084   .     S
C1672  C1673   1.401   .     A
C1673  C1685   1.400   .     A
C1673  O1761   1.384   .     S
C1674  C1685   1.394   .     A
C1674  H1742   1.079   .     S
C1675  C1787   1.345   .     S
C1675  H1842   1.088   .     S
C1676  C1897   1.345   1_455 S
C1676  O1980   1.393   1_455 S
C1677  H1750   1.083   .     S
C1677  C1686   1.391   .     A
C1677  C1684   1.399   .     A
C1678  C1681   1.458   .     S
C1678  C1013   1.352   1_565 S
C1678  O1093   1.389   1_565 S
C1679  C1680   1.440   .     S
C1680  O1771   1.272   .     A
C1680  O1764   1.266   .     A
C1681  O1772   1.279   .     A
C1681  O1766   1.268   .     A
C1682  O1756   1.280   .     A
C1682  C1685   1.457   .     S
C1682  O1754   1.280   .     A
C1683  C1684   1.470   .     S
C1683  O1755   1.283   .     A
C1683  O1757   1.279   .     A
C1684  C1688   1.407   .     A
C1686  C1704   1.402   .     A
C1686  H1749   1.084   .     S
C1687  O1758   1.418   .     S
C1687  C1689   1.534   .     S
C1687  H1751   1.110   .     S
C1687  H1863   1.112   .     S
C1688  C1699   1.419   .     A
C1688  O1762   1.384   .     S
C1689  H1710   1.111   .     S
C1689  C1690   1.526   .     S
C1689  H1711   1.111   .     S
C1690  H1713   1.111   .     S
C1690  H1714   1.110   .     S
C1690  H1823   1.111   .     S
C1691  H1716   1.113   .     S
C1691  C1026   1.527   1_565 S
C1691  H1049   1.116   1_565 S
C1691  O1093   1.413   1_565 S
C1692  H1717   1.111   .     S
C1692  H1718   1.112   .     S
C1692  C1693   1.527   .     S
C1693  H1721   1.110   .     S
C1693  H1722   1.111   .     S
C1694  C1695   1.535   .     S
C1694  H1724   1.115   .     S
C1695  C1696   1.525   .     S
C1695  H1725   1.111   .     S
C1695  H1726   1.108   .     S
C1696  H1727   1.110   .     S
C1696  H1728   1.111   .     S
C1696  H1729   1.111   .     S
C1697  H1733   1.109   .     S
C1697  H1732   1.110   .     S
C1697  O1761   1.409   .     S
C1697  H1730   1.115   .     S
C1698  H1734   1.113   .     S
C1698  H1735   1.114   .     S
C1698  O1762   1.410   .     S
C1698  H1736   1.109   .     S
C1699  C1705   1.427   .     A
C1699  C1704   1.417   .     A
C1700  H1739   1.109   .     S
C1700  O1763   1.412   .     S
C1700  H1737   1.112   .     S
C1700  H1738   1.113   .     S
C1701  C1702   1.528   .     S
C1701  H1741   1.116   .     S
C1701  H1740   1.114   .     S
C1701  O1765   1.413   .     S
C1702  H1744   1.109   .     S
C1702  C1703   1.527   .     S
C1702  H1743   1.110   .     S
C1704  C709    1.392   1_556 S
C1705  C707    1.423   1_556 S
C1706  C1707   1.425   .     A
C1707  C1708   1.393   .     A
C1707  O1763   1.383   .     S
C1708  H1709   1.083   .     S
H1712  C1912   1.111   1_455 S
H1719  C1027   1.111   1_565 S
H1723  C1028   1.111   1_565 S
H1731  C1897   1.088   1_455 S
H1745  C1037   1.111   1_565 S
H1746  C1037   1.111   1_565 S
H1747  C1037   1.109   1_565 S
H1752  C1909   1.112   1_455 S
O1753  Zn1773  1.946   .     S
O1753  Zn1776  1.932   .     S
O1753  Zn1775  1.945   .     S
O1753  Zn1774  1.942   .     S
O1754  Zn1774  1.922   .     S
O1755  Zn1776  1.925   .     S
O1756  Zn1775  1.921   .     S
O1757  Zn1773  1.918   .     S
O1758  C1787   1.393   .     S
O1760  C1013   1.401   1_565 S
O1760  C1028   1.420   1_565 S
O1764  Zn1773  1.932   .     S
O1766  Zn1776  1.936   .     S
O1767  Zn1774  1.935   .     S
O1768  Zn1775  1.939   .     S
O1769  Zn1776  1.940   .     S
O1770  Zn1773  1.938   .     S
O1771  Zn1774  1.934   .     S
O1772  Zn1775  1.930   .     S
C1777  O1880   1.267   .     A
C1777  C1787   1.441   .     S
C1777  O1878   1.266   .     A
C1778  O1876   1.383   .     S
C1778  C1779   1.395   .     A
C1778  C1816   1.422   .     A
C1779  H1859   1.085   .     S
C1779  C782    1.392   1_556 S
C1780  O1879   1.284   .     A
C1780  C1786   1.456   .     S
C1780  O1881   1.271   .     A
C1781  C1783   1.402   .     A
C1781  C1782   1.417   .     A
C1782  C1785   1.409   .     A
C1782  C1817   1.425   .     A
C1783  H1831   1.084   .     S
C1783  C1784   1.401   .     A
C1784  C1796   1.400   .     A
C1784  O1872   1.384   .     S
C1785  C1796   1.394   .     A
C1785  H1853   1.079   .     S
C1786  C1898   1.345   .     S
C1786  H1953   1.088   .     S
C1788  H1861   1.083   .     S
C1788  C1797   1.391   .     A
C1788  C1795   1.399   .     A
C1789  C1792   1.458   .     S
C1789  C1124   1.352   1_565 S
C1789  O1204   1.389   1_565 S
C1790  C1791   1.440   .     S
C1791  O1882   1.272   .     A
C1791  O1875   1.266   .     A
C1792  O1883   1.279   .     A
C1792  O1877   1.268   .     A
C1793  O1867   1.280   .     A
C1793  C1796   1.457   .     S
C1793  O1865   1.280   .     A
C1794  C1795   1.470   .     S
C1794  O1866   1.283   .     A
C1794  O1868   1.279   .     A
C1795  C1799   1.407   .     A
C1797  C1815   1.402   .     A
C1797  H1860   1.084   .     S
C1798  O1869   1.418   .     S
C1798  C1800   1.534   .     S
C1798  H1862   1.110   .     S
C1798  H1974   1.112   .     S
C1799  C1810   1.419   .     A
C1799  O1873   1.384   .     S
C1800  H1821   1.111   .     S
C1800  C1801   1.526   .     S
C1800  H1822   1.111   .     S
C1801  H1824   1.111   .     S
C1801  H1825   1.110   .     S
C1801  H1934   1.111   .     S
C1802  H1827   1.113   .     S
C1802  C1137   1.527   1_565 S
C1802  H1160   1.116   1_565 S
C1802  O1204   1.413   1_565 S
C1803  H1828   1.111   .     S
C1803  H1829   1.112   .     S
C1803  C1804   1.527   .     S
C1804  H1832   1.110   .     S
C1804  H1833   1.111   .     S
C1805  C1806   1.535   .     S
C1805  H1835   1.115   .     S
C1806  C1807   1.525   .     S
C1806  H1836   1.111   .     S
C1806  H1837   1.108   .     S
C1807  H1838   1.110   .     S
C1807  H1839   1.111   .     S
C1807  H1840   1.111   .     S
C1808  H1844   1.109   .     S
C1808  H1843   1.110   .     S
C1808  O1872   1.409   .     S
C1808  H1841   1.115   .     S
C1809  H1845   1.113   .     S
C1809  H1846   1.114   .     S
C1809  O1873   1.410   .     S
C1809  H1847   1.109   .     S
C1810  C1816   1.427   .     A
C1810  C1815   1.417   .     A
C1811  H1850   1.109   .     S
C1811  O1874   1.412   .     S
C1811  H1848   1.112   .     S
C1811  H1849   1.113   .     S
C1812  C1813   1.528   .     S
C1812  H1852   1.116   .     S
C1812  H1851   1.114   .     S
C1812  O1876   1.413   .     S
C1813  H1855   1.109   .     S
C1813  C1814   1.527   .     S
C1813  H1854   1.110   .     S
C1815  C820    1.392   1_556 S
C1816  C818    1.423   1_556 S
C1817  C1818   1.425   .     A
C1818  C1819   1.393   .     A
C1818  O1874   1.383   .     S
C1819  H1820   1.083   .     S
H1830  C1138   1.111   1_565 S
H1834  C1139   1.111   1_565 S
H1856  C1148   1.111   1_565 S
H1857  C1148   1.111   1_565 S
H1858  C1148   1.109   1_565 S
O1864  Zn1884  1.946   .     S
O1864  Zn1887  1.932   .     S
O1864  Zn1886  1.945   .     S
O1864  Zn1885  1.942   .     S
O1865  Zn1885  1.922   .     S
O1866  Zn1887  1.925   .     S
O1867  Zn1886  1.921   .     S
O1868  Zn1884  1.918   .     S
O1869  C1898   1.393   .     S
O1871  C1124   1.401   1_565 S
O1871  C1139   1.420   1_565 S
O1875  Zn1884  1.932   .     S
O1877  Zn1887  1.936   .     S
O1878  Zn1885  1.935   .     S
O1879  Zn1886  1.939   .     S
O1880  Zn1887  1.940   .     S
O1881  Zn1884  1.938   .     S
O1882  Zn1885  1.934   .     S
O1883  Zn1886  1.930   .     S
C1888  O1991   1.267   .     A
C1888  C1898   1.441   .     S
C1888  O1989   1.266   .     A
C1889  O1987   1.383   .     S
C1889  C1890   1.395   .     A
C1889  C1927   1.422   .     A
C1890  H1970   1.085   .     S
C1890  C893    1.392   1_556 S
C1891  O1990   1.284   .     A
C1891  C1897   1.456   .     S
C1891  O1992   1.271   .     A
C1892  C1894   1.402   .     A
C1892  C1893   1.417   .     A
C1893  C1896   1.409   .     A
C1893  C1928   1.425   .     A
C1894  H1942   1.084   .     S
C1894  C1895   1.401   .     A
C1895  C1907   1.400   .     A
C1895  O1983   1.384   .     S
C1896  C1907   1.394   .     A
C1896  H1964   1.079   .     S
C1897  C1676   1.345   1_655 S
C1897  H1731   1.088   1_655 S
C1899  H1972   1.083   .     S
C1899  C1908   1.391   .     A
C1899  C1906   1.399   .     A
C1900  C1903   1.458   .     S
C1900  C1235   1.352   1_565 S
C1900  O1315   1.389   1_565 S
C1901  C1902   1.440   .     S
C1902  O1993   1.272   .     A
C1902  O1986   1.266   .     A
C1903  O1994   1.279   .     A
C1903  O1988   1.268   .     A
C1904  O1978   1.280   .     A
C1904  C1907   1.457   .     S
C1904  O1976   1.280   .     A
C1905  C1906   1.470   .     S
C1905  O1977   1.283   .     A
C1905  O1979   1.279   .     A
C1906  C1910   1.407   .     A
C1908  C1926   1.402   .     A
C1908  H1971   1.084   .     S
C1909  O1980   1.418   .     S
C1909  C1911   1.534   .     S
C1909  H1973   1.110   .     S
C1909  H1752   1.112   1_655 S
C1910  C1921   1.419   .     A
C1910  O1984   1.384   .     S
C1911  H1932   1.111   .     S
C1911  C1912   1.526   .     S
C1911  H1933   1.111   .     S
C1912  H1935   1.111   .     S
C1912  H1936   1.110   .     S
C1912  H1712   1.111   1_655 S
C1913  H1938   1.113   .     S
C1913  C1248   1.527   1_565 S
C1913  H1271   1.116   1_565 S
C1913  O1315   1.413   1_565 S
C1914  H1939   1.111   .     S
C1914  H1940   1.112   .     S
C1914  C1915   1.527   .     S
C1915  H1943   1.110   .     S
C1915  H1944   1.111   .     S
C1916  C1917   1.535   .     S
C1916  H1946   1.115   .     S
C1917  C1918   1.525   .     S
C1917  H1947   1.111   .     S
C1917  H1948   1.108   .     S
C1918  H1949   1.110   .     S
C1918  H1950   1.111   .     S
C1918  H1951   1.111   .     S
C1919  H1955   1.109   .     S
C1919  H1954   1.110   .     S
C1919  O1983   1.409   .     S
C1919  H1952   1.115   .     S
C1920  H1956   1.113   .     S
C1920  H1957   1.114   .     S
C1920  O1984   1.410   .     S
C1920  H1958   1.109   .     S
C1921  C1927   1.427   .     A
C1921  C1926   1.417   .     A
C1922  H1961   1.109   .     S
C1922  O1985   1.412   .     S
C1922  H1959   1.112   .     S
C1922  H1960   1.113   .     S
C1923  C1924   1.528   .     S
C1923  H1963   1.116   .     S
C1923  H1962   1.114   .     S
C1923  O1987   1.413   .     S
C1924  H1966   1.109   .     S
C1924  C1925   1.527   .     S
C1924  H1965   1.110   .     S
C1926  C931    1.392   1_556 S
C1927  C929    1.423   1_556 S
C1928  C1929   1.425   .     A
C1929  C1930   1.393   .     A
C1929  O1985   1.383   .     S
C1930  H1931   1.083   .     S
H1941  C1249   1.111   1_565 S
H1945  C1250   1.111   1_565 S
H1967  C1259   1.111   1_565 S
H1968  C1259   1.111   1_565 S
H1969  C1259   1.109   1_565 S
O1975  Zn1995  1.946   .     S
O1975  Zn1998  1.932   .     S
O1975  Zn1997  1.945   .     S
O1975  Zn1996  1.942   .     S
O1976  Zn1996  1.922   .     S
O1977  Zn1998  1.925   .     S
O1978  Zn1997  1.921   .     S
O1979  Zn1995  1.918   .     S
O1980  C1676   1.393   1_655 S
O1982  C1235   1.401   1_565 S
O1982  C1250   1.420   1_565 S
O1986  Zn1995  1.932   .     S
O1988  Zn1998  1.936   .     S
O1989  Zn1996  1.935   .     S
O1990  Zn1997  1.939   .     S
O1991  Zn1998  1.940   .     S
O1992  Zn1995  1.938   .     S
O1993  Zn1996  1.934   .     S
O1994  Zn1997  1.930   .     S
