data_str_m1_o1_o17_pcu_sym.39
_audit_creation_date              2020-01-03
_audit_creation_method            'Materials Studio'
_symmetry_space_group_name_H-M    'P1'
_symmetry_Int_Tables_number       1
_symmetry_cell_setting            triclinic
loop_
_symmetry_equiv_pos_as_xyz
  x,y,z
_cell_length_a                    36.7095
_cell_length_b                    36.7791
_cell_length_c                    34.3825
_cell_angle_alpha                 89.9995
_cell_angle_beta                  89.9987
_cell_angle_gamma                 90.0005
loop_
_atom_site_label
_atom_site_type_symbol
_atom_site_fract_x
_atom_site_fract_y
_atom_site_fract_z
_atom_site_U_iso_or_equiv
_atom_site_adp_type
_atom_site_occupancy
C1     C     0.03292   0.24911   0.41886   0.00000  Uiso   1.00
C2     C     0.46675   0.24848   0.58123   0.00000  Uiso   1.00
C3     C     0.25152   0.03304   0.41878   0.00000  Uiso   1.00
C4     C     0.25154   0.46696   0.58122   0.00000  Uiso   1.00
C5     C     0.46675   0.25152   0.41877   0.00000  Uiso   1.00
C6     C     0.03292   0.25086   0.58114   0.00000  Uiso   1.00
C7     C     0.24887   0.46698   0.41879   0.00000  Uiso   1.00
C8     C     0.24886   0.03302   0.58121   0.00000  Uiso   1.00
C9     C     0.28325   0.49850   0.91877   0.00000  Uiso   1.00
C10    C     0.21708   0.49903   0.08115   0.00000  Uiso   1.00
C11    C     0.00115   0.28302   0.91879   0.00000  Uiso   1.00
C12    C     0.00113   0.21698   0.08121   0.00000  Uiso   1.00
C13    C     0.21708   0.00081   0.91886   0.00000  Uiso   1.00
C14    C     0.28324   0.00153   0.08124   0.00000  Uiso   1.00
C15    C     0.49845   0.21696   0.91878   0.00000  Uiso   1.00
C16    C     0.49850   0.28304   0.08122   0.00000  Uiso   1.00
C17    C     0.49988   0.25025   0.39846   0.00000  Uiso   1.00
C18    C     0.49988   0.24974   0.60154   0.00000  Uiso   1.00
C19    C     0.25013   0.00001   0.39843   0.00000  Uiso   1.00
C20    C     0.25014   0.49999   0.60157   0.00000  Uiso   1.00
C21    C     0.25012   0.49973   0.89846   0.00000  Uiso   1.00
C22    C     0.25012   0.00022   0.10155   0.00000  Uiso   1.00
C23    C     0.49986   0.24999   0.89843   0.00000  Uiso   1.00
C24    C     0.49987   0.25001   0.10157   0.00000  Uiso   1.00
C25    C     0.43343   0.25052   0.47973   0.00000  Uiso   1.00
C26    C     0.06620   0.25028   0.52026   0.00000  Uiso   1.00
C27    C     0.24984   0.43375   0.47974   0.00000  Uiso   1.00
C28    C     0.24982   0.06625   0.52026   0.00000  Uiso   1.00
C29    C     0.06620   0.24966   0.47973   0.00000  Uiso   1.00
C30    C     0.43342   0.24950   0.52028   0.00000  Uiso   1.00
C31    C     0.25072   0.06626   0.47972   0.00000  Uiso   1.00
C32    C     0.25075   0.43374   0.52028   0.00000  Uiso   1.00
C33    C     0.18379   0.00018   0.97974   0.00000  Uiso   1.00
C34    C     0.31657   0.00056   0.02028   0.00000  Uiso   1.00
C35    C     0.49924   0.18374   0.97973   0.00000  Uiso   1.00
C36    C     0.49931   0.31626   0.02027   0.00000  Uiso   1.00
C37    C     0.31657   0.49954   0.97973   0.00000  Uiso   1.00
C38    C     0.18379   0.49954   0.02027   0.00000  Uiso   1.00
C39    C     0.00021   0.31625   0.97973   0.00000  Uiso   1.00
C40    C     0.00014   0.18375   0.02027   0.00000  Uiso   1.00
C41    C     0.25003   0.00000   0.35595   0.00000  Uiso   1.00
C42    C     0.25003  -0.00000   0.64405   0.00000  Uiso   1.00
C43    C     0.49998   0.25008   0.35597   0.00000  Uiso   1.00
C44    C     0.49998   0.24992   0.64403   0.00000  Uiso   1.00
C45    C     0.49997   0.25000   0.85595   0.00000  Uiso   1.00
C46    C     0.49998   0.25000   0.14405   0.00000  Uiso   1.00
C47    C     0.25002   0.49992   0.85597   0.00000  Uiso   1.00
C48    C     0.25002   0.00007   0.14403   0.00000  Uiso   1.00
C49    C     0.17993   0.06996   0.25003   0.00000  Uiso   1.00
C50    C     0.32007   0.42998   0.74998   0.00000  Uiso   1.00
C51    C     0.42995   0.18002   0.25001   0.00000  Uiso   1.00
C52    C     0.06965   0.32045   0.74958   0.00000  Uiso   1.00
C53    C     0.32005   0.43002   0.25000   0.00000  Uiso   1.00
C54    C     0.18035   0.07045   0.75042   0.00000  Uiso   1.00
C55    C     0.07007   0.31996   0.24997   0.00000  Uiso   1.00
C56    C     0.42993   0.17998   0.75002   0.00000  Uiso   1.00
C57    C     0.17993   0.43003   0.74997   0.00000  Uiso   1.00
C58    C     0.32007   0.07002   0.25002   0.00000  Uiso   1.00
C59    C     0.42995   0.31998   0.75000   0.00000  Uiso   1.00
C60    C     0.06966   0.17955   0.25042   0.00000  Uiso   1.00
C61    C     0.32005   0.06998   0.75001   0.00000  Uiso   1.00
C62    C     0.18035   0.42955   0.24958   0.00000  Uiso   1.00
C63    C     0.07007   0.18003   0.75003   0.00000  Uiso   1.00
C64    C     0.42993   0.32002   0.24998   0.00000  Uiso   1.00
C65    C     0.13106   0.39571   0.21581   0.00000  Uiso   1.00
C66    C     0.36970   0.10348   0.78344   0.00000  Uiso   1.00
C67    C     0.10016   0.12665   0.21892   0.00000  Uiso   1.00
C68    C     0.39633   0.36940   0.78341   0.00000  Uiso   1.00
C69    C     0.37110   0.10227   0.21741   0.00000  Uiso   1.00
C70    C     0.12911   0.39768   0.78242   0.00000  Uiso   1.00
C71    C     0.39783   0.37101   0.21731   0.00000  Uiso   1.00
C72    C     0.10481   0.13183   0.78440   0.00000  Uiso   1.00
C73    C     0.13098   0.10421   0.78414   0.00000  Uiso   1.00
C74    C     0.36972   0.39654   0.21656   0.00000  Uiso   1.00
C75    C     0.10012   0.37339   0.78104   0.00000  Uiso   1.00
C76    C     0.39633   0.13060   0.21659   0.00000  Uiso   1.00
C77    C     0.37110   0.39773   0.78259   0.00000  Uiso   1.00
C78    C     0.12914   0.10233   0.21756   0.00000  Uiso   1.00
C79    C     0.39781   0.12900   0.78270   0.00000  Uiso   1.00
C80    C     0.10488   0.36810   0.21556   0.00000  Uiso   1.00
C81    C     0.37891   0.14773   0.71741   0.00000  Uiso   1.00
C82    C     0.12086   0.35234   0.28244   0.00000  Uiso   1.00
C83    C     0.35219   0.37900   0.71730   0.00000  Uiso   1.00
C84    C     0.14516   0.11813   0.28441   0.00000  Uiso   1.00
C85    C     0.11901   0.35422   0.71585   0.00000  Uiso   1.00
C86    C     0.38029   0.14653   0.28344   0.00000  Uiso   1.00
C87    C     0.14988   0.12339   0.71896   0.00000  Uiso   1.00
C88    C     0.35367   0.38060   0.28341   0.00000  Uiso   1.00
C89    C     0.37890   0.35227   0.28259   0.00000  Uiso   1.00
C90    C     0.12089   0.14769   0.71758   0.00000  Uiso   1.00
C91    C     0.35218   0.12101   0.28270   0.00000  Uiso   1.00
C92    C     0.14519   0.38184   0.71560   0.00000  Uiso   1.00
C93    C     0.11898   0.14575   0.28416   0.00000  Uiso   1.00
C94    C     0.38029   0.35348   0.71656   0.00000  Uiso   1.00
C95    C     0.14985   0.37664   0.28107   0.00000  Uiso   1.00
C96    C     0.35367   0.11939   0.71659   0.00000  Uiso   1.00
C97    C     0.46646   0.25074   0.45927   0.00000  Uiso   1.00
C98    C     0.03317   0.25034   0.54069   0.00000  Uiso   1.00
C99    C     0.24966   0.46671   0.45928   0.00000  Uiso   1.00
C100   C     0.24965   0.03329   0.54072   0.00000  Uiso   1.00
C101   C     0.03317   0.24962   0.45931   0.00000  Uiso   1.00
C102   C     0.46646   0.24927   0.54073   0.00000  Uiso   1.00
C103   C     0.25085   0.03330   0.45927   0.00000  Uiso   1.00
C104   C     0.25087   0.46670   0.54073   0.00000  Uiso   1.00
C105   C     0.21683   0.00028   0.95931   0.00000  Uiso   1.00
C106   C     0.28354   0.00074   0.04073   0.00000  Uiso   1.00
C107   C     0.49913   0.21670   0.95927   0.00000  Uiso   1.00
C108   C     0.49917   0.28330   0.04073   0.00000  Uiso   1.00
C109   C     0.28354   0.49928   0.95927   0.00000  Uiso   1.00
C110   C     0.21683   0.49954   0.04070   0.00000  Uiso   1.00
C111   C     0.00037   0.28329   0.95927   0.00000  Uiso   1.00
C112   C     0.00034   0.21671   0.04072   0.00000  Uiso   1.00
C113   C     0.09866   0.34749   0.24947   0.00000  Uiso   1.00
C114   C     0.40182   0.15189   0.75005   0.00000  Uiso   1.00
C115   C     0.15135   0.09750   0.25052   0.00000  Uiso   1.00
C116   C     0.34818   0.40189   0.74995   0.00000  Uiso   1.00
C117   C     0.40181   0.15204   0.25002   0.00000  Uiso   1.00
C118   C     0.09667   0.34965   0.74885   0.00000  Uiso   1.00
C119   C     0.34819   0.40204   0.24998   0.00000  Uiso   1.00
C120   C     0.15333   0.09965   0.75115   0.00000  Uiso   1.00
C121   C     0.09864   0.15250   0.75052   0.00000  Uiso   1.00
C122   C     0.40182   0.34811   0.24995   0.00000  Uiso   1.00
C123   C     0.15135   0.40250   0.74948   0.00000  Uiso   1.00
C124   C     0.34818   0.09811   0.25005   0.00000  Uiso   1.00
C125   C     0.40182   0.34796   0.74998   0.00000  Uiso   1.00
C126   C     0.09668   0.15035   0.25114   0.00000  Uiso   1.00
C127   C     0.34818   0.09796   0.75002   0.00000  Uiso   1.00
C128   C     0.15334   0.40034   0.24885   0.00000  Uiso   1.00
C129   C     0.49980   0.25008   0.47963   0.00000  Uiso   1.00
C130   C     0.49980   0.24990   0.52036   0.00000  Uiso   1.00
C131   C     0.25027   0.00000   0.47963   0.00000  Uiso   1.00
C132   C     0.25027  -0.00000   0.52037   0.00000  Uiso   1.00
C133   C     0.25019   0.49987   0.97964   0.00000  Uiso   1.00
C134   C     0.25019   0.00005   0.02037   0.00000  Uiso   1.00
C135   C     0.49974   0.25000   0.97963   0.00000  Uiso   1.00
C136   C     0.49974   0.25000   0.02037   0.00000  Uiso   1.00
H137   H     0.40765   0.25088   0.46436   0.00000  Uiso   1.00
H138   H     0.09198   0.25050   0.53563   0.00000  Uiso   1.00
H139   H     0.24953   0.40802   0.46438   0.00000  Uiso   1.00
H140   H     0.24950   0.09198   0.53562   0.00000  Uiso   1.00
H141   H     0.09198   0.24942   0.46436   0.00000  Uiso   1.00
H142   H     0.40765   0.24916   0.53564   0.00000  Uiso   1.00
H143   H     0.25104   0.09199   0.46437   0.00000  Uiso   1.00
H144   H     0.25108   0.40801   0.53564   0.00000  Uiso   1.00
H145   H     0.15801   0.00037   0.96437   0.00000  Uiso   1.00
H146   H     0.34235   0.00095   0.03564   0.00000  Uiso   1.00
H147   H     0.49890   0.15801   0.96437   0.00000  Uiso   1.00
H148   H     0.49900   0.34199   0.03563   0.00000  Uiso   1.00
H149   H     0.34235   0.49923   0.96436   0.00000  Uiso   1.00
H150   H     0.15801   0.49927   0.03564   0.00000  Uiso   1.00
H151   H     0.00054   0.34198   0.96438   0.00000  Uiso   1.00
H152   H     0.00045   0.15802   0.03562   0.00000  Uiso   1.00
H153   H     0.05853   0.24797   0.40339   0.00000  Uiso   1.00
H154   H     0.44115   0.24705   0.59684   0.00000  Uiso   1.00
H155   H     0.25294   0.05861   0.40319   0.00000  Uiso   1.00
H156   H     0.25298   0.44139   0.59681   0.00000  Uiso   1.00
H157   H     0.44116   0.25297   0.40316   0.00000  Uiso   1.00
H158   H     0.05853   0.25197   0.59660   0.00000  Uiso   1.00
H159   H     0.24741   0.44141   0.40321   0.00000  Uiso   1.00
H160   H     0.24739   0.05859   0.59679   0.00000  Uiso   1.00
H161   H     0.30885   0.49709   0.90316   0.00000  Uiso   1.00
H162   H     0.19147   0.49785   0.09661   0.00000  Uiso   1.00
H163   H     0.00263   0.30859   0.90321   0.00000  Uiso   1.00
H164   H     0.00258   0.19141   0.09679   0.00000  Uiso   1.00
H165   H     0.19147   0.00191   0.90340   0.00000  Uiso   1.00
H166   H     0.30884   0.00301   0.09684   0.00000  Uiso   1.00
H167   H     0.49701   0.19139   0.90319   0.00000  Uiso   1.00
H168   H     0.49709   0.30861   0.09681   0.00000  Uiso   1.00
O169   O     0.25000   0.00000   0.25000   0.00000  Uiso   1.00
O170   O     0.25000  -0.00000   0.75000   0.00000  Uiso   1.00
O171   O     0.00000   0.25000   0.25000   0.00000  Uiso   1.00
O172   O     0.00000   0.25000   0.75000   0.00000  Uiso   1.00
O173   O     0.25000   0.46964   0.33755   0.00000  Uiso   1.00
O174   O     0.25000   0.03036   0.66245   0.00000  Uiso   1.00
O175   O     0.03037   0.25000   0.33755   0.00000  Uiso   1.00
O176   O     0.46964   0.25000   0.66245   0.00000  Uiso   1.00
O177   O     0.25000   0.03036   0.33755   0.00000  Uiso   1.00
O178   O     0.25000   0.46964   0.66245   0.00000  Uiso   1.00
O179   O     0.46964   0.25000   0.33755   0.00000  Uiso   1.00
O180   O     0.03037   0.25000   0.66245   0.00000  Uiso   1.00
O181   O     0.00000   0.21963   0.83755   0.00000  Uiso   1.00
O182   O     0.00000   0.28036   0.16245   0.00000  Uiso   1.00
O183   O     0.28037  -0.00000   0.83755   0.00000  Uiso   1.00
O184   O     0.21964   0.00000   0.16245   0.00000  Uiso   1.00
O185   O     0.00000   0.28036   0.83755   0.00000  Uiso   1.00
O186   O     0.00000   0.21963   0.16245   0.00000  Uiso   1.00
O187   O     0.21964  -0.00000   0.83755   0.00000  Uiso   1.00
O188   O     0.28037   0.00000   0.16245   0.00000  Uiso   1.00
O189   O     0.20725   0.07307   0.27302   0.00000  Uiso   1.00
O190   O     0.29276   0.42693   0.72698   0.00000  Uiso   1.00
O191   O     0.42693   0.20724   0.27302   0.00000  Uiso   1.00
O192   O     0.07308   0.29276   0.72698   0.00000  Uiso   1.00
O193   O     0.29276   0.42693   0.27302   0.00000  Uiso   1.00
O194   O     0.20725   0.07307   0.72698   0.00000  Uiso   1.00
O195   O     0.07308   0.29276   0.27302   0.00000  Uiso   1.00
O196   O     0.42693   0.20724   0.72698   0.00000  Uiso   1.00
O197   O     0.20725   0.42693   0.72698   0.00000  Uiso   1.00
O198   O     0.29276   0.07307   0.27302   0.00000  Uiso   1.00
O199   O     0.42693   0.29275   0.72698   0.00000  Uiso   1.00
O200   O     0.07308   0.20725   0.27302   0.00000  Uiso   1.00
O201   O     0.29276   0.07307   0.72698   0.00000  Uiso   1.00
O202   O     0.20725   0.42693   0.27302   0.00000  Uiso   1.00
O203   O     0.07308   0.20725   0.72698   0.00000  Uiso   1.00
O204   O     0.42693   0.29275   0.27302   0.00000  Uiso   1.00
O205   O     0.45725   0.32307   0.77302   0.00000  Uiso   1.00
O206   O     0.04276   0.17693   0.22698   0.00000  Uiso   1.00
O207   O     0.17693   0.45725   0.77302   0.00000  Uiso   1.00
O208   O     0.32308   0.04275   0.22698   0.00000  Uiso   1.00
O209   O     0.04276   0.17693   0.77302   0.00000  Uiso   1.00
O210   O     0.45725   0.32307   0.22698   0.00000  Uiso   1.00
O211   O     0.32308   0.04275   0.77302   0.00000  Uiso   1.00
O212   O     0.17693   0.45725   0.22698   0.00000  Uiso   1.00
O213   O     0.45725   0.17692   0.22698   0.00000  Uiso   1.00
O214   O     0.04276   0.32308   0.77302   0.00000  Uiso   1.00
O215   O     0.17693   0.04275   0.22698   0.00000  Uiso   1.00
O216   O     0.32308   0.45725   0.77302   0.00000  Uiso   1.00
O217   O     0.04276   0.32308   0.22698   0.00000  Uiso   1.00
O218   O     0.45725   0.17692   0.77302   0.00000  Uiso   1.00
O219   O     0.32308   0.45725   0.22698   0.00000  Uiso   1.00
O220   O     0.17693   0.04275   0.77302   0.00000  Uiso   1.00
Zn221  Zn    0.20660   0.00000   0.21735   0.00000  Uiso   1.00
Zn222  Zn    0.29341  -0.00000   0.78265   0.00000  Uiso   1.00
Zn223  Zn    0.00000   0.20659   0.21735   0.00000  Uiso   1.00
Zn224  Zn    0.00000   0.29340   0.78265   0.00000  Uiso   1.00
Zn225  Zn    0.29341   0.00000   0.21735   0.00000  Uiso   1.00
Zn226  Zn    0.20660  -0.00000   0.78265   0.00000  Uiso   1.00
Zn227  Zn    0.00000   0.29340   0.21735   0.00000  Uiso   1.00
Zn228  Zn    0.00000   0.20660   0.78265   0.00000  Uiso   1.00
Zn229  Zn    0.45660   0.25000   0.71735   0.00000  Uiso   1.00
Zn230  Zn    0.04341   0.25000   0.28265   0.00000  Uiso   1.00
Zn231  Zn    0.25000   0.45660   0.71735   0.00000  Uiso   1.00
Zn232  Zn    0.25000   0.04340   0.28265   0.00000  Uiso   1.00
Zn233  Zn    0.04341   0.25000   0.71735   0.00000  Uiso   1.00
Zn234  Zn    0.45660   0.25000   0.28265   0.00000  Uiso   1.00
Zn235  Zn    0.25000   0.04340   0.71735   0.00000  Uiso   1.00
Zn236  Zn    0.25000   0.45660   0.28265   0.00000  Uiso   1.00
O237   O     0.13931   0.41373   0.18156   0.00000  Uiso   1.00
C238   C     0.11270   0.44050   0.17385   0.00000  Uiso   1.00
H239   H     0.10972   0.45946   0.19896   0.00000  Uiso   1.00
H240   H     0.08586   0.42791   0.16743   0.00000  Uiso   1.00
C241   C     0.12485   0.46205   0.13819   0.00000  Uiso   1.00
H242   H     0.15196   0.47419   0.14412   0.00000  Uiso   1.00
H243   H     0.12733   0.44343   0.11285   0.00000  Uiso   1.00
C244   C     0.09815   0.49236   0.12831   0.00000  Uiso   1.00
H245   H     0.09735   0.01227   0.15246   0.00000  Uiso   1.00
H246   H     0.07043   0.48114   0.12333   0.00000  Uiso   1.00
H247   H     0.10729   0.00656   0.10154   0.00000  Uiso   1.00
O248   O     0.36470   0.08277   0.81658   0.00000  Uiso   1.00
C249   C     0.33972   0.10070   0.84119   0.00000  Uiso   1.00
H250   H     0.31262   0.10303   0.82675   0.00000  Uiso   1.00
H251   H     0.34970   0.12837   0.84907   0.00000  Uiso   1.00
C252   C     0.33549   0.07848   0.87841   0.00000  Uiso   1.00
H253   H     0.32817   0.05014   0.87064   0.00000  Uiso   1.00
H254   H     0.36186   0.07799   0.89430   0.00000  Uiso   1.00
C255   C     0.30606   0.09420   0.90485   0.00000  Uiso   1.00
H256   H     0.31262   0.12278   0.91260   0.00000  Uiso   1.00
H257   H     0.30446   0.07794   0.93201   0.00000  Uiso   1.00
H258   H     0.27914   0.09323   0.89013   0.00000  Uiso   1.00
O259   O     0.07742   0.12899   0.18680   0.00000  Uiso   1.00
C260   C     0.04554   0.10785   0.19294   0.00000  Uiso   1.00
H261   H     0.02287   0.12157   0.17731   0.00000  Uiso   1.00
H262   H     0.03715   0.10618   0.22412   0.00000  Uiso   1.00
C263   C     0.04993   0.06950   0.17637   0.00000  Uiso   1.00
H264   H     0.06136   0.07110   0.14648   0.00000  Uiso   1.00
H265   H     0.06892   0.05391   0.19515   0.00000  Uiso   1.00
C266   C     0.01355   0.04941   0.17503   0.00000  Uiso   1.00
H267   H     0.00159   0.04750   0.20464   0.00000  Uiso   1.00
H268   H     0.01781   0.02147   0.16366   0.00000  Uiso   1.00
H269   H     0.49415   0.06378   0.15556   0.00000  Uiso   1.00
O270   O     0.41672   0.36395   0.81673   0.00000  Uiso   1.00
C271   C     0.39811   0.33919   0.84101   0.00000  Uiso   1.00
H272   H     0.39479   0.31246   0.82613   0.00000  Uiso   1.00
H273   H     0.37079   0.34995   0.84927   0.00000  Uiso   1.00
C274   C     0.42046   0.33361   0.87798   0.00000  Uiso   1.00
H275   H     0.44840   0.32506   0.86983   0.00000  Uiso   1.00
H276   H     0.42231   0.35973   0.89413   0.00000  Uiso   1.00
C277   C     0.40361   0.30473   0.90427   0.00000  Uiso   1.00
H278   H     0.37546   0.31262   0.91258   0.00000  Uiso   1.00
H279   H     0.42019   0.30195   0.93112   0.00000  Uiso   1.00
H280   H     0.40301   0.27803   0.88917   0.00000  Uiso   1.00
O281   O     0.36652   0.08085   0.18463   0.00000  Uiso   1.00
C282   C     0.39426   0.05418   0.18373   0.00000  Uiso   1.00
H283   H     0.39676   0.03999   0.21232   0.00000  Uiso   1.00
H284   H     0.42090   0.06681   0.17626   0.00000  Uiso   1.00
C285   C     0.38490   0.02590   0.15274   0.00000  Uiso   1.00
H286   H     0.35814   0.01332   0.15963   0.00000  Uiso   1.00
H287   H     0.38285   0.03935   0.12387   0.00000  Uiso   1.00
C288   C     0.41377   0.49612   0.15087   0.00000  Uiso   1.00
H289   H     0.41613   0.48242   0.17954   0.00000  Uiso   1.00
H290   H     0.44061   0.00782   0.14276   0.00000  Uiso   1.00
H291   H     0.40593   0.47561   0.12871   0.00000  Uiso   1.00
O292   O     0.13383   0.41859   0.81546   0.00000  Uiso   1.00
C293   C     0.15732   0.40008   0.84120   0.00000  Uiso   1.00
H294   H     0.18474   0.39654   0.82777   0.00000  Uiso   1.00
H295   H     0.14604   0.37293   0.84914   0.00000  Uiso   1.00
C296   C     0.16121   0.42270   0.87818   0.00000  Uiso   1.00
H297   H     0.17007   0.45055   0.87020   0.00000  Uiso   1.00
H298   H     0.13433   0.42463   0.89293   0.00000  Uiso   1.00
C299   C     0.18893   0.40616   0.90610   0.00000  Uiso   1.00
H300   H     0.18078   0.37805   0.91411   0.00000  Uiso   1.00
H301   H     0.19032   0.42282   0.93298   0.00000  Uiso   1.00
H302   H     0.21637   0.40563   0.89248   0.00000  Uiso   1.00
O303   O     0.41895   0.36592   0.18434   0.00000  Uiso   1.00
C304   C     0.44634   0.39294   0.18311   0.00000  Uiso   1.00
H305   H     0.46055   0.39557   0.21169   0.00000  Uiso   1.00
H306   H     0.43427   0.41961   0.17514   0.00000  Uiso   1.00
C307   C     0.47451   0.38260   0.15229   0.00000  Uiso   1.00
H308   H     0.48645   0.35567   0.15951   0.00000  Uiso   1.00
H309   H     0.46101   0.38055   0.12343   0.00000  Uiso   1.00
C310   C     0.00509   0.41063   0.15005   0.00000  Uiso   1.00
H311   H     0.49398   0.43773   0.14208   0.00000  Uiso   1.00
H312   H     0.02515   0.40225   0.12760   0.00000  Uiso   1.00
H313   H     0.01929   0.41264   0.17850   0.00000  Uiso   1.00
O314   O     0.08448   0.13762   0.81769   0.00000  Uiso   1.00
C315   C     0.10221   0.16380   0.84097   0.00000  Uiso   1.00
H316   H     0.10349   0.19042   0.82552   0.00000  Uiso   1.00
H317   H     0.13034   0.15489   0.84859   0.00000  Uiso   1.00
C318   C     0.08051   0.16856   0.87850   0.00000  Uiso   1.00
H319   H     0.05178   0.17483   0.87109   0.00000  Uiso   1.00
H320   H     0.08104   0.14273   0.89530   0.00000  Uiso   1.00
C321   C     0.09586   0.19917   0.90356   0.00000  Uiso   1.00
H322   H     0.12476   0.19359   0.91106   0.00000  Uiso   1.00
H323   H     0.07991   0.20126   0.93091   0.00000  Uiso   1.00
H324   H     0.09400   0.22551   0.88787   0.00000  Uiso   1.00
O325   O     0.13915   0.08617   0.81839   0.00000  Uiso   1.00
C326   C     0.11264   0.05924   0.82586   0.00000  Uiso   1.00
H327   H     0.11025   0.04007   0.80087   0.00000  Uiso   1.00
H328   H     0.08557   0.07161   0.83165   0.00000  Uiso   1.00
C329   C     0.12440   0.03811   0.86195   0.00000  Uiso   1.00
H330   H     0.15201   0.02677   0.85694   0.00000  Uiso   1.00
H331   H     0.12562   0.05684   0.88730   0.00000  Uiso   1.00
C332   C     0.09836   0.00703   0.87105   0.00000  Uiso   1.00
H333   H     0.09907   0.48692   0.84709   0.00000  Uiso   1.00
H334   H     0.07015   0.01738   0.87482   0.00000  Uiso   1.00
H335   H     0.10700   0.49332   0.89830   0.00000  Uiso   1.00
O336   O     0.36473   0.41726   0.18343   0.00000  Uiso   1.00
C337   C     0.33976   0.39934   0.15880   0.00000  Uiso   1.00
H338   H     0.31266   0.39700   0.17322   0.00000  Uiso   1.00
H339   H     0.34975   0.37167   0.15091   0.00000  Uiso   1.00
C340   C     0.33556   0.42157   0.12159   0.00000  Uiso   1.00
H341   H     0.32821   0.44990   0.12937   0.00000  Uiso   1.00
H342   H     0.36194   0.42209   0.10573   0.00000  Uiso   1.00
C343   C     0.30616   0.40585   0.09511   0.00000  Uiso   1.00
H344   H     0.31276   0.37728   0.08734   0.00000  Uiso   1.00
H345   H     0.30456   0.42213   0.06797   0.00000  Uiso   1.00
H346   H     0.27923   0.40677   0.10980   0.00000  Uiso   1.00
O347   O     0.07733   0.37111   0.81313   0.00000  Uiso   1.00
C348   C     0.04547   0.39225   0.80689   0.00000  Uiso   1.00
H349   H     0.02277   0.37856   0.82250   0.00000  Uiso   1.00
H350   H     0.03713   0.39386   0.77569   0.00000  Uiso   1.00
C351   C     0.04983   0.43063   0.82339   0.00000  Uiso   1.00
H352   H     0.06119   0.42909   0.85331   0.00000  Uiso   1.00
H353   H     0.06888   0.44619   0.80463   0.00000  Uiso   1.00
C354   C     0.01345   0.45073   0.82458   0.00000  Uiso   1.00
H355   H     0.00156   0.45256   0.79494   0.00000  Uiso   1.00
H356   H     0.01769   0.47870   0.83587   0.00000  Uiso   1.00
H357   H     0.49402   0.43641   0.84405   0.00000  Uiso   1.00
O358   O     0.41672   0.13605   0.18327   0.00000  Uiso   1.00
C359   C     0.39810   0.16081   0.15899   0.00000  Uiso   1.00
H360   H     0.39477   0.18754   0.17386   0.00000  Uiso   1.00
H361   H     0.37078   0.15003   0.15073   0.00000  Uiso   1.00
C362   C     0.42044   0.16639   0.12202   0.00000  Uiso   1.00
H363   H     0.44838   0.17497   0.13017   0.00000  Uiso   1.00
H364   H     0.42232   0.14028   0.10587   0.00000  Uiso   1.00
C365   C     0.40358   0.19526   0.09573   0.00000  Uiso   1.00
H366   H     0.37544   0.18736   0.08741   0.00000  Uiso   1.00
H367   H     0.42016   0.19805   0.06888   0.00000  Uiso   1.00
H368   H     0.40296   0.22196   0.11083   0.00000  Uiso   1.00
O369   O     0.36651   0.41914   0.81537   0.00000  Uiso   1.00
C370   C     0.39425   0.44582   0.81628   0.00000  Uiso   1.00
H371   H     0.39675   0.46000   0.78768   0.00000  Uiso   1.00
H372   H     0.42089   0.43320   0.82376   0.00000  Uiso   1.00
C373   C     0.38487   0.47411   0.84726   0.00000  Uiso   1.00
H374   H     0.35810   0.48667   0.84037   0.00000  Uiso   1.00
H375   H     0.38281   0.46066   0.87614   0.00000  Uiso   1.00
C376   C     0.41373   0.00390   0.84913   0.00000  Uiso   1.00
H377   H     0.41610   0.01759   0.82045   0.00000  Uiso   1.00
H378   H     0.44057   0.49221   0.85725   0.00000  Uiso   1.00
H379   H     0.40587   0.02441   0.87128   0.00000  Uiso   1.00
O380   O     0.13384   0.08140   0.18453   0.00000  Uiso   1.00
C381   C     0.15737   0.09986   0.15879   0.00000  Uiso   1.00
H382   H     0.18479   0.10335   0.17222   0.00000  Uiso   1.00
H383   H     0.14614   0.12702   0.15083   0.00000  Uiso   1.00
C384   C     0.16121   0.07721   0.12182   0.00000  Uiso   1.00
H385   H     0.17002   0.04934   0.12981   0.00000  Uiso   1.00
H386   H     0.13433   0.07532   0.10707   0.00000  Uiso   1.00
C387   C     0.18897   0.09369   0.09389   0.00000  Uiso   1.00
H388   H     0.18088   0.12180   0.08586   0.00000  Uiso   1.00
H389   H     0.19033   0.07701   0.06701   0.00000  Uiso   1.00
H390   H     0.21641   0.09416   0.10751   0.00000  Uiso   1.00
O391   O     0.41893   0.13409   0.81567   0.00000  Uiso   1.00
C392   C     0.44630   0.10705   0.81691   0.00000  Uiso   1.00
H393   H     0.46052   0.10441   0.78834   0.00000  Uiso   1.00
H394   H     0.43422   0.08040   0.82489   0.00000  Uiso   1.00
C395   C     0.47448   0.11739   0.84774   0.00000  Uiso   1.00
H396   H     0.48645   0.14430   0.84050   0.00000  Uiso   1.00
H397   H     0.46097   0.11946   0.87659   0.00000  Uiso   1.00
C398   C     0.00502   0.08931   0.84999   0.00000  Uiso   1.00
H399   H     0.49388   0.06224   0.85799   0.00000  Uiso   1.00
H400   H     0.02510   0.09769   0.87243   0.00000  Uiso   1.00
H401   H     0.01921   0.08727   0.82154   0.00000  Uiso   1.00
O402   O     0.08461   0.36224   0.18225   0.00000  Uiso   1.00
C403   C     0.10238   0.33602   0.15906   0.00000  Uiso   1.00
H404   H     0.10371   0.30945   0.17459   0.00000  Uiso   1.00
H405   H     0.13050   0.34496   0.15140   0.00000  Uiso   1.00
C406   C     0.08068   0.33112   0.12154   0.00000  Uiso   1.00
H407   H     0.05197   0.32481   0.12898   0.00000  Uiso   1.00
H408   H     0.08115   0.35690   0.10467   0.00000  Uiso   1.00
C409   C     0.09609   0.30047   0.09657   0.00000  Uiso   1.00
H410   H     0.12497   0.30610   0.08903   0.00000  Uiso   1.00
H411   H     0.08012   0.29827   0.06924   0.00000  Uiso   1.00
H412   H     0.09430   0.27417   0.11235   0.00000  Uiso   1.00
O413   O     0.38349   0.16914   0.68462   0.00000  Uiso   1.00
C414   C     0.35576   0.19582   0.68372   0.00000  Uiso   1.00
H415   H     0.35325   0.21000   0.71231   0.00000  Uiso   1.00
H416   H     0.32912   0.18319   0.67623   0.00000  Uiso   1.00
C417   C     0.36513   0.22410   0.65273   0.00000  Uiso   1.00
H418   H     0.39190   0.23667   0.65963   0.00000  Uiso   1.00
H419   H     0.36719   0.21065   0.62386   0.00000  Uiso   1.00
C420   C     0.33627   0.25389   0.65086   0.00000  Uiso   1.00
H421   H     0.33390   0.26758   0.67954   0.00000  Uiso   1.00
H422   H     0.30943   0.24219   0.64274   0.00000  Uiso   1.00
H423   H     0.34413   0.27440   0.62870   0.00000  Uiso   1.00
O424   O     0.11613   0.33145   0.31548   0.00000  Uiso   1.00
C425   C     0.09259   0.34994   0.34119   0.00000  Uiso   1.00
H426   H     0.06519   0.35346   0.32772   0.00000  Uiso   1.00
H427   H     0.10385   0.37709   0.34915   0.00000  Uiso   1.00
C428   C     0.08867   0.32731   0.37816   0.00000  Uiso   1.00
H429   H     0.07984   0.29945   0.37017   0.00000  Uiso   1.00
H430   H     0.11553   0.32539   0.39295   0.00000  Uiso   1.00
C431   C     0.06091   0.34384   0.40605   0.00000  Uiso   1.00
H432   H     0.06903   0.37194   0.41408   0.00000  Uiso   1.00
H433   H     0.05949   0.32717   0.43293   0.00000  Uiso   1.00
H434   H     0.03349   0.34435   0.39239   0.00000  Uiso   1.00
O435   O     0.33106   0.38409   0.68433   0.00000  Uiso   1.00
C436   C     0.30369   0.35705   0.68310   0.00000  Uiso   1.00
H437   H     0.28947   0.35441   0.71167   0.00000  Uiso   1.00
H438   H     0.31577   0.33040   0.67513   0.00000  Uiso   1.00
C439   C     0.27552   0.36738   0.65227   0.00000  Uiso   1.00
H440   H     0.26355   0.39430   0.65950   0.00000  Uiso   1.00
H441   H     0.28902   0.36945   0.62342   0.00000  Uiso   1.00
C442   C     0.24497   0.33931   0.65002   0.00000  Uiso   1.00
H443   H     0.25611   0.31224   0.64202   0.00000  Uiso   1.00
H444   H     0.22489   0.34769   0.62758   0.00000  Uiso   1.00
H445   H     0.23078   0.33727   0.67847   0.00000  Uiso   1.00
O446   O     0.16545   0.11231   0.31772   0.00000  Uiso   1.00
C447   C     0.14771   0.08610   0.34095   0.00000  Uiso   1.00
H448   H     0.14640   0.05951   0.32546   0.00000  Uiso   1.00
H449   H     0.11958   0.09503   0.34859   0.00000  Uiso   1.00
C450   C     0.16940   0.08127   0.37847   0.00000  Uiso   1.00
H451   H     0.19812   0.07498   0.37105   0.00000  Uiso   1.00
H452   H     0.16890   0.10707   0.39531   0.00000  Uiso   1.00
C453   C     0.15402   0.05064   0.40349   0.00000  Uiso   1.00
H454   H     0.12513   0.05624   0.41100   0.00000  Uiso   1.00
H455   H     0.16998   0.04849   0.43082   0.00000  Uiso   1.00
H456   H     0.15584   0.02433   0.38775   0.00000  Uiso   1.00
O457   O     0.11084   0.33618   0.68160   0.00000  Uiso   1.00
C458   C     0.13736   0.30927   0.67412   0.00000  Uiso   1.00
H459   H     0.13980   0.29011   0.69912   0.00000  Uiso   1.00
H460   H     0.16441   0.32165   0.66827   0.00000  Uiso   1.00
C461   C     0.12557   0.28810   0.63806   0.00000  Uiso   1.00
H462   H     0.09801   0.27667   0.64315   0.00000  Uiso   1.00
H463   H     0.12424   0.30682   0.61271   0.00000  Uiso   1.00
C464   C     0.15168   0.25709   0.62890   0.00000  Uiso   1.00
H465   H     0.15110   0.23699   0.65288   0.00000  Uiso   1.00
H466   H     0.17985   0.26752   0.62503   0.00000  Uiso   1.00
H467   H     0.14300   0.24334   0.60168   0.00000  Uiso   1.00
O468   O     0.38528   0.16725   0.31657   0.00000  Uiso   1.00
C469   C     0.41025   0.14932   0.34120   0.00000  Uiso   1.00
H470   H     0.43734   0.14698   0.32678   0.00000  Uiso   1.00
H471   H     0.40026   0.12166   0.34909   0.00000  Uiso   1.00
C472   C     0.41447   0.17155   0.37841   0.00000  Uiso   1.00
H473   H     0.42182   0.19988   0.37063   0.00000  Uiso   1.00
H474   H     0.38809   0.17207   0.39427   0.00000  Uiso   1.00
C475   C     0.44386   0.15582   0.40489   0.00000  Uiso   1.00
H476   H     0.43726   0.12726   0.41266   0.00000  Uiso   1.00
H477   H     0.44547   0.17210   0.43203   0.00000  Uiso   1.00
H478   H     0.47080   0.15675   0.39018   0.00000  Uiso   1.00
O479   O     0.17268   0.12112   0.68687   0.00000  Uiso   1.00
C480   C     0.20453   0.14225   0.69311   0.00000  Uiso   1.00
H481   H     0.22723   0.12856   0.67750   0.00000  Uiso   1.00
H482   H     0.21287   0.14386   0.72431   0.00000  Uiso   1.00
C483   C     0.20017   0.18063   0.67662   0.00000  Uiso   1.00
H484   H     0.18882   0.17909   0.64669   0.00000  Uiso   1.00
H485   H     0.18113   0.19619   0.69538   0.00000  Uiso   1.00
C486   C     0.23656   0.20073   0.67542   0.00000  Uiso   1.00
H487   H     0.24845   0.20256   0.70506   0.00000  Uiso   1.00
H488   H     0.23232   0.22870   0.66412   0.00000  Uiso   1.00
H489   H     0.25599   0.18641   0.65595   0.00000  Uiso   1.00
O490   O     0.33328   0.38605   0.31673   0.00000  Uiso   1.00
C491   C     0.35189   0.41080   0.34101   0.00000  Uiso   1.00
H492   H     0.35522   0.43754   0.32614   0.00000  Uiso   1.00
H493   H     0.37921   0.40003   0.34927   0.00000  Uiso   1.00
C494   C     0.32955   0.41638   0.37798   0.00000  Uiso   1.00
H495   H     0.30161   0.42495   0.36983   0.00000  Uiso   1.00
H496   H     0.32768   0.39026   0.39412   0.00000  Uiso   1.00
C497   C     0.34640   0.44525   0.40428   0.00000  Uiso   1.00
H498   H     0.37455   0.43735   0.41259   0.00000  Uiso   1.00
H499   H     0.32982   0.44803   0.43113   0.00000  Uiso   1.00
H500   H     0.34702   0.47195   0.38918   0.00000  Uiso   1.00
O501   O     0.38348   0.33085   0.31537   0.00000  Uiso   1.00
C502   C     0.35574   0.30418   0.31626   0.00000  Uiso   1.00
H503   H     0.35324   0.28999   0.28767   0.00000  Uiso   1.00
H504   H     0.32910   0.31680   0.32374   0.00000  Uiso   1.00
C505   C     0.36510   0.27589   0.34726   0.00000  Uiso   1.00
H506   H     0.39187   0.26332   0.34037   0.00000  Uiso   1.00
H507   H     0.36715   0.28934   0.37613   0.00000  Uiso   1.00
C508   C     0.33623   0.24611   0.34911   0.00000  Uiso   1.00
H509   H     0.33387   0.23241   0.32044   0.00000  Uiso   1.00
H510   H     0.30939   0.25781   0.35723   0.00000  Uiso   1.00
H511   H     0.34408   0.22560   0.37128   0.00000  Uiso   1.00
O512   O     0.11619   0.16860   0.68454   0.00000  Uiso   1.00
C513   C     0.09269   0.15011   0.65880   0.00000  Uiso   1.00
H514   H     0.06527   0.14659   0.67222   0.00000  Uiso   1.00
H515   H     0.10396   0.12296   0.65085   0.00000  Uiso   1.00
C516   C     0.08882   0.17274   0.62182   0.00000  Uiso   1.00
H517   H     0.07997   0.20060   0.62980   0.00000  Uiso   1.00
H518   H     0.11570   0.17467   0.60707   0.00000  Uiso   1.00
C519   C     0.06110   0.15622   0.59389   0.00000  Uiso   1.00
H520   H     0.06923   0.12811   0.58587   0.00000  Uiso   1.00
H521   H     0.05972   0.17289   0.56701   0.00000  Uiso   1.00
H522   H     0.03366   0.15571   0.60751   0.00000  Uiso   1.00
O523   O     0.33105   0.11592   0.31567   0.00000  Uiso   1.00
C524   C     0.30367   0.14294   0.31690   0.00000  Uiso   1.00
H525   H     0.28946   0.14557   0.28832   0.00000  Uiso   1.00
H526   H     0.31575   0.16960   0.32486   0.00000  Uiso   1.00
C527   C     0.27550   0.13261   0.34772   0.00000  Uiso   1.00
H528   H     0.26355   0.10568   0.34050   0.00000  Uiso   1.00
H529   H     0.28901   0.13055   0.37658   0.00000  Uiso   1.00
C530   C     0.24494   0.16066   0.34997   0.00000  Uiso   1.00
H531   H     0.25606   0.18774   0.35794   0.00000  Uiso   1.00
H532   H     0.22487   0.15228   0.37241   0.00000  Uiso   1.00
H533   H     0.23074   0.16267   0.32152   0.00000  Uiso   1.00
O534   O     0.16551   0.38763   0.68230   0.00000  Uiso   1.00
C535   C     0.14778   0.41382   0.65903   0.00000  Uiso   1.00
H536   H     0.14649   0.44043   0.67449   0.00000  Uiso   1.00
H537   H     0.11964   0.40491   0.65140   0.00000  Uiso   1.00
C538   C     0.16947   0.41859   0.62150   0.00000  Uiso   1.00
H539   H     0.19820   0.42487   0.62891   0.00000  Uiso   1.00
H540   H     0.16895   0.39277   0.60470   0.00000  Uiso   1.00
C541   C     0.15411   0.44920   0.59645   0.00000  Uiso   1.00
H542   H     0.12522   0.44362   0.58894   0.00000  Uiso   1.00
H543   H     0.17007   0.45131   0.56910   0.00000  Uiso   1.00
H544   H     0.15596   0.47554   0.61215   0.00000  Uiso   1.00
O545   O     0.11076   0.16377   0.31841   0.00000  Uiso   1.00
C546   C     0.13731   0.19063   0.32601   0.00000  Uiso   1.00
H547   H     0.14000   0.20969   0.30096   0.00000  Uiso   1.00
H548   H     0.16427   0.17816   0.33213   0.00000  Uiso   1.00
C549   C     0.12533   0.21197   0.36187   0.00000  Uiso   1.00
H550   H     0.09796   0.22368   0.35640   0.00000  Uiso   1.00
H551   H     0.12350   0.19330   0.38723   0.00000  Uiso   1.00
C552   C     0.15167   0.24270   0.37134   0.00000  Uiso   1.00
H553   H     0.15168   0.26271   0.34728   0.00000  Uiso   1.00
H554   H     0.17965   0.23196   0.37571   0.00000  Uiso   1.00
H555   H     0.14277   0.25665   0.39836   0.00000  Uiso   1.00
O556   O     0.38529   0.33276   0.68342   0.00000  Uiso   1.00
C557   C     0.41028   0.35069   0.65881   0.00000  Uiso   1.00
H558   H     0.43737   0.35300   0.67324   0.00000  Uiso   1.00
H559   H     0.40030   0.37836   0.65093   0.00000  Uiso   1.00
C560   C     0.41448   0.32847   0.62159   0.00000  Uiso   1.00
H561   H     0.42179   0.30012   0.62936   0.00000  Uiso   1.00
H562   H     0.38811   0.32799   0.60571   0.00000  Uiso   1.00
C563   C     0.44391   0.34417   0.59514   0.00000  Uiso   1.00
H564   H     0.43736   0.37276   0.58740   0.00000  Uiso   1.00
H565   H     0.44550   0.32792   0.56798   0.00000  Uiso   1.00
H566   H     0.47084   0.34319   0.60985   0.00000  Uiso   1.00
O567   O     0.17259   0.37898   0.31320   0.00000  Uiso   1.00
C568   C     0.20446   0.35784   0.30705   0.00000  Uiso   1.00
H569   H     0.22712   0.37155   0.32270   0.00000  Uiso   1.00
H570   H     0.21286   0.35620   0.27587   0.00000  Uiso   1.00
C571   C     0.20007   0.31948   0.32359   0.00000  Uiso   1.00
H572   H     0.18865   0.32104   0.35348   0.00000  Uiso   1.00
H573   H     0.18107   0.30390   0.30479   0.00000  Uiso   1.00
C574   C     0.23645   0.29938   0.32490   0.00000  Uiso   1.00
H575   H     0.24841   0.29751   0.29529   0.00000  Uiso   1.00
H576   H     0.23219   0.27143   0.33623   0.00000  Uiso   1.00
H577   H     0.25585   0.31373   0.34439   0.00000  Uiso   1.00
O578   O     0.33329   0.11394   0.68326   0.00000  Uiso   1.00
C579   C     0.35190   0.08918   0.65899   0.00000  Uiso   1.00
H580   H     0.35522   0.06245   0.67387   0.00000  Uiso   1.00
H581   H     0.37922   0.09995   0.65074   0.00000  Uiso   1.00
C582   C     0.32956   0.08360   0.62203   0.00000  Uiso   1.00
H583   H     0.30162   0.07504   0.63017   0.00000  Uiso   1.00
H584   H     0.32770   0.10971   0.60587   0.00000  Uiso   1.00
C585   C     0.34641   0.05471   0.59574   0.00000  Uiso   1.00
H586   H     0.37456   0.06261   0.58743   0.00000  Uiso   1.00
H587   H     0.32984   0.05193   0.56889   0.00000  Uiso   1.00
H588   H     0.34702   0.02802   0.61084   0.00000  Uiso   1.00
C589   C     0.53292   0.24911   0.41886   0.00000  Uiso   1.00
C590   C     0.96675   0.24848   0.58123   0.00000  Uiso   1.00
C591   C     0.75152   0.03304   0.41878   0.00000  Uiso   1.00
C592   C     0.75154   0.46696   0.58122   0.00000  Uiso   1.00
C593   C     0.96675   0.25152   0.41877   0.00000  Uiso   1.00
C594   C     0.53292   0.25086   0.58114   0.00000  Uiso   1.00
C595   C     0.74887   0.46698   0.41879   0.00000  Uiso   1.00
C596   C     0.74886   0.03302   0.58121   0.00000  Uiso   1.00
C597   C     0.78325   0.49850   0.91877   0.00000  Uiso   1.00
C598   C     0.71708   0.49903   0.08115   0.00000  Uiso   1.00
C599   C     0.50115   0.28302   0.91879   0.00000  Uiso   1.00
C600   C     0.50113   0.21698   0.08121   0.00000  Uiso   1.00
C601   C     0.71708   0.00081   0.91886   0.00000  Uiso   1.00
C602   C     0.78324   0.00153   0.08124   0.00000  Uiso   1.00
C603   C     0.99845   0.21696   0.91878   0.00000  Uiso   1.00
C604   C     0.99850   0.28304   0.08122   0.00000  Uiso   1.00
C605   C     0.99988   0.25025   0.39846   0.00000  Uiso   1.00
C606   C     0.99988   0.24974   0.60154   0.00000  Uiso   1.00
C607   C     0.75013   0.00001   0.39843   0.00000  Uiso   1.00
C608   C     0.75014   0.49999   0.60157   0.00000  Uiso   1.00
C609   C     0.75012   0.49973   0.89846   0.00000  Uiso   1.00
C610   C     0.75012   0.00022   0.10155   0.00000  Uiso   1.00
C611   C     0.99986   0.24999   0.89843   0.00000  Uiso   1.00
C612   C     0.99987   0.25001   0.10157   0.00000  Uiso   1.00
C613   C     0.93343   0.25052   0.47973   0.00000  Uiso   1.00
C614   C     0.56620   0.25028   0.52026   0.00000  Uiso   1.00
C615   C     0.74984   0.43375   0.47974   0.00000  Uiso   1.00
C616   C     0.74982   0.06625   0.52026   0.00000  Uiso   1.00
C617   C     0.56620   0.24966   0.47973   0.00000  Uiso   1.00
C618   C     0.93342   0.24950   0.52028   0.00000  Uiso   1.00
C619   C     0.75072   0.06626   0.47972   0.00000  Uiso   1.00
C620   C     0.75075   0.43374   0.52028   0.00000  Uiso   1.00
C621   C     0.68379   0.00018   0.97974   0.00000  Uiso   1.00
C622   C     0.81657   0.00056   0.02028   0.00000  Uiso   1.00
C623   C     0.99924   0.18374   0.97973   0.00000  Uiso   1.00
C624   C     0.99931   0.31626   0.02027   0.00000  Uiso   1.00
C625   C     0.81657   0.49954   0.97973   0.00000  Uiso   1.00
C626   C     0.68379   0.49954   0.02027   0.00000  Uiso   1.00
C627   C     0.50021   0.31625   0.97973   0.00000  Uiso   1.00
C628   C     0.50014   0.18375   0.02027   0.00000  Uiso   1.00
C629   C     0.75003   0.00000   0.35595   0.00000  Uiso   1.00
C630   C     0.75003  -0.00000   0.64405   0.00000  Uiso   1.00
C631   C     0.99998   0.25008   0.35597   0.00000  Uiso   1.00
C632   C     0.99998   0.24992   0.64403   0.00000  Uiso   1.00
C633   C     0.99997   0.25000   0.85595   0.00000  Uiso   1.00
C634   C     0.99998   0.25000   0.14405   0.00000  Uiso   1.00
C635   C     0.75002   0.49992   0.85597   0.00000  Uiso   1.00
C636   C     0.75002   0.00007   0.14403   0.00000  Uiso   1.00
C637   C     0.67993   0.06996   0.25003   0.00000  Uiso   1.00
C638   C     0.82007   0.42998   0.74998   0.00000  Uiso   1.00
C639   C     0.92995   0.18002   0.25001   0.00000  Uiso   1.00
C640   C     0.56965   0.32045   0.74958   0.00000  Uiso   1.00
C641   C     0.82005   0.43002   0.25000   0.00000  Uiso   1.00
C642   C     0.68035   0.07045   0.75042   0.00000  Uiso   1.00
C643   C     0.57007   0.31996   0.24997   0.00000  Uiso   1.00
C644   C     0.92993   0.17998   0.75002   0.00000  Uiso   1.00
C645   C     0.67993   0.43003   0.74997   0.00000  Uiso   1.00
C646   C     0.82007   0.07002   0.25002   0.00000  Uiso   1.00
C647   C     0.92995   0.31998   0.75000   0.00000  Uiso   1.00
C648   C     0.56966   0.17955   0.25042   0.00000  Uiso   1.00
C649   C     0.82005   0.06998   0.75001   0.00000  Uiso   1.00
C650   C     0.68035   0.42955   0.24958   0.00000  Uiso   1.00
C651   C     0.57007   0.18003   0.75003   0.00000  Uiso   1.00
C652   C     0.92993   0.32002   0.24998   0.00000  Uiso   1.00
C653   C     0.63106   0.39571   0.21581   0.00000  Uiso   1.00
C654   C     0.86970   0.10348   0.78344   0.00000  Uiso   1.00
C655   C     0.60016   0.12665   0.21892   0.00000  Uiso   1.00
C656   C     0.89633   0.36940   0.78341   0.00000  Uiso   1.00
C657   C     0.87110   0.10227   0.21741   0.00000  Uiso   1.00
C658   C     0.62911   0.39768   0.78242   0.00000  Uiso   1.00
C659   C     0.89783   0.37101   0.21731   0.00000  Uiso   1.00
C660   C     0.60481   0.13183   0.78440   0.00000  Uiso   1.00
C661   C     0.63098   0.10421   0.78414   0.00000  Uiso   1.00
C662   C     0.86972   0.39654   0.21656   0.00000  Uiso   1.00
C663   C     0.60012   0.37339   0.78104   0.00000  Uiso   1.00
C664   C     0.89633   0.13060   0.21659   0.00000  Uiso   1.00
C665   C     0.87110   0.39773   0.78259   0.00000  Uiso   1.00
C666   C     0.62914   0.10233   0.21756   0.00000  Uiso   1.00
C667   C     0.89781   0.12900   0.78270   0.00000  Uiso   1.00
C668   C     0.60488   0.36810   0.21556   0.00000  Uiso   1.00
C669   C     0.87891   0.14773   0.71741   0.00000  Uiso   1.00
C670   C     0.62086   0.35234   0.28244   0.00000  Uiso   1.00
C671   C     0.85219   0.37900   0.71730   0.00000  Uiso   1.00
C672   C     0.64516   0.11813   0.28441   0.00000  Uiso   1.00
C673   C     0.61901   0.35422   0.71585   0.00000  Uiso   1.00
C674   C     0.88029   0.14653   0.28344   0.00000  Uiso   1.00
C675   C     0.64988   0.12339   0.71896   0.00000  Uiso   1.00
C676   C     0.85367   0.38060   0.28341   0.00000  Uiso   1.00
C677   C     0.87890   0.35227   0.28259   0.00000  Uiso   1.00
C678   C     0.62089   0.14769   0.71758   0.00000  Uiso   1.00
C679   C     0.85218   0.12101   0.28270   0.00000  Uiso   1.00
C680   C     0.64519   0.38184   0.71560   0.00000  Uiso   1.00
C681   C     0.61898   0.14575   0.28416   0.00000  Uiso   1.00
C682   C     0.88029   0.35348   0.71656   0.00000  Uiso   1.00
C683   C     0.64985   0.37664   0.28107   0.00000  Uiso   1.00
C684   C     0.85367   0.11939   0.71659   0.00000  Uiso   1.00
C685   C     0.96646   0.25074   0.45927   0.00000  Uiso   1.00
C686   C     0.53317   0.25034   0.54069   0.00000  Uiso   1.00
C687   C     0.74966   0.46671   0.45928   0.00000  Uiso   1.00
C688   C     0.74965   0.03329   0.54072   0.00000  Uiso   1.00
C689   C     0.53317   0.24962   0.45931   0.00000  Uiso   1.00
C690   C     0.96646   0.24927   0.54073   0.00000  Uiso   1.00
C691   C     0.75085   0.03330   0.45927   0.00000  Uiso   1.00
C692   C     0.75087   0.46670   0.54073   0.00000  Uiso   1.00
C693   C     0.71683   0.00028   0.95931   0.00000  Uiso   1.00
C694   C     0.78354   0.00074   0.04073   0.00000  Uiso   1.00
C695   C     0.99913   0.21670   0.95927   0.00000  Uiso   1.00
C696   C     0.99917   0.28330   0.04073   0.00000  Uiso   1.00
C697   C     0.78354   0.49928   0.95927   0.00000  Uiso   1.00
C698   C     0.71683   0.49954   0.04070   0.00000  Uiso   1.00
C699   C     0.50037   0.28329   0.95927   0.00000  Uiso   1.00
C700   C     0.50034   0.21671   0.04072   0.00000  Uiso   1.00
C701   C     0.59866   0.34749   0.24947   0.00000  Uiso   1.00
C702   C     0.90182   0.15189   0.75005   0.00000  Uiso   1.00
C703   C     0.65135   0.09750   0.25052   0.00000  Uiso   1.00
C704   C     0.84818   0.40189   0.74995   0.00000  Uiso   1.00
C705   C     0.90181   0.15204   0.25002   0.00000  Uiso   1.00
C706   C     0.59667   0.34965   0.74885   0.00000  Uiso   1.00
C707   C     0.84819   0.40204   0.24998   0.00000  Uiso   1.00
C708   C     0.65333   0.09965   0.75115   0.00000  Uiso   1.00
C709   C     0.59864   0.15250   0.75052   0.00000  Uiso   1.00
C710   C     0.90182   0.34811   0.24995   0.00000  Uiso   1.00
C711   C     0.65135   0.40250   0.74948   0.00000  Uiso   1.00
C712   C     0.84818   0.09811   0.25005   0.00000  Uiso   1.00
C713   C     0.90182   0.34796   0.74998   0.00000  Uiso   1.00
C714   C     0.59668   0.15035   0.25114   0.00000  Uiso   1.00
C715   C     0.84818   0.09796   0.75002   0.00000  Uiso   1.00
C716   C     0.65334   0.40034   0.24885   0.00000  Uiso   1.00
C717   C     0.99980   0.25008   0.47963   0.00000  Uiso   1.00
C718   C     0.99980   0.24990   0.52036   0.00000  Uiso   1.00
C719   C     0.75027   0.00000   0.47963   0.00000  Uiso   1.00
C720   C     0.75027  -0.00000   0.52037   0.00000  Uiso   1.00
C721   C     0.75019   0.49987   0.97964   0.00000  Uiso   1.00
C722   C     0.75019   0.00005   0.02037   0.00000  Uiso   1.00
C723   C     0.99974   0.25000   0.97963   0.00000  Uiso   1.00
C724   C     0.99974   0.25000   0.02037   0.00000  Uiso   1.00
H725   H     0.90765   0.25088   0.46436   0.00000  Uiso   1.00
H726   H     0.59198   0.25050   0.53563   0.00000  Uiso   1.00
H727   H     0.74953   0.40802   0.46438   0.00000  Uiso   1.00
H728   H     0.74950   0.09198   0.53562   0.00000  Uiso   1.00
H729   H     0.59198   0.24942   0.46436   0.00000  Uiso   1.00
H730   H     0.90765   0.24916   0.53564   0.00000  Uiso   1.00
H731   H     0.75104   0.09199   0.46437   0.00000  Uiso   1.00
H732   H     0.75108   0.40801   0.53564   0.00000  Uiso   1.00
H733   H     0.65801   0.00037   0.96437   0.00000  Uiso   1.00
H734   H     0.84235   0.00095   0.03564   0.00000  Uiso   1.00
H735   H     0.99890   0.15801   0.96437   0.00000  Uiso   1.00
H736   H     0.99900   0.34199   0.03563   0.00000  Uiso   1.00
H737   H     0.84235   0.49923   0.96436   0.00000  Uiso   1.00
H738   H     0.65801   0.49927   0.03564   0.00000  Uiso   1.00
H739   H     0.50054   0.34198   0.96438   0.00000  Uiso   1.00
H740   H     0.50045   0.15802   0.03562   0.00000  Uiso   1.00
H741   H     0.55853   0.24797   0.40339   0.00000  Uiso   1.00
H742   H     0.94115   0.24705   0.59684   0.00000  Uiso   1.00
H743   H     0.75294   0.05861   0.40319   0.00000  Uiso   1.00
H744   H     0.75298   0.44139   0.59681   0.00000  Uiso   1.00
H745   H     0.94116   0.25297   0.40316   0.00000  Uiso   1.00
H746   H     0.55853   0.25197   0.59660   0.00000  Uiso   1.00
H747   H     0.74741   0.44141   0.40321   0.00000  Uiso   1.00
H748   H     0.74739   0.05859   0.59679   0.00000  Uiso   1.00
H749   H     0.80885   0.49709   0.90316   0.00000  Uiso   1.00
H750   H     0.69147   0.49785   0.09661   0.00000  Uiso   1.00
H751   H     0.50263   0.30859   0.90321   0.00000  Uiso   1.00
H752   H     0.50258   0.19141   0.09679   0.00000  Uiso   1.00
H753   H     0.69147   0.00191   0.90340   0.00000  Uiso   1.00
H754   H     0.80884   0.00301   0.09684   0.00000  Uiso   1.00
H755   H     0.99701   0.19139   0.90319   0.00000  Uiso   1.00
H756   H     0.99709   0.30861   0.09681   0.00000  Uiso   1.00
O757   O     0.75000   0.00000   0.25000   0.00000  Uiso   1.00
O758   O     0.75000  -0.00000   0.75000   0.00000  Uiso   1.00
O759   O     0.50000   0.25000   0.25000   0.00000  Uiso   1.00
O760   O     0.50000   0.25000   0.75000   0.00000  Uiso   1.00
O761   O     0.75000   0.46964   0.33755   0.00000  Uiso   1.00
O762   O     0.75000   0.03036   0.66245   0.00000  Uiso   1.00
O763   O     0.53037   0.25000   0.33755   0.00000  Uiso   1.00
O764   O     0.96964   0.25000   0.66245   0.00000  Uiso   1.00
O765   O     0.75000   0.03036   0.33755   0.00000  Uiso   1.00
O766   O     0.75000   0.46964   0.66245   0.00000  Uiso   1.00
O767   O     0.96964   0.25000   0.33755   0.00000  Uiso   1.00
O768   O     0.53037   0.25000   0.66245   0.00000  Uiso   1.00
O769   O     0.50000   0.21963   0.83755   0.00000  Uiso   1.00
O770   O     0.50000   0.28036   0.16245   0.00000  Uiso   1.00
O771   O     0.78037  -0.00000   0.83755   0.00000  Uiso   1.00
O772   O     0.71964   0.00000   0.16245   0.00000  Uiso   1.00
O773   O     0.50000   0.28036   0.83755   0.00000  Uiso   1.00
O774   O     0.50000   0.21963   0.16245   0.00000  Uiso   1.00
O775   O     0.71964  -0.00000   0.83755   0.00000  Uiso   1.00
O776   O     0.78037   0.00000   0.16245   0.00000  Uiso   1.00
O777   O     0.70725   0.07307   0.27302   0.00000  Uiso   1.00
O778   O     0.79276   0.42693   0.72698   0.00000  Uiso   1.00
O779   O     0.92693   0.20724   0.27302   0.00000  Uiso   1.00
O780   O     0.57308   0.29276   0.72698   0.00000  Uiso   1.00
O781   O     0.79276   0.42693   0.27302   0.00000  Uiso   1.00
O782   O     0.70725   0.07307   0.72698   0.00000  Uiso   1.00
O783   O     0.57308   0.29276   0.27302   0.00000  Uiso   1.00
O784   O     0.92693   0.20724   0.72698   0.00000  Uiso   1.00
O785   O     0.70725   0.42693   0.72698   0.00000  Uiso   1.00
O786   O     0.79276   0.07307   0.27302   0.00000  Uiso   1.00
O787   O     0.92693   0.29275   0.72698   0.00000  Uiso   1.00
O788   O     0.57308   0.20725   0.27302   0.00000  Uiso   1.00
O789   O     0.79276   0.07307   0.72698   0.00000  Uiso   1.00
O790   O     0.70725   0.42693   0.27302   0.00000  Uiso   1.00
O791   O     0.57308   0.20725   0.72698   0.00000  Uiso   1.00
O792   O     0.92693   0.29275   0.27302   0.00000  Uiso   1.00
O793   O     0.95725   0.32307   0.77302   0.00000  Uiso   1.00
O794   O     0.54276   0.17693   0.22698   0.00000  Uiso   1.00
O795   O     0.67693   0.45725   0.77302   0.00000  Uiso   1.00
O796   O     0.82308   0.04275   0.22698   0.00000  Uiso   1.00
O797   O     0.54276   0.17693   0.77302   0.00000  Uiso   1.00
O798   O     0.95725   0.32307   0.22698   0.00000  Uiso   1.00
O799   O     0.82308   0.04275   0.77302   0.00000  Uiso   1.00
O800   O     0.67693   0.45725   0.22698   0.00000  Uiso   1.00
O801   O     0.95725   0.17692   0.22698   0.00000  Uiso   1.00
O802   O     0.54276   0.32308   0.77302   0.00000  Uiso   1.00
O803   O     0.67693   0.04275   0.22698   0.00000  Uiso   1.00
O804   O     0.82308   0.45725   0.77302   0.00000  Uiso   1.00
O805   O     0.54276   0.32308   0.22698   0.00000  Uiso   1.00
O806   O     0.95725   0.17692   0.77302   0.00000  Uiso   1.00
O807   O     0.82308   0.45725   0.22698   0.00000  Uiso   1.00
O808   O     0.67693   0.04275   0.77302   0.00000  Uiso   1.00
Zn809  Zn    0.70660   0.00000   0.21735   0.00000  Uiso   1.00
Zn810  Zn    0.79341  -0.00000   0.78265   0.00000  Uiso   1.00
Zn811  Zn    0.50000   0.20659   0.21735   0.00000  Uiso   1.00
Zn812  Zn    0.50000   0.29340   0.78265   0.00000  Uiso   1.00
Zn813  Zn    0.79341   0.00000   0.21735   0.00000  Uiso   1.00
Zn814  Zn    0.70660  -0.00000   0.78265   0.00000  Uiso   1.00
Zn815  Zn    0.50000   0.29340   0.21735   0.00000  Uiso   1.00
Zn816  Zn    0.50000   0.20660   0.78265   0.00000  Uiso   1.00
Zn817  Zn    0.95660   0.25000   0.71735   0.00000  Uiso   1.00
Zn818  Zn    0.54341   0.25000   0.28265   0.00000  Uiso   1.00
Zn819  Zn    0.75000   0.45660   0.71735   0.00000  Uiso   1.00
Zn820  Zn    0.75000   0.04340   0.28265   0.00000  Uiso   1.00
Zn821  Zn    0.54341   0.25000   0.71735   0.00000  Uiso   1.00
Zn822  Zn    0.95660   0.25000   0.28265   0.00000  Uiso   1.00
Zn823  Zn    0.75000   0.04340   0.71735   0.00000  Uiso   1.00
Zn824  Zn    0.75000   0.45660   0.28265   0.00000  Uiso   1.00
O825   O     0.63931   0.41373   0.18156   0.00000  Uiso   1.00
C826   C     0.61270   0.44050   0.17385   0.00000  Uiso   1.00
H827   H     0.60972   0.45946   0.19896   0.00000  Uiso   1.00
H828   H     0.58586   0.42791   0.16743   0.00000  Uiso   1.00
C829   C     0.62485   0.46205   0.13819   0.00000  Uiso   1.00
H830   H     0.65196   0.47419   0.14412   0.00000  Uiso   1.00
H831   H     0.62733   0.44343   0.11285   0.00000  Uiso   1.00
C832   C     0.59815   0.49236   0.12831   0.00000  Uiso   1.00
H833   H     0.59735   0.01227   0.15246   0.00000  Uiso   1.00
H834   H     0.57043   0.48114   0.12333   0.00000  Uiso   1.00
H835   H     0.60729   0.00656   0.10154   0.00000  Uiso   1.00
O836   O     0.86470   0.08277   0.81658   0.00000  Uiso   1.00
C837   C     0.83972   0.10070   0.84119   0.00000  Uiso   1.00
H838   H     0.81262   0.10303   0.82675   0.00000  Uiso   1.00
H839   H     0.84970   0.12837   0.84907   0.00000  Uiso   1.00
C840   C     0.83549   0.07848   0.87841   0.00000  Uiso   1.00
H841   H     0.82817   0.05014   0.87064   0.00000  Uiso   1.00
H842   H     0.86186   0.07799   0.89430   0.00000  Uiso   1.00
C843   C     0.80606   0.09420   0.90485   0.00000  Uiso   1.00
H844   H     0.81262   0.12278   0.91260   0.00000  Uiso   1.00
H845   H     0.80446   0.07794   0.93201   0.00000  Uiso   1.00
H846   H     0.77914   0.09323   0.89013   0.00000  Uiso   1.00
O847   O     0.57742   0.12899   0.18680   0.00000  Uiso   1.00
C848   C     0.54554   0.10785   0.19294   0.00000  Uiso   1.00
H849   H     0.52287   0.12157   0.17731   0.00000  Uiso   1.00
H850   H     0.53715   0.10618   0.22412   0.00000  Uiso   1.00
C851   C     0.54993   0.06950   0.17637   0.00000  Uiso   1.00
H852   H     0.56136   0.07110   0.14648   0.00000  Uiso   1.00
H853   H     0.56892   0.05391   0.19515   0.00000  Uiso   1.00
C854   C     0.51355   0.04941   0.17503   0.00000  Uiso   1.00
H855   H     0.50159   0.04750   0.20464   0.00000  Uiso   1.00
H856   H     0.51781   0.02147   0.16366   0.00000  Uiso   1.00
H857   H     0.99415   0.06378   0.15556   0.00000  Uiso   1.00
O858   O     0.91672   0.36395   0.81673   0.00000  Uiso   1.00
C859   C     0.89811   0.33919   0.84101   0.00000  Uiso   1.00
H860   H     0.89479   0.31246   0.82613   0.00000  Uiso   1.00
H861   H     0.87079   0.34995   0.84927   0.00000  Uiso   1.00
C862   C     0.92046   0.33361   0.87798   0.00000  Uiso   1.00
H863   H     0.94840   0.32506   0.86983   0.00000  Uiso   1.00
H864   H     0.92231   0.35973   0.89413   0.00000  Uiso   1.00
C865   C     0.90361   0.30473   0.90427   0.00000  Uiso   1.00
H866   H     0.87546   0.31262   0.91258   0.00000  Uiso   1.00
H867   H     0.92019   0.30195   0.93112   0.00000  Uiso   1.00
H868   H     0.90301   0.27803   0.88917   0.00000  Uiso   1.00
O869   O     0.86652   0.08085   0.18463   0.00000  Uiso   1.00
C870   C     0.89426   0.05418   0.18373   0.00000  Uiso   1.00
H871   H     0.89676   0.03999   0.21232   0.00000  Uiso   1.00
H872   H     0.92090   0.06681   0.17626   0.00000  Uiso   1.00
C873   C     0.88490   0.02590   0.15274   0.00000  Uiso   1.00
H874   H     0.85814   0.01332   0.15963   0.00000  Uiso   1.00
H875   H     0.88285   0.03935   0.12387   0.00000  Uiso   1.00
C876   C     0.91377   0.49612   0.15087   0.00000  Uiso   1.00
H877   H     0.91613   0.48242   0.17954   0.00000  Uiso   1.00
H878   H     0.94061   0.00782   0.14276   0.00000  Uiso   1.00
H879   H     0.90593   0.47561   0.12871   0.00000  Uiso   1.00
O880   O     0.63383   0.41859   0.81546   0.00000  Uiso   1.00
C881   C     0.65732   0.40008   0.84120   0.00000  Uiso   1.00
H882   H     0.68474   0.39654   0.82777   0.00000  Uiso   1.00
H883   H     0.64604   0.37293   0.84914   0.00000  Uiso   1.00
C884   C     0.66121   0.42270   0.87818   0.00000  Uiso   1.00
H885   H     0.67007   0.45055   0.87020   0.00000  Uiso   1.00
H886   H     0.63433   0.42463   0.89293   0.00000  Uiso   1.00
C887   C     0.68893   0.40616   0.90610   0.00000  Uiso   1.00
H888   H     0.68078   0.37805   0.91411   0.00000  Uiso   1.00
H889   H     0.69032   0.42282   0.93298   0.00000  Uiso   1.00
H890   H     0.71637   0.40563   0.89248   0.00000  Uiso   1.00
O891   O     0.91895   0.36592   0.18434   0.00000  Uiso   1.00
C892   C     0.94634   0.39294   0.18311   0.00000  Uiso   1.00
H893   H     0.96055   0.39557   0.21169   0.00000  Uiso   1.00
H894   H     0.93427   0.41961   0.17514   0.00000  Uiso   1.00
C895   C     0.97451   0.38260   0.15229   0.00000  Uiso   1.00
H896   H     0.98645   0.35567   0.15951   0.00000  Uiso   1.00
H897   H     0.96101   0.38055   0.12343   0.00000  Uiso   1.00
C898   C     0.50509   0.41063   0.15005   0.00000  Uiso   1.00
H899   H     0.99398   0.43773   0.14208   0.00000  Uiso   1.00
H900   H     0.52515   0.40225   0.12760   0.00000  Uiso   1.00
H901   H     0.51929   0.41264   0.17850   0.00000  Uiso   1.00
O902   O     0.58448   0.13762   0.81769   0.00000  Uiso   1.00
C903   C     0.60221   0.16380   0.84097   0.00000  Uiso   1.00
H904   H     0.60349   0.19042   0.82552   0.00000  Uiso   1.00
H905   H     0.63034   0.15489   0.84859   0.00000  Uiso   1.00
C906   C     0.58051   0.16856   0.87850   0.00000  Uiso   1.00
H907   H     0.55178   0.17483   0.87109   0.00000  Uiso   1.00
H908   H     0.58104   0.14273   0.89530   0.00000  Uiso   1.00
C909   C     0.59586   0.19917   0.90356   0.00000  Uiso   1.00
H910   H     0.62476   0.19359   0.91106   0.00000  Uiso   1.00
H911   H     0.57991   0.20126   0.93091   0.00000  Uiso   1.00
H912   H     0.59400   0.22551   0.88787   0.00000  Uiso   1.00
O913   O     0.63915   0.08617   0.81839   0.00000  Uiso   1.00
C914   C     0.61264   0.05924   0.82586   0.00000  Uiso   1.00
H915   H     0.61025   0.04007   0.80087   0.00000  Uiso   1.00
H916   H     0.58557   0.07161   0.83165   0.00000  Uiso   1.00
C917   C     0.62440   0.03811   0.86195   0.00000  Uiso   1.00
H918   H     0.65201   0.02677   0.85694   0.00000  Uiso   1.00
H919   H     0.62562   0.05684   0.88730   0.00000  Uiso   1.00
C920   C     0.59836   0.00703   0.87105   0.00000  Uiso   1.00
H921   H     0.59907   0.48692   0.84709   0.00000  Uiso   1.00
H922   H     0.57015   0.01738   0.87482   0.00000  Uiso   1.00
H923   H     0.60700   0.49332   0.89830   0.00000  Uiso   1.00
O924   O     0.86473   0.41726   0.18343   0.00000  Uiso   1.00
C925   C     0.83976   0.39934   0.15880   0.00000  Uiso   1.00
H926   H     0.81266   0.39700   0.17322   0.00000  Uiso   1.00
H927   H     0.84975   0.37167   0.15091   0.00000  Uiso   1.00
C928   C     0.83556   0.42157   0.12159   0.00000  Uiso   1.00
H929   H     0.82821   0.44990   0.12937   0.00000  Uiso   1.00
H930   H     0.86194   0.42209   0.10573   0.00000  Uiso   1.00
C931   C     0.80616   0.40585   0.09511   0.00000  Uiso   1.00
H932   H     0.81276   0.37728   0.08734   0.00000  Uiso   1.00
H933   H     0.80456   0.42213   0.06797   0.00000  Uiso   1.00
H934   H     0.77923   0.40677   0.10980   0.00000  Uiso   1.00
O935   O     0.57733   0.37111   0.81313   0.00000  Uiso   1.00
C936   C     0.54547   0.39225   0.80689   0.00000  Uiso   1.00
H937   H     0.52277   0.37856   0.82250   0.00000  Uiso   1.00
H938   H     0.53713   0.39386   0.77569   0.00000  Uiso   1.00
C939   C     0.54983   0.43063   0.82339   0.00000  Uiso   1.00
H940   H     0.56119   0.42909   0.85331   0.00000  Uiso   1.00
H941   H     0.56888   0.44619   0.80463   0.00000  Uiso   1.00
C942   C     0.51345   0.45073   0.82458   0.00000  Uiso   1.00
H943   H     0.50156   0.45256   0.79494   0.00000  Uiso   1.00
H944   H     0.51769   0.47870   0.83587   0.00000  Uiso   1.00
H945   H     0.99402   0.43641   0.84405   0.00000  Uiso   1.00
O946   O     0.91672   0.13605   0.18327   0.00000  Uiso   1.00
C947   C     0.89810   0.16081   0.15899   0.00000  Uiso   1.00
H948   H     0.89477   0.18754   0.17386   0.00000  Uiso   1.00
H949   H     0.87078   0.15003   0.15073   0.00000  Uiso   1.00
C950   C     0.92044   0.16639   0.12202   0.00000  Uiso   1.00
H951   H     0.94838   0.17497   0.13017   0.00000  Uiso   1.00
H952   H     0.92232   0.14028   0.10587   0.00000  Uiso   1.00
C953   C     0.90358   0.19526   0.09573   0.00000  Uiso   1.00
H954   H     0.87544   0.18736   0.08741   0.00000  Uiso   1.00
H955   H     0.92016   0.19805   0.06888   0.00000  Uiso   1.00
H956   H     0.90296   0.22196   0.11083   0.00000  Uiso   1.00
O957   O     0.86651   0.41914   0.81537   0.00000  Uiso   1.00
C958   C     0.89425   0.44582   0.81628   0.00000  Uiso   1.00
H959   H     0.89675   0.46000   0.78768   0.00000  Uiso   1.00
H960   H     0.92089   0.43320   0.82376   0.00000  Uiso   1.00
C961   C     0.88487   0.47411   0.84726   0.00000  Uiso   1.00
H962   H     0.85810   0.48667   0.84037   0.00000  Uiso   1.00
H963   H     0.88281   0.46066   0.87614   0.00000  Uiso   1.00
C964   C     0.91373   0.00390   0.84913   0.00000  Uiso   1.00
H965   H     0.91610   0.01759   0.82045   0.00000  Uiso   1.00
H966   H     0.94057   0.49221   0.85725   0.00000  Uiso   1.00
H967   H     0.90587   0.02441   0.87128   0.00000  Uiso   1.00
O968   O     0.63384   0.08140   0.18453   0.00000  Uiso   1.00
C969   C     0.65737   0.09986   0.15879   0.00000  Uiso   1.00
H970   H     0.68479   0.10335   0.17222   0.00000  Uiso   1.00
H971   H     0.64614   0.12702   0.15083   0.00000  Uiso   1.00
C972   C     0.66121   0.07721   0.12182   0.00000  Uiso   1.00
H973   H     0.67002   0.04934   0.12981   0.00000  Uiso   1.00
H974   H     0.63433   0.07532   0.10707   0.00000  Uiso   1.00
C975   C     0.68897   0.09369   0.09389   0.00000  Uiso   1.00
H976   H     0.68088   0.12180   0.08586   0.00000  Uiso   1.00
H977   H     0.69033   0.07701   0.06701   0.00000  Uiso   1.00
H978   H     0.71641   0.09416   0.10751   0.00000  Uiso   1.00
O979   O     0.91893   0.13409   0.81567   0.00000  Uiso   1.00
C980   C     0.94630   0.10705   0.81691   0.00000  Uiso   1.00
H981   H     0.96052   0.10441   0.78834   0.00000  Uiso   1.00
H982   H     0.93422   0.08040   0.82489   0.00000  Uiso   1.00
C983   C     0.97448   0.11739   0.84774   0.00000  Uiso   1.00
H984   H     0.98645   0.14430   0.84050   0.00000  Uiso   1.00
H985   H     0.96097   0.11946   0.87659   0.00000  Uiso   1.00
C986   C     0.50502   0.08931   0.84999   0.00000  Uiso   1.00
H987   H     0.99388   0.06224   0.85799   0.00000  Uiso   1.00
H988   H     0.52510   0.09769   0.87243   0.00000  Uiso   1.00
H989   H     0.51921   0.08727   0.82154   0.00000  Uiso   1.00
O990   O     0.58461   0.36224   0.18225   0.00000  Uiso   1.00
C991   C     0.60238   0.33602   0.15906   0.00000  Uiso   1.00
H992   H     0.60371   0.30945   0.17459   0.00000  Uiso   1.00
H993   H     0.63050   0.34496   0.15140   0.00000  Uiso   1.00
C994   C     0.58068   0.33112   0.12154   0.00000  Uiso   1.00
H995   H     0.55197   0.32481   0.12898   0.00000  Uiso   1.00
H996   H     0.58115   0.35690   0.10467   0.00000  Uiso   1.00
C997   C     0.59609   0.30047   0.09657   0.00000  Uiso   1.00
H998   H     0.62497   0.30610   0.08903   0.00000  Uiso   1.00
H999   H     0.58012   0.29827   0.06924   0.00000  Uiso   1.00
H1000  H     0.59430   0.27417   0.11235   0.00000  Uiso   1.00
O1001  O     0.88349   0.16914   0.68462   0.00000  Uiso   1.00
C1002  C     0.85576   0.19582   0.68372   0.00000  Uiso   1.00
H1003  H     0.85325   0.21000   0.71231   0.00000  Uiso   1.00
H1004  H     0.82912   0.18319   0.67623   0.00000  Uiso   1.00
C1005  C     0.86513   0.22410   0.65273   0.00000  Uiso   1.00
H1006  H     0.89190   0.23667   0.65963   0.00000  Uiso   1.00
H1007  H     0.86719   0.21065   0.62386   0.00000  Uiso   1.00
C1008  C     0.83627   0.25389   0.65086   0.00000  Uiso   1.00
H1009  H     0.83390   0.26758   0.67954   0.00000  Uiso   1.00
H1010  H     0.80943   0.24219   0.64274   0.00000  Uiso   1.00
H1011  H     0.84413   0.27440   0.62870   0.00000  Uiso   1.00
O1012  O     0.61613   0.33145   0.31548   0.00000  Uiso   1.00
C1013  C     0.59259   0.34994   0.34119   0.00000  Uiso   1.00
H1014  H     0.56519   0.35346   0.32772   0.00000  Uiso   1.00
H1015  H     0.60385   0.37709   0.34915   0.00000  Uiso   1.00
C1016  C     0.58867   0.32731   0.37816   0.00000  Uiso   1.00
H1017  H     0.57984   0.29945   0.37017   0.00000  Uiso   1.00
H1018  H     0.61553   0.32539   0.39295   0.00000  Uiso   1.00
C1019  C     0.56091   0.34384   0.40605   0.00000  Uiso   1.00
H1020  H     0.56903   0.37194   0.41408   0.00000  Uiso   1.00
H1021  H     0.55949   0.32717   0.43293   0.00000  Uiso   1.00
H1022  H     0.53349   0.34435   0.39239   0.00000  Uiso   1.00
O1023  O     0.83106   0.38409   0.68433   0.00000  Uiso   1.00
C1024  C     0.80369   0.35705   0.68310   0.00000  Uiso   1.00
H1025  H     0.78947   0.35441   0.71167   0.00000  Uiso   1.00
H1026  H     0.81577   0.33040   0.67513   0.00000  Uiso   1.00
C1027  C     0.77552   0.36738   0.65227   0.00000  Uiso   1.00
H1028  H     0.76355   0.39430   0.65950   0.00000  Uiso   1.00
H1029  H     0.78902   0.36945   0.62342   0.00000  Uiso   1.00
C1030  C     0.74497   0.33931   0.65002   0.00000  Uiso   1.00
H1031  H     0.75611   0.31224   0.64202   0.00000  Uiso   1.00
H1032  H     0.72489   0.34769   0.62758   0.00000  Uiso   1.00
H1033  H     0.73078   0.33727   0.67847   0.00000  Uiso   1.00
O1034  O     0.66545   0.11231   0.31772   0.00000  Uiso   1.00
C1035  C     0.64771   0.08610   0.34095   0.00000  Uiso   1.00
H1036  H     0.64640   0.05951   0.32546   0.00000  Uiso   1.00
H1037  H     0.61958   0.09503   0.34859   0.00000  Uiso   1.00
C1038  C     0.66940   0.08127   0.37847   0.00000  Uiso   1.00
H1039  H     0.69812   0.07498   0.37105   0.00000  Uiso   1.00
H1040  H     0.66890   0.10707   0.39531   0.00000  Uiso   1.00
C1041  C     0.65402   0.05064   0.40349   0.00000  Uiso   1.00
H1042  H     0.62513   0.05624   0.41100   0.00000  Uiso   1.00
H1043  H     0.66998   0.04849   0.43082   0.00000  Uiso   1.00
H1044  H     0.65584   0.02433   0.38775   0.00000  Uiso   1.00
O1045  O     0.61084   0.33618   0.68160   0.00000  Uiso   1.00
C1046  C     0.63736   0.30927   0.67412   0.00000  Uiso   1.00
H1047  H     0.63980   0.29011   0.69912   0.00000  Uiso   1.00
H1048  H     0.66441   0.32165   0.66827   0.00000  Uiso   1.00
C1049  C     0.62557   0.28810   0.63806   0.00000  Uiso   1.00
H1050  H     0.59801   0.27667   0.64315   0.00000  Uiso   1.00
H1051  H     0.62424   0.30682   0.61271   0.00000  Uiso   1.00
C1052  C     0.65168   0.25709   0.62890   0.00000  Uiso   1.00
H1053  H     0.65110   0.23699   0.65288   0.00000  Uiso   1.00
H1054  H     0.67985   0.26752   0.62503   0.00000  Uiso   1.00
H1055  H     0.64300   0.24334   0.60168   0.00000  Uiso   1.00
O1056  O     0.88528   0.16725   0.31657   0.00000  Uiso   1.00
C1057  C     0.91025   0.14932   0.34120   0.00000  Uiso   1.00
H1058  H     0.93734   0.14698   0.32678   0.00000  Uiso   1.00
H1059  H     0.90026   0.12166   0.34909   0.00000  Uiso   1.00
C1060  C     0.91447   0.17155   0.37841   0.00000  Uiso   1.00
H1061  H     0.92182   0.19988   0.37063   0.00000  Uiso   1.00
H1062  H     0.88809   0.17207   0.39427   0.00000  Uiso   1.00
C1063  C     0.94386   0.15582   0.40489   0.00000  Uiso   1.00
H1064  H     0.93726   0.12726   0.41266   0.00000  Uiso   1.00
H1065  H     0.94547   0.17210   0.43203   0.00000  Uiso   1.00
H1066  H     0.97080   0.15675   0.39018   0.00000  Uiso   1.00
O1067  O     0.67268   0.12112   0.68687   0.00000  Uiso   1.00
C1068  C     0.70453   0.14225   0.69311   0.00000  Uiso   1.00
H1069  H     0.72723   0.12856   0.67750   0.00000  Uiso   1.00
H1070  H     0.71287   0.14386   0.72431   0.00000  Uiso   1.00
C1071  C     0.70017   0.18063   0.67662   0.00000  Uiso   1.00
H1072  H     0.68882   0.17909   0.64669   0.00000  Uiso   1.00
H1073  H     0.68113   0.19619   0.69538   0.00000  Uiso   1.00
C1074  C     0.73656   0.20073   0.67542   0.00000  Uiso   1.00
H1075  H     0.74845   0.20256   0.70506   0.00000  Uiso   1.00
H1076  H     0.73232   0.22870   0.66412   0.00000  Uiso   1.00
H1077  H     0.75599   0.18641   0.65595   0.00000  Uiso   1.00
O1078  O     0.83328   0.38605   0.31673   0.00000  Uiso   1.00
C1079  C     0.85189   0.41080   0.34101   0.00000  Uiso   1.00
H1080  H     0.85522   0.43754   0.32614   0.00000  Uiso   1.00
H1081  H     0.87921   0.40003   0.34927   0.00000  Uiso   1.00
C1082  C     0.82955   0.41638   0.37798   0.00000  Uiso   1.00
H1083  H     0.80161   0.42495   0.36983   0.00000  Uiso   1.00
H1084  H     0.82768   0.39026   0.39412   0.00000  Uiso   1.00
C1085  C     0.84640   0.44525   0.40428   0.00000  Uiso   1.00
H1086  H     0.87455   0.43735   0.41259   0.00000  Uiso   1.00
H1087  H     0.82982   0.44803   0.43113   0.00000  Uiso   1.00
H1088  H     0.84702   0.47195   0.38918   0.00000  Uiso   1.00
O1089  O     0.88348   0.33085   0.31537   0.00000  Uiso   1.00
C1090  C     0.85574   0.30418   0.31626   0.00000  Uiso   1.00
H1091  H     0.85324   0.28999   0.28767   0.00000  Uiso   1.00
H1092  H     0.82910   0.31680   0.32374   0.00000  Uiso   1.00
C1093  C     0.86510   0.27589   0.34726   0.00000  Uiso   1.00
H1094  H     0.89187   0.26332   0.34037   0.00000  Uiso   1.00
H1095  H     0.86715   0.28934   0.37613   0.00000  Uiso   1.00
C1096  C     0.83623   0.24611   0.34911   0.00000  Uiso   1.00
H1097  H     0.83387   0.23241   0.32044   0.00000  Uiso   1.00
H1098  H     0.80939   0.25781   0.35723   0.00000  Uiso   1.00
H1099  H     0.84408   0.22560   0.37128   0.00000  Uiso   1.00
O1100  O     0.61619   0.16860   0.68454   0.00000  Uiso   1.00
C1101  C     0.59269   0.15011   0.65880   0.00000  Uiso   1.00
H1102  H     0.56527   0.14659   0.67222   0.00000  Uiso   1.00
H1103  H     0.60396   0.12296   0.65085   0.00000  Uiso   1.00
C1104  C     0.58882   0.17274   0.62182   0.00000  Uiso   1.00
H1105  H     0.57997   0.20060   0.62980   0.00000  Uiso   1.00
H1106  H     0.61570   0.17467   0.60707   0.00000  Uiso   1.00
C1107  C     0.56110   0.15622   0.59389   0.00000  Uiso   1.00
H1108  H     0.56923   0.12811   0.58587   0.00000  Uiso   1.00
H1109  H     0.55972   0.17289   0.56701   0.00000  Uiso   1.00
H1110  H     0.53366   0.15571   0.60751   0.00000  Uiso   1.00
O1111  O     0.83105   0.11592   0.31567   0.00000  Uiso   1.00
C1112  C     0.80367   0.14294   0.31690   0.00000  Uiso   1.00
H1113  H     0.78946   0.14557   0.28832   0.00000  Uiso   1.00
H1114  H     0.81575   0.16960   0.32486   0.00000  Uiso   1.00
C1115  C     0.77550   0.13261   0.34772   0.00000  Uiso   1.00
H1116  H     0.76355   0.10568   0.34050   0.00000  Uiso   1.00
H1117  H     0.78901   0.13055   0.37658   0.00000  Uiso   1.00
C1118  C     0.74494   0.16066   0.34997   0.00000  Uiso   1.00
H1119  H     0.75606   0.18774   0.35794   0.00000  Uiso   1.00
H1120  H     0.72487   0.15228   0.37241   0.00000  Uiso   1.00
H1121  H     0.73074   0.16267   0.32152   0.00000  Uiso   1.00
O1122  O     0.66551   0.38763   0.68230   0.00000  Uiso   1.00
C1123  C     0.64778   0.41382   0.65903   0.00000  Uiso   1.00
H1124  H     0.64649   0.44043   0.67449   0.00000  Uiso   1.00
H1125  H     0.61964   0.40491   0.65140   0.00000  Uiso   1.00
C1126  C     0.66947   0.41859   0.62150   0.00000  Uiso   1.00
H1127  H     0.69820   0.42487   0.62891   0.00000  Uiso   1.00
H1128  H     0.66895   0.39277   0.60470   0.00000  Uiso   1.00
C1129  C     0.65411   0.44920   0.59645   0.00000  Uiso   1.00
H1130  H     0.62522   0.44362   0.58894   0.00000  Uiso   1.00
H1131  H     0.67007   0.45131   0.56910   0.00000  Uiso   1.00
H1132  H     0.65596   0.47554   0.61215   0.00000  Uiso   1.00
O1133  O     0.61076   0.16377   0.31841   0.00000  Uiso   1.00
C1134  C     0.63731   0.19063   0.32601   0.00000  Uiso   1.00
H1135  H     0.64000   0.20969   0.30096   0.00000  Uiso   1.00
H1136  H     0.66427   0.17816   0.33213   0.00000  Uiso   1.00
C1137  C     0.62533   0.21197   0.36187   0.00000  Uiso   1.00
H1138  H     0.59796   0.22368   0.35640   0.00000  Uiso   1.00
H1139  H     0.62350   0.19330   0.38723   0.00000  Uiso   1.00
C1140  C     0.65167   0.24270   0.37134   0.00000  Uiso   1.00
H1141  H     0.65168   0.26271   0.34728   0.00000  Uiso   1.00
H1142  H     0.67965   0.23196   0.37571   0.00000  Uiso   1.00
H1143  H     0.64277   0.25665   0.39836   0.00000  Uiso   1.00
O1144  O     0.88529   0.33276   0.68342   0.00000  Uiso   1.00
C1145  C     0.91028   0.35069   0.65881   0.00000  Uiso   1.00
H1146  H     0.93737   0.35300   0.67324   0.00000  Uiso   1.00
H1147  H     0.90030   0.37836   0.65093   0.00000  Uiso   1.00
C1148  C     0.91448   0.32847   0.62159   0.00000  Uiso   1.00
H1149  H     0.92179   0.30012   0.62936   0.00000  Uiso   1.00
H1150  H     0.88811   0.32799   0.60571   0.00000  Uiso   1.00
C1151  C     0.94391   0.34417   0.59514   0.00000  Uiso   1.00
H1152  H     0.93736   0.37276   0.58740   0.00000  Uiso   1.00
H1153  H     0.94550   0.32792   0.56798   0.00000  Uiso   1.00
H1154  H     0.97084   0.34319   0.60985   0.00000  Uiso   1.00
O1155  O     0.67259   0.37898   0.31320   0.00000  Uiso   1.00
C1156  C     0.70446   0.35784   0.30705   0.00000  Uiso   1.00
H1157  H     0.72712   0.37155   0.32270   0.00000  Uiso   1.00
H1158  H     0.71286   0.35620   0.27587   0.00000  Uiso   1.00
C1159  C     0.70007   0.31948   0.32359   0.00000  Uiso   1.00
H1160  H     0.68865   0.32104   0.35348   0.00000  Uiso   1.00
H1161  H     0.68107   0.30390   0.30479   0.00000  Uiso   1.00
C1162  C     0.73645   0.29938   0.32490   0.00000  Uiso   1.00
H1163  H     0.74841   0.29751   0.29529   0.00000  Uiso   1.00
H1164  H     0.73219   0.27143   0.33623   0.00000  Uiso   1.00
H1165  H     0.75585   0.31373   0.34439   0.00000  Uiso   1.00
O1166  O     0.83329   0.11394   0.68326   0.00000  Uiso   1.00
C1167  C     0.85190   0.08918   0.65899   0.00000  Uiso   1.00
H1168  H     0.85522   0.06245   0.67387   0.00000  Uiso   1.00
H1169  H     0.87922   0.09995   0.65074   0.00000  Uiso   1.00
C1170  C     0.82956   0.08360   0.62203   0.00000  Uiso   1.00
H1171  H     0.80162   0.07504   0.63017   0.00000  Uiso   1.00
H1172  H     0.82770   0.10971   0.60587   0.00000  Uiso   1.00
C1173  C     0.84641   0.05471   0.59574   0.00000  Uiso   1.00
H1174  H     0.87456   0.06261   0.58743   0.00000  Uiso   1.00
H1175  H     0.82984   0.05193   0.56889   0.00000  Uiso   1.00
H1176  H     0.84702   0.02802   0.61084   0.00000  Uiso   1.00
C1177  C     0.03292   0.74911   0.41886   0.00000  Uiso   1.00
C1178  C     0.46675   0.74848   0.58123   0.00000  Uiso   1.00
C1179  C     0.25152   0.53304   0.41878   0.00000  Uiso   1.00
C1180  C     0.25154   0.96696   0.58122   0.00000  Uiso   1.00
C1181  C     0.46675   0.75152   0.41877   0.00000  Uiso   1.00
C1182  C     0.03292   0.75086   0.58114   0.00000  Uiso   1.00
C1183  C     0.24887   0.96698   0.41879   0.00000  Uiso   1.00
C1184  C     0.24886   0.53302   0.58121   0.00000  Uiso   1.00
C1185  C     0.28325   0.99850   0.91877   0.00000  Uiso   1.00
C1186  C     0.21708   0.99903   0.08115   0.00000  Uiso   1.00
C1187  C     0.00115   0.78302   0.91879   0.00000  Uiso   1.00
C1188  C     0.00113   0.71698   0.08121   0.00000  Uiso   1.00
C1189  C     0.21708   0.50081   0.91886   0.00000  Uiso   1.00
C1190  C     0.28324   0.50153   0.08124   0.00000  Uiso   1.00
C1191  C     0.49845   0.71696   0.91878   0.00000  Uiso   1.00
C1192  C     0.49850   0.78304   0.08122   0.00000  Uiso   1.00
C1193  C     0.49988   0.75025   0.39846   0.00000  Uiso   1.00
C1194  C     0.49988   0.74974   0.60154   0.00000  Uiso   1.00
C1195  C     0.25013   0.50001   0.39843   0.00000  Uiso   1.00
C1196  C     0.25014   0.99999   0.60157   0.00000  Uiso   1.00
C1197  C     0.25012   0.99973   0.89846   0.00000  Uiso   1.00
C1198  C     0.25012   0.50022   0.10155   0.00000  Uiso   1.00
C1199  C     0.49986   0.74999   0.89843   0.00000  Uiso   1.00
C1200  C     0.49987   0.75001   0.10157   0.00000  Uiso   1.00
C1201  C     0.43343   0.75052   0.47973   0.00000  Uiso   1.00
C1202  C     0.06620   0.75028   0.52026   0.00000  Uiso   1.00
C1203  C     0.24984   0.93375   0.47974   0.00000  Uiso   1.00
C1204  C     0.24982   0.56625   0.52026   0.00000  Uiso   1.00
C1205  C     0.06620   0.74966   0.47973   0.00000  Uiso   1.00
C1206  C     0.43342   0.74950   0.52028   0.00000  Uiso   1.00
C1207  C     0.25072   0.56626   0.47972   0.00000  Uiso   1.00
C1208  C     0.25075   0.93374   0.52028   0.00000  Uiso   1.00
C1209  C     0.18379   0.50018   0.97974   0.00000  Uiso   1.00
C1210  C     0.31657   0.50056   0.02028   0.00000  Uiso   1.00
C1211  C     0.49924   0.68374   0.97973   0.00000  Uiso   1.00
C1212  C     0.49931   0.81626   0.02027   0.00000  Uiso   1.00
C1213  C     0.31657   0.99954   0.97973   0.00000  Uiso   1.00
C1214  C     0.18379   0.99954   0.02027   0.00000  Uiso   1.00
C1215  C     0.00021   0.81625   0.97973   0.00000  Uiso   1.00
C1216  C     0.00014   0.68375   0.02027   0.00000  Uiso   1.00
C1217  C     0.25003   0.50000   0.35595   0.00000  Uiso   1.00
C1218  C     0.25003   0.50000   0.64405   0.00000  Uiso   1.00
C1219  C     0.49998   0.75008   0.35597   0.00000  Uiso   1.00
C1220  C     0.49998   0.74992   0.64403   0.00000  Uiso   1.00
C1221  C     0.49997   0.75000   0.85595   0.00000  Uiso   1.00
C1222  C     0.49998   0.75000   0.14405   0.00000  Uiso   1.00
C1223  C     0.25002   0.99992   0.85597   0.00000  Uiso   1.00
C1224  C     0.25002   0.50007   0.14403   0.00000  Uiso   1.00
C1225  C     0.17993   0.56996   0.25003   0.00000  Uiso   1.00
C1226  C     0.32007   0.92998   0.74998   0.00000  Uiso   1.00
C1227  C     0.42995   0.68002   0.25001   0.00000  Uiso   1.00
C1228  C     0.06965   0.82045   0.74958   0.00000  Uiso   1.00
C1229  C     0.32005   0.93002   0.25000   0.00000  Uiso   1.00
C1230  C     0.18035   0.57045   0.75042   0.00000  Uiso   1.00
C1231  C     0.07007   0.81996   0.24997   0.00000  Uiso   1.00
C1232  C     0.42993   0.67998   0.75002   0.00000  Uiso   1.00
C1233  C     0.17993   0.93003   0.74997   0.00000  Uiso   1.00
C1234  C     0.32007   0.57002   0.25002   0.00000  Uiso   1.00
C1235  C     0.42995   0.81998   0.75000   0.00000  Uiso   1.00
C1236  C     0.06966   0.67955   0.25042   0.00000  Uiso   1.00
C1237  C     0.32005   0.56998   0.75001   0.00000  Uiso   1.00
C1238  C     0.18035   0.92955   0.24958   0.00000  Uiso   1.00
C1239  C     0.07007   0.68003   0.75003   0.00000  Uiso   1.00
C1240  C     0.42993   0.82002   0.24998   0.00000  Uiso   1.00
C1241  C     0.13106   0.89571   0.21581   0.00000  Uiso   1.00
C1242  C     0.36970   0.60348   0.78344   0.00000  Uiso   1.00
C1243  C     0.10016   0.62665   0.21892   0.00000  Uiso   1.00
C1244  C     0.39633   0.86940   0.78341   0.00000  Uiso   1.00
C1245  C     0.37110   0.60227   0.21741   0.00000  Uiso   1.00
C1246  C     0.12911   0.89768   0.78242   0.00000  Uiso   1.00
C1247  C     0.39783   0.87101   0.21731   0.00000  Uiso   1.00
C1248  C     0.10481   0.63183   0.78440   0.00000  Uiso   1.00
C1249  C     0.13098   0.60421   0.78414   0.00000  Uiso   1.00
C1250  C     0.36972   0.89654   0.21656   0.00000  Uiso   1.00
C1251  C     0.10012   0.87339   0.78104   0.00000  Uiso   1.00
C1252  C     0.39633   0.63060   0.21659   0.00000  Uiso   1.00
C1253  C     0.37110   0.89773   0.78259   0.00000  Uiso   1.00
C1254  C     0.12914   0.60233   0.21756   0.00000  Uiso   1.00
C1255  C     0.39781   0.62900   0.78270   0.00000  Uiso   1.00
C1256  C     0.10488   0.86810   0.21556   0.00000  Uiso   1.00
C1257  C     0.37891   0.64773   0.71741   0.00000  Uiso   1.00
C1258  C     0.12086   0.85234   0.28244   0.00000  Uiso   1.00
C1259  C     0.35219   0.87900   0.71730   0.00000  Uiso   1.00
C1260  C     0.14516   0.61813   0.28441   0.00000  Uiso   1.00
C1261  C     0.11901   0.85422   0.71585   0.00000  Uiso   1.00
C1262  C     0.38029   0.64653   0.28344   0.00000  Uiso   1.00
C1263  C     0.14988   0.62339   0.71896   0.00000  Uiso   1.00
C1264  C     0.35367   0.88060   0.28341   0.00000  Uiso   1.00
C1265  C     0.37890   0.85227   0.28259   0.00000  Uiso   1.00
C1266  C     0.12089   0.64769   0.71758   0.00000  Uiso   1.00
C1267  C     0.35218   0.62101   0.28270   0.00000  Uiso   1.00
C1268  C     0.14519   0.88184   0.71560   0.00000  Uiso   1.00
C1269  C     0.11898   0.64575   0.28416   0.00000  Uiso   1.00
C1270  C     0.38029   0.85348   0.71656   0.00000  Uiso   1.00
C1271  C     0.14985   0.87664   0.28107   0.00000  Uiso   1.00
C1272  C     0.35367   0.61939   0.71659   0.00000  Uiso   1.00
C1273  C     0.46646   0.75074   0.45927   0.00000  Uiso   1.00
C1274  C     0.03317   0.75034   0.54069   0.00000  Uiso   1.00
C1275  C     0.24966   0.96671   0.45928   0.00000  Uiso   1.00
C1276  C     0.24965   0.53329   0.54072   0.00000  Uiso   1.00
C1277  C     0.03317   0.74962   0.45931   0.00000  Uiso   1.00
C1278  C     0.46646   0.74927   0.54073   0.00000  Uiso   1.00
C1279  C     0.25085   0.53330   0.45927   0.00000  Uiso   1.00
C1280  C     0.25087   0.96670   0.54073   0.00000  Uiso   1.00
C1281  C     0.21683   0.50028   0.95931   0.00000  Uiso   1.00
C1282  C     0.28354   0.50074   0.04073   0.00000  Uiso   1.00
C1283  C     0.49913   0.71670   0.95927   0.00000  Uiso   1.00
C1284  C     0.49917   0.78330   0.04073   0.00000  Uiso   1.00
C1285  C     0.28354   0.99928   0.95927   0.00000  Uiso   1.00
C1286  C     0.21683   0.99954   0.04070   0.00000  Uiso   1.00
C1287  C     0.00037   0.78329   0.95927   0.00000  Uiso   1.00
C1288  C     0.00034   0.71671   0.04072   0.00000  Uiso   1.00
C1289  C     0.09866   0.84749   0.24947   0.00000  Uiso   1.00
C1290  C     0.40182   0.65189   0.75005   0.00000  Uiso   1.00
C1291  C     0.15135   0.59750   0.25052   0.00000  Uiso   1.00
C1292  C     0.34818   0.90189   0.74995   0.00000  Uiso   1.00
C1293  C     0.40181   0.65204   0.25002   0.00000  Uiso   1.00
C1294  C     0.09667   0.84965   0.74885   0.00000  Uiso   1.00
C1295  C     0.34819   0.90204   0.24998   0.00000  Uiso   1.00
C1296  C     0.15333   0.59965   0.75115   0.00000  Uiso   1.00
C1297  C     0.09864   0.65250   0.75052   0.00000  Uiso   1.00
C1298  C     0.40182   0.84811   0.24995   0.00000  Uiso   1.00
C1299  C     0.15135   0.90250   0.74948   0.00000  Uiso   1.00
C1300  C     0.34818   0.59811   0.25005   0.00000  Uiso   1.00
C1301  C     0.40182   0.84796   0.74998   0.00000  Uiso   1.00
C1302  C     0.09668   0.65035   0.25114   0.00000  Uiso   1.00
C1303  C     0.34818   0.59796   0.75002   0.00000  Uiso   1.00
C1304  C     0.15334   0.90034   0.24885   0.00000  Uiso   1.00
C1305  C     0.49980   0.75008   0.47963   0.00000  Uiso   1.00
C1306  C     0.49980   0.74990   0.52036   0.00000  Uiso   1.00
C1307  C     0.25027   0.50000   0.47963   0.00000  Uiso   1.00
C1308  C     0.25027   0.50000   0.52037   0.00000  Uiso   1.00
C1309  C     0.25019   0.99987   0.97964   0.00000  Uiso   1.00
C1310  C     0.25019   0.50005   0.02037   0.00000  Uiso   1.00
C1311  C     0.49974   0.75000   0.97963   0.00000  Uiso   1.00
C1312  C     0.49974   0.75000   0.02037   0.00000  Uiso   1.00
H1313  H     0.40765   0.75088   0.46436   0.00000  Uiso   1.00
H1314  H     0.09198   0.75050   0.53563   0.00000  Uiso   1.00
H1315  H     0.24953   0.90802   0.46438   0.00000  Uiso   1.00
H1316  H     0.24950   0.59198   0.53562   0.00000  Uiso   1.00
H1317  H     0.09198   0.74942   0.46436   0.00000  Uiso   1.00
H1318  H     0.40765   0.74916   0.53564   0.00000  Uiso   1.00
H1319  H     0.25104   0.59199   0.46437   0.00000  Uiso   1.00
H1320  H     0.25108   0.90801   0.53564   0.00000  Uiso   1.00
H1321  H     0.15801   0.50037   0.96437   0.00000  Uiso   1.00
H1322  H     0.34235   0.50095   0.03564   0.00000  Uiso   1.00
H1323  H     0.49890   0.65801   0.96437   0.00000  Uiso   1.00
H1324  H     0.49900   0.84199   0.03563   0.00000  Uiso   1.00
H1325  H     0.34235   0.99923   0.96436   0.00000  Uiso   1.00
H1326  H     0.15801   0.99927   0.03564   0.00000  Uiso   1.00
H1327  H     0.00054   0.84198   0.96438   0.00000  Uiso   1.00
H1328  H     0.00045   0.65802   0.03562   0.00000  Uiso   1.00
H1329  H     0.05853   0.74797   0.40339   0.00000  Uiso   1.00
H1330  H     0.44115   0.74705   0.59684   0.00000  Uiso   1.00
H1331  H     0.25294   0.55861   0.40319   0.00000  Uiso   1.00
H1332  H     0.25298   0.94139   0.59681   0.00000  Uiso   1.00
H1333  H     0.44116   0.75297   0.40316   0.00000  Uiso   1.00
H1334  H     0.05853   0.75197   0.59660   0.00000  Uiso   1.00
H1335  H     0.24741   0.94141   0.40321   0.00000  Uiso   1.00
H1336  H     0.24739   0.55859   0.59679   0.00000  Uiso   1.00
H1337  H     0.30885   0.99709   0.90316   0.00000  Uiso   1.00
H1338  H     0.19147   0.99785   0.09661   0.00000  Uiso   1.00
H1339  H     0.00263   0.80859   0.90321   0.00000  Uiso   1.00
H1340  H     0.00258   0.69141   0.09679   0.00000  Uiso   1.00
H1341  H     0.19147   0.50191   0.90340   0.00000  Uiso   1.00
H1342  H     0.30884   0.50301   0.09684   0.00000  Uiso   1.00
H1343  H     0.49701   0.69139   0.90319   0.00000  Uiso   1.00
H1344  H     0.49709   0.80861   0.09681   0.00000  Uiso   1.00
O1345  O     0.25000   0.50000   0.25000   0.00000  Uiso   1.00
O1346  O     0.25000   0.50000   0.75000   0.00000  Uiso   1.00
O1347  O     0.00000   0.75000   0.25000   0.00000  Uiso   1.00
O1348  O     0.00000   0.75000   0.75000   0.00000  Uiso   1.00
O1349  O     0.25000   0.96964   0.33755   0.00000  Uiso   1.00
O1350  O     0.25000   0.53036   0.66245   0.00000  Uiso   1.00
O1351  O     0.03037   0.75000   0.33755   0.00000  Uiso   1.00
O1352  O     0.46964   0.75000   0.66245   0.00000  Uiso   1.00
O1353  O     0.25000   0.53036   0.33755   0.00000  Uiso   1.00
O1354  O     0.25000   0.96964   0.66245   0.00000  Uiso   1.00
O1355  O     0.46964   0.75000   0.33755   0.00000  Uiso   1.00
O1356  O     0.03037   0.75000   0.66245   0.00000  Uiso   1.00
O1357  O     0.00000   0.71963   0.83755   0.00000  Uiso   1.00
O1358  O     0.00000   0.78036   0.16245   0.00000  Uiso   1.00
O1359  O     0.28037   0.50000   0.83755   0.00000  Uiso   1.00
O1360  O     0.21964   0.50000   0.16245   0.00000  Uiso   1.00
O1361  O     0.00000   0.78036   0.83755   0.00000  Uiso   1.00
O1362  O     0.00000   0.71963   0.16245   0.00000  Uiso   1.00
O1363  O     0.21964   0.50000   0.83755   0.00000  Uiso   1.00
O1364  O     0.28037   0.50000   0.16245   0.00000  Uiso   1.00
O1365  O     0.20725   0.57307   0.27302   0.00000  Uiso   1.00
O1366  O     0.29276   0.92693   0.72698   0.00000  Uiso   1.00
O1367  O     0.42693   0.70724   0.27302   0.00000  Uiso   1.00
O1368  O     0.07308   0.79276   0.72698   0.00000  Uiso   1.00
O1369  O     0.29276   0.92693   0.27302   0.00000  Uiso   1.00
O1370  O     0.20725   0.57307   0.72698   0.00000  Uiso   1.00
O1371  O     0.07308   0.79276   0.27302   0.00000  Uiso   1.00
O1372  O     0.42693   0.70724   0.72698   0.00000  Uiso   1.00
O1373  O     0.20725   0.92693   0.72698   0.00000  Uiso   1.00
O1374  O     0.29276   0.57307   0.27302   0.00000  Uiso   1.00
O1375  O     0.42693   0.79275   0.72698   0.00000  Uiso   1.00
O1376  O     0.07308   0.70725   0.27302   0.00000  Uiso   1.00
O1377  O     0.29276   0.57307   0.72698   0.00000  Uiso   1.00
O1378  O     0.20725   0.92693   0.27302   0.00000  Uiso   1.00
O1379  O     0.07308   0.70725   0.72698   0.00000  Uiso   1.00
O1380  O     0.42693   0.79275   0.27302   0.00000  Uiso   1.00
O1381  O     0.45725   0.82307   0.77302   0.00000  Uiso   1.00
O1382  O     0.04276   0.67693   0.22698   0.00000  Uiso   1.00
O1383  O     0.17693   0.95725   0.77302   0.00000  Uiso   1.00
O1384  O     0.32308   0.54275   0.22698   0.00000  Uiso   1.00
O1385  O     0.04276   0.67693   0.77302   0.00000  Uiso   1.00
O1386  O     0.45725   0.82307   0.22698   0.00000  Uiso   1.00
O1387  O     0.32308   0.54275   0.77302   0.00000  Uiso   1.00
O1388  O     0.17693   0.95725   0.22698   0.00000  Uiso   1.00
O1389  O     0.45725   0.67692   0.22698   0.00000  Uiso   1.00
O1390  O     0.04276   0.82308   0.77302   0.00000  Uiso   1.00
O1391  O     0.17693   0.54275   0.22698   0.00000  Uiso   1.00
O1392  O     0.32308   0.95725   0.77302   0.00000  Uiso   1.00
O1393  O     0.04276   0.82308   0.22698   0.00000  Uiso   1.00
O1394  O     0.45725   0.67692   0.77302   0.00000  Uiso   1.00
O1395  O     0.32308   0.95725   0.22698   0.00000  Uiso   1.00
O1396  O     0.17693   0.54275   0.77302   0.00000  Uiso   1.00
Zn1397 Zn    0.20660   0.50000   0.21735   0.00000  Uiso   1.00
Zn1398 Zn    0.29341   0.50000   0.78265   0.00000  Uiso   1.00
Zn1399 Zn    0.00000   0.70659   0.21735   0.00000  Uiso   1.00
Zn1400 Zn    0.00000   0.79340   0.78265   0.00000  Uiso   1.00
Zn1401 Zn    0.29341   0.50000   0.21735   0.00000  Uiso   1.00
Zn1402 Zn    0.20660   0.50000   0.78265   0.00000  Uiso   1.00
Zn1403 Zn    0.00000   0.79340   0.21735   0.00000  Uiso   1.00
Zn1404 Zn    0.00000   0.70660   0.78265   0.00000  Uiso   1.00
Zn1405 Zn    0.45660   0.75000   0.71735   0.00000  Uiso   1.00
Zn1406 Zn    0.04341   0.75000   0.28265   0.00000  Uiso   1.00
Zn1407 Zn    0.25000   0.95660   0.71735   0.00000  Uiso   1.00
Zn1408 Zn    0.25000   0.54340   0.28265   0.00000  Uiso   1.00
Zn1409 Zn    0.04341   0.75000   0.71735   0.00000  Uiso   1.00
Zn1410 Zn    0.45660   0.75000   0.28265   0.00000  Uiso   1.00
Zn1411 Zn    0.25000   0.54340   0.71735   0.00000  Uiso   1.00
Zn1412 Zn    0.25000   0.95660   0.28265   0.00000  Uiso   1.00
O1413  O     0.13931   0.91373   0.18156   0.00000  Uiso   1.00
C1414  C     0.11270   0.94050   0.17385   0.00000  Uiso   1.00
H1415  H     0.10972   0.95946   0.19896   0.00000  Uiso   1.00
H1416  H     0.08586   0.92791   0.16743   0.00000  Uiso   1.00
C1417  C     0.12485   0.96205   0.13819   0.00000  Uiso   1.00
H1418  H     0.15196   0.97419   0.14412   0.00000  Uiso   1.00
H1419  H     0.12733   0.94343   0.11285   0.00000  Uiso   1.00
C1420  C     0.09815   0.99236   0.12831   0.00000  Uiso   1.00
H1421  H     0.09735   0.51227   0.15246   0.00000  Uiso   1.00
H1422  H     0.07043   0.98114   0.12333   0.00000  Uiso   1.00
H1423  H     0.10729   0.50656   0.10154   0.00000  Uiso   1.00
O1424  O     0.36470   0.58277   0.81658   0.00000  Uiso   1.00
C1425  C     0.33972   0.60070   0.84119   0.00000  Uiso   1.00
H1426  H     0.31262   0.60303   0.82675   0.00000  Uiso   1.00
H1427  H     0.34970   0.62837   0.84907   0.00000  Uiso   1.00
C1428  C     0.33549   0.57848   0.87841   0.00000  Uiso   1.00
H1429  H     0.32817   0.55014   0.87064   0.00000  Uiso   1.00
H1430  H     0.36186   0.57799   0.89430   0.00000  Uiso   1.00
C1431  C     0.30606   0.59420   0.90485   0.00000  Uiso   1.00
H1432  H     0.31262   0.62278   0.91260   0.00000  Uiso   1.00
H1433  H     0.30446   0.57794   0.93201   0.00000  Uiso   1.00
H1434  H     0.27914   0.59323   0.89013   0.00000  Uiso   1.00
O1435  O     0.07742   0.62899   0.18680   0.00000  Uiso   1.00
C1436  C     0.04554   0.60785   0.19294   0.00000  Uiso   1.00
H1437  H     0.02287   0.62157   0.17731   0.00000  Uiso   1.00
H1438  H     0.03715   0.60618   0.22412   0.00000  Uiso   1.00
C1439  C     0.04993   0.56950   0.17637   0.00000  Uiso   1.00
H1440  H     0.06136   0.57110   0.14648   0.00000  Uiso   1.00
H1441  H     0.06892   0.55391   0.19515   0.00000  Uiso   1.00
C1442  C     0.01355   0.54941   0.17503   0.00000  Uiso   1.00
H1443  H     0.00159   0.54750   0.20464   0.00000  Uiso   1.00
H1444  H     0.01781   0.52147   0.16366   0.00000  Uiso   1.00
H1445  H     0.49415   0.56378   0.15556   0.00000  Uiso   1.00
O1446  O     0.41672   0.86395   0.81673   0.00000  Uiso   1.00
C1447  C     0.39811   0.83919   0.84101   0.00000  Uiso   1.00
H1448  H     0.39479   0.81246   0.82613   0.00000  Uiso   1.00
H1449  H     0.37079   0.84995   0.84927   0.00000  Uiso   1.00
C1450  C     0.42046   0.83361   0.87798   0.00000  Uiso   1.00
H1451  H     0.44840   0.82506   0.86983   0.00000  Uiso   1.00
H1452  H     0.42231   0.85973   0.89413   0.00000  Uiso   1.00
C1453  C     0.40361   0.80473   0.90427   0.00000  Uiso   1.00
H1454  H     0.37546   0.81262   0.91258   0.00000  Uiso   1.00
H1455  H     0.42019   0.80195   0.93112   0.00000  Uiso   1.00
H1456  H     0.40301   0.77803   0.88917   0.00000  Uiso   1.00
O1457  O     0.36652   0.58085   0.18463   0.00000  Uiso   1.00
C1458  C     0.39426   0.55418   0.18373   0.00000  Uiso   1.00
H1459  H     0.39676   0.53999   0.21232   0.00000  Uiso   1.00
H1460  H     0.42090   0.56681   0.17626   0.00000  Uiso   1.00
C1461  C     0.38490   0.52590   0.15274   0.00000  Uiso   1.00
H1462  H     0.35814   0.51332   0.15963   0.00000  Uiso   1.00
H1463  H     0.38285   0.53935   0.12387   0.00000  Uiso   1.00
C1464  C     0.41377   0.99612   0.15087   0.00000  Uiso   1.00
H1465  H     0.41613   0.98242   0.17954   0.00000  Uiso   1.00
H1466  H     0.44061   0.50782   0.14276   0.00000  Uiso   1.00
H1467  H     0.40593   0.97561   0.12871   0.00000  Uiso   1.00
O1468  O     0.13383   0.91859   0.81546   0.00000  Uiso   1.00
C1469  C     0.15732   0.90008   0.84120   0.00000  Uiso   1.00
H1470  H     0.18474   0.89654   0.82777   0.00000  Uiso   1.00
H1471  H     0.14604   0.87293   0.84914   0.00000  Uiso   1.00
C1472  C     0.16121   0.92270   0.87818   0.00000  Uiso   1.00
H1473  H     0.17007   0.95055   0.87020   0.00000  Uiso   1.00
H1474  H     0.13433   0.92463   0.89293   0.00000  Uiso   1.00
C1475  C     0.18893   0.90616   0.90610   0.00000  Uiso   1.00
H1476  H     0.18078   0.87805   0.91411   0.00000  Uiso   1.00
H1477  H     0.19032   0.92282   0.93298   0.00000  Uiso   1.00
H1478  H     0.21637   0.90563   0.89248   0.00000  Uiso   1.00
O1479  O     0.41895   0.86592   0.18434   0.00000  Uiso   1.00
C1480  C     0.44634   0.89294   0.18311   0.00000  Uiso   1.00
H1481  H     0.46055   0.89557   0.21169   0.00000  Uiso   1.00
H1482  H     0.43427   0.91961   0.17514   0.00000  Uiso   1.00
C1483  C     0.47451   0.88260   0.15229   0.00000  Uiso   1.00
H1484  H     0.48645   0.85567   0.15951   0.00000  Uiso   1.00
H1485  H     0.46101   0.88055   0.12343   0.00000  Uiso   1.00
C1486  C     0.00509   0.91063   0.15005   0.00000  Uiso   1.00
H1487  H     0.49398   0.93773   0.14208   0.00000  Uiso   1.00
H1488  H     0.02515   0.90225   0.12760   0.00000  Uiso   1.00
H1489  H     0.01929   0.91264   0.17850   0.00000  Uiso   1.00
O1490  O     0.08448   0.63762   0.81769   0.00000  Uiso   1.00
C1491  C     0.10221   0.66380   0.84097   0.00000  Uiso   1.00
H1492  H     0.10349   0.69042   0.82552   0.00000  Uiso   1.00
H1493  H     0.13034   0.65489   0.84859   0.00000  Uiso   1.00
C1494  C     0.08051   0.66856   0.87850   0.00000  Uiso   1.00
H1495  H     0.05178   0.67483   0.87109   0.00000  Uiso   1.00
H1496  H     0.08104   0.64273   0.89530   0.00000  Uiso   1.00
C1497  C     0.09586   0.69917   0.90356   0.00000  Uiso   1.00
H1498  H     0.12476   0.69359   0.91106   0.00000  Uiso   1.00
H1499  H     0.07991   0.70126   0.93091   0.00000  Uiso   1.00
H1500  H     0.09400   0.72551   0.88787   0.00000  Uiso   1.00
O1501  O     0.13915   0.58617   0.81839   0.00000  Uiso   1.00
C1502  C     0.11264   0.55924   0.82586   0.00000  Uiso   1.00
H1503  H     0.11025   0.54007   0.80087   0.00000  Uiso   1.00
H1504  H     0.08557   0.57161   0.83165   0.00000  Uiso   1.00
C1505  C     0.12440   0.53811   0.86195   0.00000  Uiso   1.00
H1506  H     0.15201   0.52677   0.85694   0.00000  Uiso   1.00
H1507  H     0.12562   0.55684   0.88730   0.00000  Uiso   1.00
C1508  C     0.09836   0.50703   0.87105   0.00000  Uiso   1.00
H1509  H     0.09907   0.98692   0.84709   0.00000  Uiso   1.00
H1510  H     0.07015   0.51738   0.87482   0.00000  Uiso   1.00
H1511  H     0.10700   0.99332   0.89830   0.00000  Uiso   1.00
O1512  O     0.36473   0.91726   0.18343   0.00000  Uiso   1.00
C1513  C     0.33976   0.89934   0.15880   0.00000  Uiso   1.00
H1514  H     0.31266   0.89700   0.17322   0.00000  Uiso   1.00
H1515  H     0.34975   0.87167   0.15091   0.00000  Uiso   1.00
C1516  C     0.33556   0.92157   0.12159   0.00000  Uiso   1.00
H1517  H     0.32821   0.94990   0.12937   0.00000  Uiso   1.00
H1518  H     0.36194   0.92209   0.10573   0.00000  Uiso   1.00
C1519  C     0.30616   0.90585   0.09511   0.00000  Uiso   1.00
H1520  H     0.31276   0.87728   0.08734   0.00000  Uiso   1.00
H1521  H     0.30456   0.92213   0.06797   0.00000  Uiso   1.00
H1522  H     0.27923   0.90677   0.10980   0.00000  Uiso   1.00
O1523  O     0.07733   0.87111   0.81313   0.00000  Uiso   1.00
C1524  C     0.04547   0.89225   0.80689   0.00000  Uiso   1.00
H1525  H     0.02277   0.87856   0.82250   0.00000  Uiso   1.00
H1526  H     0.03713   0.89386   0.77569   0.00000  Uiso   1.00
C1527  C     0.04983   0.93063   0.82339   0.00000  Uiso   1.00
H1528  H     0.06119   0.92909   0.85331   0.00000  Uiso   1.00
H1529  H     0.06888   0.94619   0.80463   0.00000  Uiso   1.00
C1530  C     0.01345   0.95073   0.82458   0.00000  Uiso   1.00
H1531  H     0.00156   0.95256   0.79494   0.00000  Uiso   1.00
H1532  H     0.01769   0.97870   0.83587   0.00000  Uiso   1.00
H1533  H     0.49402   0.93641   0.84405   0.00000  Uiso   1.00
O1534  O     0.41672   0.63605   0.18327   0.00000  Uiso   1.00
C1535  C     0.39810   0.66081   0.15899   0.00000  Uiso   1.00
H1536  H     0.39477   0.68754   0.17386   0.00000  Uiso   1.00
H1537  H     0.37078   0.65003   0.15073   0.00000  Uiso   1.00
C1538  C     0.42044   0.66639   0.12202   0.00000  Uiso   1.00
H1539  H     0.44838   0.67497   0.13017   0.00000  Uiso   1.00
H1540  H     0.42232   0.64028   0.10587   0.00000  Uiso   1.00
C1541  C     0.40358   0.69526   0.09573   0.00000  Uiso   1.00
H1542  H     0.37544   0.68736   0.08741   0.00000  Uiso   1.00
H1543  H     0.42016   0.69805   0.06888   0.00000  Uiso   1.00
H1544  H     0.40296   0.72196   0.11083   0.00000  Uiso   1.00
O1545  O     0.36651   0.91914   0.81537   0.00000  Uiso   1.00
C1546  C     0.39425   0.94582   0.81628   0.00000  Uiso   1.00
H1547  H     0.39675   0.96000   0.78768   0.00000  Uiso   1.00
H1548  H     0.42089   0.93320   0.82376   0.00000  Uiso   1.00
C1549  C     0.38487   0.97411   0.84726   0.00000  Uiso   1.00
H1550  H     0.35810   0.98667   0.84037   0.00000  Uiso   1.00
H1551  H     0.38281   0.96066   0.87614   0.00000  Uiso   1.00
C1552  C     0.41373   0.50390   0.84913   0.00000  Uiso   1.00
H1553  H     0.41610   0.51759   0.82045   0.00000  Uiso   1.00
H1554  H     0.44057   0.99221   0.85725   0.00000  Uiso   1.00
H1555  H     0.40587   0.52441   0.87128   0.00000  Uiso   1.00
O1556  O     0.13384   0.58140   0.18453   0.00000  Uiso   1.00
C1557  C     0.15737   0.59986   0.15879   0.00000  Uiso   1.00
H1558  H     0.18479   0.60335   0.17222   0.00000  Uiso   1.00
H1559  H     0.14614   0.62702   0.15083   0.00000  Uiso   1.00
C1560  C     0.16121   0.57721   0.12182   0.00000  Uiso   1.00
H1561  H     0.17002   0.54934   0.12981   0.00000  Uiso   1.00
H1562  H     0.13433   0.57532   0.10707   0.00000  Uiso   1.00
C1563  C     0.18897   0.59369   0.09389   0.00000  Uiso   1.00
H1564  H     0.18088   0.62180   0.08586   0.00000  Uiso   1.00
H1565  H     0.19033   0.57701   0.06701   0.00000  Uiso   1.00
H1566  H     0.21641   0.59416   0.10751   0.00000  Uiso   1.00
O1567  O     0.41893   0.63409   0.81567   0.00000  Uiso   1.00
C1568  C     0.44630   0.60705   0.81691   0.00000  Uiso   1.00
H1569  H     0.46052   0.60441   0.78834   0.00000  Uiso   1.00
H1570  H     0.43422   0.58040   0.82489   0.00000  Uiso   1.00
C1571  C     0.47448   0.61739   0.84774   0.00000  Uiso   1.00
H1572  H     0.48645   0.64430   0.84050   0.00000  Uiso   1.00
H1573  H     0.46097   0.61946   0.87659   0.00000  Uiso   1.00
C1574  C     0.00502   0.58931   0.84999   0.00000  Uiso   1.00
H1575  H     0.49388   0.56224   0.85799   0.00000  Uiso   1.00
H1576  H     0.02510   0.59769   0.87243   0.00000  Uiso   1.00
H1577  H     0.01921   0.58727   0.82154   0.00000  Uiso   1.00
O1578  O     0.08461   0.86224   0.18225   0.00000  Uiso   1.00
C1579  C     0.10238   0.83602   0.15906   0.00000  Uiso   1.00
H1580  H     0.10371   0.80945   0.17459   0.00000  Uiso   1.00
H1581  H     0.13050   0.84496   0.15140   0.00000  Uiso   1.00
C1582  C     0.08068   0.83112   0.12154   0.00000  Uiso   1.00
H1583  H     0.05197   0.82481   0.12898   0.00000  Uiso   1.00
H1584  H     0.08115   0.85690   0.10467   0.00000  Uiso   1.00
C1585  C     0.09609   0.80047   0.09657   0.00000  Uiso   1.00
H1586  H     0.12497   0.80610   0.08903   0.00000  Uiso   1.00
H1587  H     0.08012   0.79827   0.06924   0.00000  Uiso   1.00
H1588  H     0.09430   0.77417   0.11235   0.00000  Uiso   1.00
O1589  O     0.38349   0.66914   0.68462   0.00000  Uiso   1.00
C1590  C     0.35576   0.69582   0.68372   0.00000  Uiso   1.00
H1591  H     0.35325   0.71000   0.71231   0.00000  Uiso   1.00
H1592  H     0.32912   0.68319   0.67623   0.00000  Uiso   1.00
C1593  C     0.36513   0.72410   0.65273   0.00000  Uiso   1.00
H1594  H     0.39190   0.73667   0.65963   0.00000  Uiso   1.00
H1595  H     0.36719   0.71065   0.62386   0.00000  Uiso   1.00
C1596  C     0.33627   0.75389   0.65086   0.00000  Uiso   1.00
H1597  H     0.33390   0.76758   0.67954   0.00000  Uiso   1.00
H1598  H     0.30943   0.74219   0.64274   0.00000  Uiso   1.00
H1599  H     0.34413   0.77440   0.62870   0.00000  Uiso   1.00
O1600  O     0.11613   0.83145   0.31548   0.00000  Uiso   1.00
C1601  C     0.09259   0.84994   0.34119   0.00000  Uiso   1.00
H1602  H     0.06519   0.85346   0.32772   0.00000  Uiso   1.00
H1603  H     0.10385   0.87709   0.34915   0.00000  Uiso   1.00
C1604  C     0.08867   0.82731   0.37816   0.00000  Uiso   1.00
H1605  H     0.07984   0.79945   0.37017   0.00000  Uiso   1.00
H1606  H     0.11553   0.82539   0.39295   0.00000  Uiso   1.00
C1607  C     0.06091   0.84384   0.40605   0.00000  Uiso   1.00
H1608  H     0.06903   0.87194   0.41408   0.00000  Uiso   1.00
H1609  H     0.05949   0.82717   0.43293   0.00000  Uiso   1.00
H1610  H     0.03349   0.84435   0.39239   0.00000  Uiso   1.00
O1611  O     0.33106   0.88409   0.68433   0.00000  Uiso   1.00
C1612  C     0.30369   0.85705   0.68310   0.00000  Uiso   1.00
H1613  H     0.28947   0.85441   0.71167   0.00000  Uiso   1.00
H1614  H     0.31577   0.83040   0.67513   0.00000  Uiso   1.00
C1615  C     0.27552   0.86738   0.65227   0.00000  Uiso   1.00
H1616  H     0.26355   0.89430   0.65950   0.00000  Uiso   1.00
H1617  H     0.28902   0.86945   0.62342   0.00000  Uiso   1.00
C1618  C     0.24497   0.83931   0.65002   0.00000  Uiso   1.00
H1619  H     0.25611   0.81224   0.64202   0.00000  Uiso   1.00
H1620  H     0.22489   0.84769   0.62758   0.00000  Uiso   1.00
H1621  H     0.23078   0.83727   0.67847   0.00000  Uiso   1.00
O1622  O     0.16545   0.61231   0.31772   0.00000  Uiso   1.00
C1623  C     0.14771   0.58610   0.34095   0.00000  Uiso   1.00
H1624  H     0.14640   0.55951   0.32546   0.00000  Uiso   1.00
H1625  H     0.11958   0.59503   0.34859   0.00000  Uiso   1.00
C1626  C     0.16940   0.58127   0.37847   0.00000  Uiso   1.00
H1627  H     0.19812   0.57498   0.37105   0.00000  Uiso   1.00
H1628  H     0.16890   0.60707   0.39531   0.00000  Uiso   1.00
C1629  C     0.15402   0.55064   0.40349   0.00000  Uiso   1.00
H1630  H     0.12513   0.55624   0.41100   0.00000  Uiso   1.00
H1631  H     0.16998   0.54849   0.43082   0.00000  Uiso   1.00
H1632  H     0.15584   0.52433   0.38775   0.00000  Uiso   1.00
O1633  O     0.11084   0.83618   0.68160   0.00000  Uiso   1.00
C1634  C     0.13736   0.80927   0.67412   0.00000  Uiso   1.00
H1635  H     0.13980   0.79011   0.69912   0.00000  Uiso   1.00
H1636  H     0.16441   0.82165   0.66827   0.00000  Uiso   1.00
C1637  C     0.12557   0.78810   0.63806   0.00000  Uiso   1.00
H1638  H     0.09801   0.77667   0.64315   0.00000  Uiso   1.00
H1639  H     0.12424   0.80682   0.61271   0.00000  Uiso   1.00
C1640  C     0.15168   0.75709   0.62890   0.00000  Uiso   1.00
H1641  H     0.15110   0.73699   0.65288   0.00000  Uiso   1.00
H1642  H     0.17985   0.76752   0.62503   0.00000  Uiso   1.00
H1643  H     0.14300   0.74334   0.60168   0.00000  Uiso   1.00
O1644  O     0.38528   0.66725   0.31657   0.00000  Uiso   1.00
C1645  C     0.41025   0.64932   0.34120   0.00000  Uiso   1.00
H1646  H     0.43734   0.64698   0.32678   0.00000  Uiso   1.00
H1647  H     0.40026   0.62166   0.34909   0.00000  Uiso   1.00
C1648  C     0.41447   0.67155   0.37841   0.00000  Uiso   1.00
H1649  H     0.42182   0.69988   0.37063   0.00000  Uiso   1.00
H1650  H     0.38809   0.67207   0.39427   0.00000  Uiso   1.00
C1651  C     0.44386   0.65582   0.40489   0.00000  Uiso   1.00
H1652  H     0.43726   0.62726   0.41266   0.00000  Uiso   1.00
H1653  H     0.44547   0.67210   0.43203   0.00000  Uiso   1.00
H1654  H     0.47080   0.65675   0.39018   0.00000  Uiso   1.00
O1655  O     0.17268   0.62112   0.68687   0.00000  Uiso   1.00
C1656  C     0.20453   0.64225   0.69311   0.00000  Uiso   1.00
H1657  H     0.22723   0.62856   0.67750   0.00000  Uiso   1.00
H1658  H     0.21287   0.64386   0.72431   0.00000  Uiso   1.00
C1659  C     0.20017   0.68063   0.67662   0.00000  Uiso   1.00
H1660  H     0.18882   0.67909   0.64669   0.00000  Uiso   1.00
H1661  H     0.18113   0.69619   0.69538   0.00000  Uiso   1.00
C1662  C     0.23656   0.70073   0.67542   0.00000  Uiso   1.00
H1663  H     0.24845   0.70256   0.70506   0.00000  Uiso   1.00
H1664  H     0.23232   0.72870   0.66412   0.00000  Uiso   1.00
H1665  H     0.25599   0.68641   0.65595   0.00000  Uiso   1.00
O1666  O     0.33328   0.88605   0.31673   0.00000  Uiso   1.00
C1667  C     0.35189   0.91080   0.34101   0.00000  Uiso   1.00
H1668  H     0.35522   0.93754   0.32614   0.00000  Uiso   1.00
H1669  H     0.37921   0.90003   0.34927   0.00000  Uiso   1.00
C1670  C     0.32955   0.91638   0.37798   0.00000  Uiso   1.00
H1671  H     0.30161   0.92495   0.36983   0.00000  Uiso   1.00
H1672  H     0.32768   0.89026   0.39412   0.00000  Uiso   1.00
C1673  C     0.34640   0.94525   0.40428   0.00000  Uiso   1.00
H1674  H     0.37455   0.93735   0.41259   0.00000  Uiso   1.00
H1675  H     0.32982   0.94803   0.43113   0.00000  Uiso   1.00
H1676  H     0.34702   0.97195   0.38918   0.00000  Uiso   1.00
O1677  O     0.38348   0.83085   0.31537   0.00000  Uiso   1.00
C1678  C     0.35574   0.80418   0.31626   0.00000  Uiso   1.00
H1679  H     0.35324   0.78999   0.28767   0.00000  Uiso   1.00
H1680  H     0.32910   0.81680   0.32374   0.00000  Uiso   1.00
C1681  C     0.36510   0.77589   0.34726   0.00000  Uiso   1.00
H1682  H     0.39187   0.76332   0.34037   0.00000  Uiso   1.00
H1683  H     0.36715   0.78934   0.37613   0.00000  Uiso   1.00
C1684  C     0.33623   0.74611   0.34911   0.00000  Uiso   1.00
H1685  H     0.33387   0.73241   0.32044   0.00000  Uiso   1.00
H1686  H     0.30939   0.75781   0.35723   0.00000  Uiso   1.00
H1687  H     0.34408   0.72560   0.37128   0.00000  Uiso   1.00
O1688  O     0.11619   0.66860   0.68454   0.00000  Uiso   1.00
C1689  C     0.09269   0.65011   0.65880   0.00000  Uiso   1.00
H1690  H     0.06527   0.64659   0.67222   0.00000  Uiso   1.00
H1691  H     0.10396   0.62296   0.65085   0.00000  Uiso   1.00
C1692  C     0.08882   0.67274   0.62182   0.00000  Uiso   1.00
H1693  H     0.07997   0.70060   0.62980   0.00000  Uiso   1.00
H1694  H     0.11570   0.67467   0.60707   0.00000  Uiso   1.00
C1695  C     0.06110   0.65622   0.59389   0.00000  Uiso   1.00
H1696  H     0.06923   0.62811   0.58587   0.00000  Uiso   1.00
H1697  H     0.05972   0.67289   0.56701   0.00000  Uiso   1.00
H1698  H     0.03366   0.65571   0.60751   0.00000  Uiso   1.00
O1699  O     0.33105   0.61592   0.31567   0.00000  Uiso   1.00
C1700  C     0.30367   0.64294   0.31690   0.00000  Uiso   1.00
H1701  H     0.28946   0.64557   0.28832   0.00000  Uiso   1.00
H1702  H     0.31575   0.66960   0.32486   0.00000  Uiso   1.00
C1703  C     0.27550   0.63261   0.34772   0.00000  Uiso   1.00
H1704  H     0.26355   0.60568   0.34050   0.00000  Uiso   1.00
H1705  H     0.28901   0.63055   0.37658   0.00000  Uiso   1.00
C1706  C     0.24494   0.66066   0.34997   0.00000  Uiso   1.00
H1707  H     0.25606   0.68774   0.35794   0.00000  Uiso   1.00
H1708  H     0.22487   0.65228   0.37241   0.00000  Uiso   1.00
H1709  H     0.23074   0.66267   0.32152   0.00000  Uiso   1.00
O1710  O     0.16551   0.88763   0.68230   0.00000  Uiso   1.00
C1711  C     0.14778   0.91382   0.65903   0.00000  Uiso   1.00
H1712  H     0.14649   0.94043   0.67449   0.00000  Uiso   1.00
H1713  H     0.11964   0.90491   0.65140   0.00000  Uiso   1.00
C1714  C     0.16947   0.91859   0.62150   0.00000  Uiso   1.00
H1715  H     0.19820   0.92487   0.62891   0.00000  Uiso   1.00
H1716  H     0.16895   0.89277   0.60470   0.00000  Uiso   1.00
C1717  C     0.15411   0.94920   0.59645   0.00000  Uiso   1.00
H1718  H     0.12522   0.94362   0.58894   0.00000  Uiso   1.00
H1719  H     0.17007   0.95131   0.56910   0.00000  Uiso   1.00
H1720  H     0.15596   0.97554   0.61215   0.00000  Uiso   1.00
O1721  O     0.11076   0.66377   0.31841   0.00000  Uiso   1.00
C1722  C     0.13731   0.69063   0.32601   0.00000  Uiso   1.00
H1723  H     0.14000   0.70969   0.30096   0.00000  Uiso   1.00
H1724  H     0.16427   0.67816   0.33213   0.00000  Uiso   1.00
C1725  C     0.12533   0.71197   0.36187   0.00000  Uiso   1.00
H1726  H     0.09796   0.72368   0.35640   0.00000  Uiso   1.00
H1727  H     0.12350   0.69330   0.38723   0.00000  Uiso   1.00
C1728  C     0.15167   0.74270   0.37134   0.00000  Uiso   1.00
H1729  H     0.15168   0.76271   0.34728   0.00000  Uiso   1.00
H1730  H     0.17965   0.73196   0.37571   0.00000  Uiso   1.00
H1731  H     0.14277   0.75665   0.39836   0.00000  Uiso   1.00
O1732  O     0.38529   0.83276   0.68342   0.00000  Uiso   1.00
C1733  C     0.41028   0.85069   0.65881   0.00000  Uiso   1.00
H1734  H     0.43737   0.85300   0.67324   0.00000  Uiso   1.00
H1735  H     0.40030   0.87836   0.65093   0.00000  Uiso   1.00
C1736  C     0.41448   0.82847   0.62159   0.00000  Uiso   1.00
H1737  H     0.42179   0.80012   0.62936   0.00000  Uiso   1.00
H1738  H     0.38811   0.82799   0.60571   0.00000  Uiso   1.00
C1739  C     0.44391   0.84417   0.59514   0.00000  Uiso   1.00
H1740  H     0.43736   0.87276   0.58740   0.00000  Uiso   1.00
H1741  H     0.44550   0.82792   0.56798   0.00000  Uiso   1.00
H1742  H     0.47084   0.84319   0.60985   0.00000  Uiso   1.00
O1743  O     0.17259   0.87898   0.31320   0.00000  Uiso   1.00
C1744  C     0.20446   0.85784   0.30705   0.00000  Uiso   1.00
H1745  H     0.22712   0.87155   0.32270   0.00000  Uiso   1.00
H1746  H     0.21286   0.85620   0.27587   0.00000  Uiso   1.00
C1747  C     0.20007   0.81948   0.32359   0.00000  Uiso   1.00
H1748  H     0.18865   0.82104   0.35348   0.00000  Uiso   1.00
H1749  H     0.18107   0.80390   0.30479   0.00000  Uiso   1.00
C1750  C     0.23645   0.79938   0.32490   0.00000  Uiso   1.00
H1751  H     0.24841   0.79751   0.29529   0.00000  Uiso   1.00
H1752  H     0.23219   0.77143   0.33623   0.00000  Uiso   1.00
H1753  H     0.25585   0.81373   0.34439   0.00000  Uiso   1.00
O1754  O     0.33329   0.61394   0.68326   0.00000  Uiso   1.00
C1755  C     0.35190   0.58918   0.65899   0.00000  Uiso   1.00
H1756  H     0.35522   0.56245   0.67387   0.00000  Uiso   1.00
H1757  H     0.37922   0.59995   0.65074   0.00000  Uiso   1.00
C1758  C     0.32956   0.58360   0.62203   0.00000  Uiso   1.00
H1759  H     0.30162   0.57504   0.63017   0.00000  Uiso   1.00
H1760  H     0.32770   0.60971   0.60587   0.00000  Uiso   1.00
C1761  C     0.34641   0.55471   0.59574   0.00000  Uiso   1.00
H1762  H     0.37456   0.56261   0.58743   0.00000  Uiso   1.00
H1763  H     0.32984   0.55193   0.56889   0.00000  Uiso   1.00
H1764  H     0.34702   0.52802   0.61084   0.00000  Uiso   1.00
C1765  C     0.53292   0.74911   0.41886   0.00000  Uiso   1.00
C1766  C     0.96675   0.74848   0.58123   0.00000  Uiso   1.00
C1767  C     0.75152   0.53304   0.41878   0.00000  Uiso   1.00
C1768  C     0.75154   0.96696   0.58122   0.00000  Uiso   1.00
C1769  C     0.96675   0.75152   0.41877   0.00000  Uiso   1.00
C1770  C     0.53292   0.75086   0.58114   0.00000  Uiso   1.00
C1771  C     0.74887   0.96698   0.41879   0.00000  Uiso   1.00
C1772  C     0.74886   0.53302   0.58121   0.00000  Uiso   1.00
C1773  C     0.78325   0.99850   0.91877   0.00000  Uiso   1.00
C1774  C     0.71708   0.99903   0.08115   0.00000  Uiso   1.00
C1775  C     0.50115   0.78302   0.91879   0.00000  Uiso   1.00
C1776  C     0.50113   0.71698   0.08121   0.00000  Uiso   1.00
C1777  C     0.71708   0.50081   0.91886   0.00000  Uiso   1.00
C1778  C     0.78324   0.50153   0.08124   0.00000  Uiso   1.00
C1779  C     0.99845   0.71696   0.91878   0.00000  Uiso   1.00
C1780  C     0.99850   0.78304   0.08122   0.00000  Uiso   1.00
C1781  C     0.99988   0.75025   0.39846   0.00000  Uiso   1.00
C1782  C     0.99988   0.74974   0.60154   0.00000  Uiso   1.00
C1783  C     0.75013   0.50001   0.39843   0.00000  Uiso   1.00
C1784  C     0.75014   0.99999   0.60157   0.00000  Uiso   1.00
C1785  C     0.75012   0.99973   0.89846   0.00000  Uiso   1.00
C1786  C     0.75012   0.50022   0.10155   0.00000  Uiso   1.00
C1787  C     0.99986   0.74999   0.89843   0.00000  Uiso   1.00
C1788  C     0.99987   0.75001   0.10157   0.00000  Uiso   1.00
C1789  C     0.93343   0.75052   0.47973   0.00000  Uiso   1.00
C1790  C     0.56620   0.75028   0.52026   0.00000  Uiso   1.00
C1791  C     0.74984   0.93375   0.47974   0.00000  Uiso   1.00
C1792  C     0.74982   0.56625   0.52026   0.00000  Uiso   1.00
C1793  C     0.56620   0.74966   0.47973   0.00000  Uiso   1.00
C1794  C     0.93342   0.74950   0.52028   0.00000  Uiso   1.00
C1795  C     0.75072   0.56626   0.47972   0.00000  Uiso   1.00
C1796  C     0.75075   0.93374   0.52028   0.00000  Uiso   1.00
C1797  C     0.68379   0.50018   0.97974   0.00000  Uiso   1.00
C1798  C     0.81657   0.50056   0.02028   0.00000  Uiso   1.00
C1799  C     0.99924   0.68374   0.97973   0.00000  Uiso   1.00
C1800  C     0.99931   0.81626   0.02027   0.00000  Uiso   1.00
C1801  C     0.81657   0.99954   0.97973   0.00000  Uiso   1.00
C1802  C     0.68379   0.99954   0.02027   0.00000  Uiso   1.00
C1803  C     0.50021   0.81625   0.97973   0.00000  Uiso   1.00
C1804  C     0.50014   0.68375   0.02027   0.00000  Uiso   1.00
C1805  C     0.75003   0.50000   0.35595   0.00000  Uiso   1.00
C1806  C     0.75003   0.50000   0.64405   0.00000  Uiso   1.00
C1807  C     0.99998   0.75008   0.35597   0.00000  Uiso   1.00
C1808  C     0.99998   0.74992   0.64403   0.00000  Uiso   1.00
C1809  C     0.99997   0.75000   0.85595   0.00000  Uiso   1.00
C1810  C     0.99998   0.75000   0.14405   0.00000  Uiso   1.00
C1811  C     0.75002   0.99992   0.85597   0.00000  Uiso   1.00
C1812  C     0.75002   0.50007   0.14403   0.00000  Uiso   1.00
C1813  C     0.67993   0.56996   0.25003   0.00000  Uiso   1.00
C1814  C     0.82007   0.92998   0.74998   0.00000  Uiso   1.00
C1815  C     0.92995   0.68002   0.25001   0.00000  Uiso   1.00
C1816  C     0.56965   0.82045   0.74958   0.00000  Uiso   1.00
C1817  C     0.82005   0.93002   0.25000   0.00000  Uiso   1.00
C1818  C     0.68035   0.57045   0.75042   0.00000  Uiso   1.00
C1819  C     0.57007   0.81996   0.24997   0.00000  Uiso   1.00
C1820  C     0.92993   0.67998   0.75002   0.00000  Uiso   1.00
C1821  C     0.67993   0.93003   0.74997   0.00000  Uiso   1.00
C1822  C     0.82007   0.57002   0.25002   0.00000  Uiso   1.00
C1823  C     0.92995   0.81998   0.75000   0.00000  Uiso   1.00
C1824  C     0.56966   0.67955   0.25042   0.00000  Uiso   1.00
C1825  C     0.82005   0.56998   0.75001   0.00000  Uiso   1.00
C1826  C     0.68035   0.92955   0.24958   0.00000  Uiso   1.00
C1827  C     0.57007   0.68003   0.75003   0.00000  Uiso   1.00
C1828  C     0.92993   0.82002   0.24998   0.00000  Uiso   1.00
C1829  C     0.63106   0.89571   0.21581   0.00000  Uiso   1.00
C1830  C     0.86970   0.60348   0.78344   0.00000  Uiso   1.00
C1831  C     0.60016   0.62665   0.21892   0.00000  Uiso   1.00
C1832  C     0.89633   0.86940   0.78341   0.00000  Uiso   1.00
C1833  C     0.87110   0.60227   0.21741   0.00000  Uiso   1.00
C1834  C     0.62911   0.89768   0.78242   0.00000  Uiso   1.00
C1835  C     0.89783   0.87101   0.21731   0.00000  Uiso   1.00
C1836  C     0.60481   0.63183   0.78440   0.00000  Uiso   1.00
C1837  C     0.63098   0.60421   0.78414   0.00000  Uiso   1.00
C1838  C     0.86972   0.89654   0.21656   0.00000  Uiso   1.00
C1839  C     0.60012   0.87339   0.78104   0.00000  Uiso   1.00
C1840  C     0.89633   0.63060   0.21659   0.00000  Uiso   1.00
C1841  C     0.87110   0.89773   0.78259   0.00000  Uiso   1.00
C1842  C     0.62914   0.60233   0.21756   0.00000  Uiso   1.00
C1843  C     0.89781   0.62900   0.78270   0.00000  Uiso   1.00
C1844  C     0.60488   0.86810   0.21556   0.00000  Uiso   1.00
C1845  C     0.87891   0.64773   0.71741   0.00000  Uiso   1.00
C1846  C     0.62086   0.85234   0.28244   0.00000  Uiso   1.00
C1847  C     0.85219   0.87900   0.71730   0.00000  Uiso   1.00
C1848  C     0.64516   0.61813   0.28441   0.00000  Uiso   1.00
C1849  C     0.61901   0.85422   0.71585   0.00000  Uiso   1.00
C1850  C     0.88029   0.64653   0.28344   0.00000  Uiso   1.00
C1851  C     0.64988   0.62339   0.71896   0.00000  Uiso   1.00
C1852  C     0.85367   0.88060   0.28341   0.00000  Uiso   1.00
C1853  C     0.87890   0.85227   0.28259   0.00000  Uiso   1.00
C1854  C     0.62089   0.64769   0.71758   0.00000  Uiso   1.00
C1855  C     0.85218   0.62101   0.28270   0.00000  Uiso   1.00
C1856  C     0.64519   0.88184   0.71560   0.00000  Uiso   1.00
C1857  C     0.61898   0.64575   0.28416   0.00000  Uiso   1.00
C1858  C     0.88029   0.85348   0.71656   0.00000  Uiso   1.00
C1859  C     0.64985   0.87664   0.28107   0.00000  Uiso   1.00
C1860  C     0.85367   0.61939   0.71659   0.00000  Uiso   1.00
C1861  C     0.96646   0.75074   0.45927   0.00000  Uiso   1.00
C1862  C     0.53317   0.75034   0.54069   0.00000  Uiso   1.00
C1863  C     0.74966   0.96671   0.45928   0.00000  Uiso   1.00
C1864  C     0.74965   0.53329   0.54072   0.00000  Uiso   1.00
C1865  C     0.53317   0.74962   0.45931   0.00000  Uiso   1.00
C1866  C     0.96646   0.74927   0.54073   0.00000  Uiso   1.00
C1867  C     0.75085   0.53330   0.45927   0.00000  Uiso   1.00
C1868  C     0.75087   0.96670   0.54073   0.00000  Uiso   1.00
C1869  C     0.71683   0.50028   0.95931   0.00000  Uiso   1.00
C1870  C     0.78354   0.50074   0.04073   0.00000  Uiso   1.00
C1871  C     0.99913   0.71670   0.95927   0.00000  Uiso   1.00
C1872  C     0.99917   0.78330   0.04073   0.00000  Uiso   1.00
C1873  C     0.78354   0.99928   0.95927   0.00000  Uiso   1.00
C1874  C     0.71683   0.99954   0.04070   0.00000  Uiso   1.00
C1875  C     0.50037   0.78329   0.95927   0.00000  Uiso   1.00
C1876  C     0.50034   0.71671   0.04072   0.00000  Uiso   1.00
C1877  C     0.59866   0.84749   0.24947   0.00000  Uiso   1.00
C1878  C     0.90182   0.65189   0.75005   0.00000  Uiso   1.00
C1879  C     0.65135   0.59750   0.25052   0.00000  Uiso   1.00
C1880  C     0.84818   0.90189   0.74995   0.00000  Uiso   1.00
C1881  C     0.90181   0.65204   0.25002   0.00000  Uiso   1.00
C1882  C     0.59667   0.84965   0.74885   0.00000  Uiso   1.00
C1883  C     0.84819   0.90204   0.24998   0.00000  Uiso   1.00
C1884  C     0.65333   0.59965   0.75115   0.00000  Uiso   1.00
C1885  C     0.59864   0.65250   0.75052   0.00000  Uiso   1.00
C1886  C     0.90182   0.84811   0.24995   0.00000  Uiso   1.00
C1887  C     0.65135   0.90250   0.74948   0.00000  Uiso   1.00
C1888  C     0.84818   0.59811   0.25005   0.00000  Uiso   1.00
C1889  C     0.90182   0.84796   0.74998   0.00000  Uiso   1.00
C1890  C     0.59668   0.65035   0.25114   0.00000  Uiso   1.00
C1891  C     0.84818   0.59796   0.75002   0.00000  Uiso   1.00
C1892  C     0.65334   0.90034   0.24885   0.00000  Uiso   1.00
C1893  C     0.99980   0.75008   0.47963   0.00000  Uiso   1.00
C1894  C     0.99980   0.74990   0.52036   0.00000  Uiso   1.00
C1895  C     0.75027   0.50000   0.47963   0.00000  Uiso   1.00
C1896  C     0.75027   0.50000   0.52037   0.00000  Uiso   1.00
C1897  C     0.75019   0.99987   0.97964   0.00000  Uiso   1.00
C1898  C     0.75019   0.50005   0.02037   0.00000  Uiso   1.00
C1899  C     0.99974   0.75000   0.97963   0.00000  Uiso   1.00
C1900  C     0.99974   0.75000   0.02037   0.00000  Uiso   1.00
H1901  H     0.90765   0.75088   0.46436   0.00000  Uiso   1.00
H1902  H     0.59198   0.75050   0.53563   0.00000  Uiso   1.00
H1903  H     0.74953   0.90802   0.46438   0.00000  Uiso   1.00
H1904  H     0.74950   0.59198   0.53562   0.00000  Uiso   1.00
H1905  H     0.59198   0.74942   0.46436   0.00000  Uiso   1.00
H1906  H     0.90765   0.74916   0.53564   0.00000  Uiso   1.00
H1907  H     0.75104   0.59199   0.46437   0.00000  Uiso   1.00
H1908  H     0.75108   0.90801   0.53564   0.00000  Uiso   1.00
H1909  H     0.65801   0.50037   0.96437   0.00000  Uiso   1.00
H1910  H     0.84235   0.50095   0.03564   0.00000  Uiso   1.00
H1911  H     0.99890   0.65801   0.96437   0.00000  Uiso   1.00
H1912  H     0.99900   0.84199   0.03563   0.00000  Uiso   1.00
H1913  H     0.84235   0.99923   0.96436   0.00000  Uiso   1.00
H1914  H     0.65801   0.99927   0.03564   0.00000  Uiso   1.00
H1915  H     0.50054   0.84198   0.96438   0.00000  Uiso   1.00
H1916  H     0.50045   0.65802   0.03562   0.00000  Uiso   1.00
H1917  H     0.55853   0.74797   0.40339   0.00000  Uiso   1.00
H1918  H     0.94115   0.74705   0.59684   0.00000  Uiso   1.00
H1919  H     0.75294   0.55861   0.40319   0.00000  Uiso   1.00
H1920  H     0.75298   0.94139   0.59681   0.00000  Uiso   1.00
H1921  H     0.94116   0.75297   0.40316   0.00000  Uiso   1.00
H1922  H     0.55853   0.75197   0.59660   0.00000  Uiso   1.00
H1923  H     0.74741   0.94141   0.40321   0.00000  Uiso   1.00
H1924  H     0.74739   0.55859   0.59679   0.00000  Uiso   1.00
H1925  H     0.80885   0.99709   0.90316   0.00000  Uiso   1.00
H1926  H     0.69147   0.99785   0.09661   0.00000  Uiso   1.00
H1927  H     0.50263   0.80859   0.90321   0.00000  Uiso   1.00
H1928  H     0.50258   0.69141   0.09679   0.00000  Uiso   1.00
H1929  H     0.69147   0.50191   0.90340   0.00000  Uiso   1.00
H1930  H     0.80884   0.50301   0.09684   0.00000  Uiso   1.00
H1931  H     0.99701   0.69139   0.90319   0.00000  Uiso   1.00
H1932  H     0.99709   0.80861   0.09681   0.00000  Uiso   1.00
O1933  O     0.75000   0.50000   0.25000   0.00000  Uiso   1.00
O1934  O     0.75000   0.50000   0.75000   0.00000  Uiso   1.00
O1935  O     0.50000   0.75000   0.25000   0.00000  Uiso   1.00
O1936  O     0.50000   0.75000   0.75000   0.00000  Uiso   1.00
O1937  O     0.75000   0.96964   0.33755   0.00000  Uiso   1.00
O1938  O     0.75000   0.53036   0.66245   0.00000  Uiso   1.00
O1939  O     0.53037   0.75000   0.33755   0.00000  Uiso   1.00
O1940  O     0.96964   0.75000   0.66245   0.00000  Uiso   1.00
O1941  O     0.75000   0.53036   0.33755   0.00000  Uiso   1.00
O1942  O     0.75000   0.96964   0.66245   0.00000  Uiso   1.00
O1943  O     0.96964   0.75000   0.33755   0.00000  Uiso   1.00
O1944  O     0.53037   0.75000   0.66245   0.00000  Uiso   1.00
O1945  O     0.50000   0.71963   0.83755   0.00000  Uiso   1.00
O1946  O     0.50000   0.78036   0.16245   0.00000  Uiso   1.00
O1947  O     0.78037   0.50000   0.83755   0.00000  Uiso   1.00
O1948  O     0.71964   0.50000   0.16245   0.00000  Uiso   1.00
O1949  O     0.50000   0.78036   0.83755   0.00000  Uiso   1.00
O1950  O     0.50000   0.71963   0.16245   0.00000  Uiso   1.00
O1951  O     0.71964   0.50000   0.83755   0.00000  Uiso   1.00
O1952  O     0.78037   0.50000   0.16245   0.00000  Uiso   1.00
O1953  O     0.70725   0.57307   0.27302   0.00000  Uiso   1.00
O1954  O     0.79276   0.92693   0.72698   0.00000  Uiso   1.00
O1955  O     0.92693   0.70724   0.27302   0.00000  Uiso   1.00
O1956  O     0.57308   0.79276   0.72698   0.00000  Uiso   1.00
O1957  O     0.79276   0.92693   0.27302   0.00000  Uiso   1.00
O1958  O     0.70725   0.57307   0.72698   0.00000  Uiso   1.00
O1959  O     0.57308   0.79276   0.27302   0.00000  Uiso   1.00
O1960  O     0.92693   0.70724   0.72698   0.00000  Uiso   1.00
O1961  O     0.70725   0.92693   0.72698   0.00000  Uiso   1.00
O1962  O     0.79276   0.57307   0.27302   0.00000  Uiso   1.00
O1963  O     0.92693   0.79275   0.72698   0.00000  Uiso   1.00
O1964  O     0.57308   0.70725   0.27302   0.00000  Uiso   1.00
O1965  O     0.79276   0.57307   0.72698   0.00000  Uiso   1.00
O1966  O     0.70725   0.92693   0.27302   0.00000  Uiso   1.00
O1967  O     0.57308   0.70725   0.72698   0.00000  Uiso   1.00
O1968  O     0.92693   0.79275   0.27302   0.00000  Uiso   1.00
O1969  O     0.95725   0.82307   0.77302   0.00000  Uiso   1.00
O1970  O     0.54276   0.67693   0.22698   0.00000  Uiso   1.00
O1971  O     0.67693   0.95725   0.77302   0.00000  Uiso   1.00
O1972  O     0.82308   0.54275   0.22698   0.00000  Uiso   1.00
O1973  O     0.54276   0.67693   0.77302   0.00000  Uiso   1.00
O1974  O     0.95725   0.82307   0.22698   0.00000  Uiso   1.00
O1975  O     0.82308   0.54275   0.77302   0.00000  Uiso   1.00
O1976  O     0.67693   0.95725   0.22698   0.00000  Uiso   1.00
O1977  O     0.95725   0.67692   0.22698   0.00000  Uiso   1.00
O1978  O     0.54276   0.82308   0.77302   0.00000  Uiso   1.00
O1979  O     0.67693   0.54275   0.22698   0.00000  Uiso   1.00
O1980  O     0.82308   0.95725   0.77302   0.00000  Uiso   1.00
O1981  O     0.54276   0.82308   0.22698   0.00000  Uiso   1.00
O1982  O     0.95725   0.67692   0.77302   0.00000  Uiso   1.00
O1983  O     0.82308   0.95725   0.22698   0.00000  Uiso   1.00
O1984  O     0.67693   0.54275   0.77302   0.00000  Uiso   1.00
Zn1985 Zn    0.70660   0.50000   0.21735   0.00000  Uiso   1.00
Zn1986 Zn    0.79341   0.50000   0.78265   0.00000  Uiso   1.00
Zn1987 Zn    0.50000   0.70659   0.21735   0.00000  Uiso   1.00
Zn1988 Zn    0.50000   0.79340   0.78265   0.00000  Uiso   1.00
Zn1989 Zn    0.79341   0.50000   0.21735   0.00000  Uiso   1.00
Zn1990 Zn    0.70660   0.50000   0.78265   0.00000  Uiso   1.00
Zn1991 Zn    0.50000   0.79340   0.21735   0.00000  Uiso   1.00
Zn1992 Zn    0.50000   0.70660   0.78265   0.00000  Uiso   1.00
Zn1993 Zn    0.95660   0.75000   0.71735   0.00000  Uiso   1.00
Zn1994 Zn    0.54341   0.75000   0.28265   0.00000  Uiso   1.00
Zn1995 Zn    0.75000   0.95660   0.71735   0.00000  Uiso   1.00
Zn1996 Zn    0.75000   0.54340   0.28265   0.00000  Uiso   1.00
Zn1997 Zn    0.54341   0.75000   0.71735   0.00000  Uiso   1.00
Zn1998 Zn    0.95660   0.75000   0.28265   0.00000  Uiso   1.00
Zn1999 Zn    0.75000   0.54340   0.71735   0.00000  Uiso   1.00
Zn2000 Zn    0.75000   0.95660   0.28265   0.00000  Uiso   1.00
O2001  O     0.63931   0.91373   0.18156   0.00000  Uiso   1.00
C2002  C     0.61270   0.94050   0.17385   0.00000  Uiso   1.00
H2003  H     0.60972   0.95946   0.19896   0.00000  Uiso   1.00
H2004  H     0.58586   0.92791   0.16743   0.00000  Uiso   1.00
C2005  C     0.62485   0.96205   0.13819   0.00000  Uiso   1.00
H2006  H     0.65196   0.97419   0.14412   0.00000  Uiso   1.00
H2007  H     0.62733   0.94343   0.11285   0.00000  Uiso   1.00
C2008  C     0.59815   0.99236   0.12831   0.00000  Uiso   1.00
H2009  H     0.59735   0.51227   0.15246   0.00000  Uiso   1.00
H2010  H     0.57043   0.98114   0.12333   0.00000  Uiso   1.00
H2011  H     0.60729   0.50656   0.10154   0.00000  Uiso   1.00
O2012  O     0.86470   0.58277   0.81658   0.00000  Uiso   1.00
C2013  C     0.83972   0.60070   0.84119   0.00000  Uiso   1.00
H2014  H     0.81262   0.60303   0.82675   0.00000  Uiso   1.00
H2015  H     0.84970   0.62837   0.84907   0.00000  Uiso   1.00
C2016  C     0.83549   0.57848   0.87841   0.00000  Uiso   1.00
H2017  H     0.82817   0.55014   0.87064   0.00000  Uiso   1.00
H2018  H     0.86186   0.57799   0.89430   0.00000  Uiso   1.00
C2019  C     0.80606   0.59420   0.90485   0.00000  Uiso   1.00
H2020  H     0.81262   0.62278   0.91260   0.00000  Uiso   1.00
H2021  H     0.80446   0.57794   0.93201   0.00000  Uiso   1.00
H2022  H     0.77914   0.59323   0.89013   0.00000  Uiso   1.00
O2023  O     0.57742   0.62899   0.18680   0.00000  Uiso   1.00
C2024  C     0.54554   0.60785   0.19294   0.00000  Uiso   1.00
H2025  H     0.52287   0.62157   0.17731   0.00000  Uiso   1.00
H2026  H     0.53715   0.60618   0.22412   0.00000  Uiso   1.00
C2027  C     0.54993   0.56950   0.17637   0.00000  Uiso   1.00
H2028  H     0.56136   0.57110   0.14648   0.00000  Uiso   1.00
H2029  H     0.56892   0.55391   0.19515   0.00000  Uiso   1.00
C2030  C     0.51355   0.54941   0.17503   0.00000  Uiso   1.00
H2031  H     0.50159   0.54750   0.20464   0.00000  Uiso   1.00
H2032  H     0.51781   0.52147   0.16366   0.00000  Uiso   1.00
H2033  H     0.99415   0.56378   0.15556   0.00000  Uiso   1.00
O2034  O     0.91672   0.86395   0.81673   0.00000  Uiso   1.00
C2035  C     0.89811   0.83919   0.84101   0.00000  Uiso   1.00
H2036  H     0.89479   0.81246   0.82613   0.00000  Uiso   1.00
H2037  H     0.87079   0.84995   0.84927   0.00000  Uiso   1.00
C2038  C     0.92046   0.83361   0.87798   0.00000  Uiso   1.00
H2039  H     0.94840   0.82506   0.86983   0.00000  Uiso   1.00
H2040  H     0.92231   0.85973   0.89413   0.00000  Uiso   1.00
C2041  C     0.90361   0.80473   0.90427   0.00000  Uiso   1.00
H2042  H     0.87546   0.81262   0.91258   0.00000  Uiso   1.00
H2043  H     0.92019   0.80195   0.93112   0.00000  Uiso   1.00
H2044  H     0.90301   0.77803   0.88917   0.00000  Uiso   1.00
O2045  O     0.86652   0.58085   0.18463   0.00000  Uiso   1.00
C2046  C     0.89426   0.55418   0.18373   0.00000  Uiso   1.00
H2047  H     0.89676   0.53999   0.21232   0.00000  Uiso   1.00
H2048  H     0.92090   0.56681   0.17626   0.00000  Uiso   1.00
C2049  C     0.88490   0.52590   0.15274   0.00000  Uiso   1.00
H2050  H     0.85814   0.51332   0.15963   0.00000  Uiso   1.00
H2051  H     0.88285   0.53935   0.12387   0.00000  Uiso   1.00
C2052  C     0.91377   0.99612   0.15087   0.00000  Uiso   1.00
H2053  H     0.91613   0.98242   0.17954   0.00000  Uiso   1.00
H2054  H     0.94061   0.50782   0.14276   0.00000  Uiso   1.00
H2055  H     0.90593   0.97561   0.12871   0.00000  Uiso   1.00
O2056  O     0.63383   0.91859   0.81546   0.00000  Uiso   1.00
C2057  C     0.65732   0.90008   0.84120   0.00000  Uiso   1.00
H2058  H     0.68474   0.89654   0.82777   0.00000  Uiso   1.00
H2059  H     0.64604   0.87293   0.84914   0.00000  Uiso   1.00
C2060  C     0.66121   0.92270   0.87818   0.00000  Uiso   1.00
H2061  H     0.67007   0.95055   0.87020   0.00000  Uiso   1.00
H2062  H     0.63433   0.92463   0.89293   0.00000  Uiso   1.00
C2063  C     0.68893   0.90616   0.90610   0.00000  Uiso   1.00
H2064  H     0.68078   0.87805   0.91411   0.00000  Uiso   1.00
H2065  H     0.69032   0.92282   0.93298   0.00000  Uiso   1.00
H2066  H     0.71637   0.90563   0.89248   0.00000  Uiso   1.00
O2067  O     0.91895   0.86592   0.18434   0.00000  Uiso   1.00
C2068  C     0.94634   0.89294   0.18311   0.00000  Uiso   1.00
H2069  H     0.96055   0.89557   0.21169   0.00000  Uiso   1.00
H2070  H     0.93427   0.91961   0.17514   0.00000  Uiso   1.00
C2071  C     0.97451   0.88260   0.15229   0.00000  Uiso   1.00
H2072  H     0.98645   0.85567   0.15951   0.00000  Uiso   1.00
H2073  H     0.96101   0.88055   0.12343   0.00000  Uiso   1.00
C2074  C     0.50509   0.91063   0.15005   0.00000  Uiso   1.00
H2075  H     0.99398   0.93773   0.14208   0.00000  Uiso   1.00
H2076  H     0.52515   0.90225   0.12760   0.00000  Uiso   1.00
H2077  H     0.51929   0.91264   0.17850   0.00000  Uiso   1.00
O2078  O     0.58448   0.63762   0.81769   0.00000  Uiso   1.00
C2079  C     0.60221   0.66380   0.84097   0.00000  Uiso   1.00
H2080  H     0.60349   0.69042   0.82552   0.00000  Uiso   1.00
H2081  H     0.63034   0.65489   0.84859   0.00000  Uiso   1.00
C2082  C     0.58051   0.66856   0.87850   0.00000  Uiso   1.00
H2083  H     0.55178   0.67483   0.87109   0.00000  Uiso   1.00
H2084  H     0.58104   0.64273   0.89530   0.00000  Uiso   1.00
C2085  C     0.59586   0.69917   0.90356   0.00000  Uiso   1.00
H2086  H     0.62476   0.69359   0.91106   0.00000  Uiso   1.00
H2087  H     0.57991   0.70126   0.93091   0.00000  Uiso   1.00
H2088  H     0.59400   0.72551   0.88787   0.00000  Uiso   1.00
O2089  O     0.63915   0.58617   0.81839   0.00000  Uiso   1.00
C2090  C     0.61264   0.55924   0.82586   0.00000  Uiso   1.00
H2091  H     0.61025   0.54007   0.80087   0.00000  Uiso   1.00
H2092  H     0.58557   0.57161   0.83165   0.00000  Uiso   1.00
C2093  C     0.62440   0.53811   0.86195   0.00000  Uiso   1.00
H2094  H     0.65201   0.52677   0.85694   0.00000  Uiso   1.00
H2095  H     0.62562   0.55684   0.88730   0.00000  Uiso   1.00
C2096  C     0.59836   0.50703   0.87105   0.00000  Uiso   1.00
H2097  H     0.59907   0.98692   0.84709   0.00000  Uiso   1.00
H2098  H     0.57015   0.51738   0.87482   0.00000  Uiso   1.00
H2099  H     0.60700   0.99332   0.89830   0.00000  Uiso   1.00
O2100  O     0.86473   0.91726   0.18343   0.00000  Uiso   1.00
C2101  C     0.83976   0.89934   0.15880   0.00000  Uiso   1.00
H2102  H     0.81266   0.89700   0.17322   0.00000  Uiso   1.00
H2103  H     0.84975   0.87167   0.15091   0.00000  Uiso   1.00
C2104  C     0.83556   0.92157   0.12159   0.00000  Uiso   1.00
H2105  H     0.82821   0.94990   0.12937   0.00000  Uiso   1.00
H2106  H     0.86194   0.92209   0.10573   0.00000  Uiso   1.00
C2107  C     0.80616   0.90585   0.09511   0.00000  Uiso   1.00
H2108  H     0.81276   0.87728   0.08734   0.00000  Uiso   1.00
H2109  H     0.80456   0.92213   0.06797   0.00000  Uiso   1.00
H2110  H     0.77923   0.90677   0.10980   0.00000  Uiso   1.00
O2111  O     0.57733   0.87111   0.81313   0.00000  Uiso   1.00
C2112  C     0.54547   0.89225   0.80689   0.00000  Uiso   1.00
H2113  H     0.52277   0.87856   0.82250   0.00000  Uiso   1.00
H2114  H     0.53713   0.89386   0.77569   0.00000  Uiso   1.00
C2115  C     0.54983   0.93063   0.82339   0.00000  Uiso   1.00
H2116  H     0.56119   0.92909   0.85331   0.00000  Uiso   1.00
H2117  H     0.56888   0.94619   0.80463   0.00000  Uiso   1.00
C2118  C     0.51345   0.95073   0.82458   0.00000  Uiso   1.00
H2119  H     0.50156   0.95256   0.79494   0.00000  Uiso   1.00
H2120  H     0.51769   0.97870   0.83587   0.00000  Uiso   1.00
H2121  H     0.99402   0.93641   0.84405   0.00000  Uiso   1.00
O2122  O     0.91672   0.63605   0.18327   0.00000  Uiso   1.00
C2123  C     0.89810   0.66081   0.15899   0.00000  Uiso   1.00
H2124  H     0.89477   0.68754   0.17386   0.00000  Uiso   1.00
H2125  H     0.87078   0.65003   0.15073   0.00000  Uiso   1.00
C2126  C     0.92044   0.66639   0.12202   0.00000  Uiso   1.00
H2127  H     0.94838   0.67497   0.13017   0.00000  Uiso   1.00
H2128  H     0.92232   0.64028   0.10587   0.00000  Uiso   1.00
C2129  C     0.90358   0.69526   0.09573   0.00000  Uiso   1.00
H2130  H     0.87544   0.68736   0.08741   0.00000  Uiso   1.00
H2131  H     0.92016   0.69805   0.06888   0.00000  Uiso   1.00
H2132  H     0.90296   0.72196   0.11083   0.00000  Uiso   1.00
O2133  O     0.86651   0.91914   0.81537   0.00000  Uiso   1.00
C2134  C     0.89425   0.94582   0.81628   0.00000  Uiso   1.00
H2135  H     0.89675   0.96000   0.78768   0.00000  Uiso   1.00
H2136  H     0.92089   0.93320   0.82376   0.00000  Uiso   1.00
C2137  C     0.88487   0.97411   0.84726   0.00000  Uiso   1.00
H2138  H     0.85810   0.98667   0.84037   0.00000  Uiso   1.00
H2139  H     0.88281   0.96066   0.87614   0.00000  Uiso   1.00
C2140  C     0.91373   0.50390   0.84913   0.00000  Uiso   1.00
H2141  H     0.91610   0.51759   0.82045   0.00000  Uiso   1.00
H2142  H     0.94057   0.99221   0.85725   0.00000  Uiso   1.00
H2143  H     0.90587   0.52441   0.87128   0.00000  Uiso   1.00
O2144  O     0.63384   0.58140   0.18453   0.00000  Uiso   1.00
C2145  C     0.65737   0.59986   0.15879   0.00000  Uiso   1.00
H2146  H     0.68479   0.60335   0.17222   0.00000  Uiso   1.00
H2147  H     0.64614   0.62702   0.15083   0.00000  Uiso   1.00
C2148  C     0.66121   0.57721   0.12182   0.00000  Uiso   1.00
H2149  H     0.67002   0.54934   0.12981   0.00000  Uiso   1.00
H2150  H     0.63433   0.57532   0.10707   0.00000  Uiso   1.00
C2151  C     0.68897   0.59369   0.09389   0.00000  Uiso   1.00
H2152  H     0.68088   0.62180   0.08586   0.00000  Uiso   1.00
H2153  H     0.69033   0.57701   0.06701   0.00000  Uiso   1.00
H2154  H     0.71641   0.59416   0.10751   0.00000  Uiso   1.00
O2155  O     0.91893   0.63409   0.81567   0.00000  Uiso   1.00
C2156  C     0.94630   0.60705   0.81691   0.00000  Uiso   1.00
H2157  H     0.96052   0.60441   0.78834   0.00000  Uiso   1.00
H2158  H     0.93422   0.58040   0.82489   0.00000  Uiso   1.00
C2159  C     0.97448   0.61739   0.84774   0.00000  Uiso   1.00
H2160  H     0.98645   0.64430   0.84050   0.00000  Uiso   1.00
H2161  H     0.96097   0.61946   0.87659   0.00000  Uiso   1.00
C2162  C     0.50502   0.58931   0.84999   0.00000  Uiso   1.00
H2163  H     0.99388   0.56224   0.85799   0.00000  Uiso   1.00
H2164  H     0.52510   0.59769   0.87243   0.00000  Uiso   1.00
H2165  H     0.51921   0.58727   0.82154   0.00000  Uiso   1.00
O2166  O     0.58461   0.86224   0.18225   0.00000  Uiso   1.00
C2167  C     0.60238   0.83602   0.15906   0.00000  Uiso   1.00
H2168  H     0.60371   0.80945   0.17459   0.00000  Uiso   1.00
H2169  H     0.63050   0.84496   0.15140   0.00000  Uiso   1.00
C2170  C     0.58068   0.83112   0.12154   0.00000  Uiso   1.00
H2171  H     0.55197   0.82481   0.12898   0.00000  Uiso   1.00
H2172  H     0.58115   0.85690   0.10467   0.00000  Uiso   1.00
C2173  C     0.59609   0.80047   0.09657   0.00000  Uiso   1.00
H2174  H     0.62497   0.80610   0.08903   0.00000  Uiso   1.00
H2175  H     0.58012   0.79827   0.06924   0.00000  Uiso   1.00
H2176  H     0.59430   0.77417   0.11235   0.00000  Uiso   1.00
O2177  O     0.88349   0.66914   0.68462   0.00000  Uiso   1.00
C2178  C     0.85576   0.69582   0.68372   0.00000  Uiso   1.00
H2179  H     0.85325   0.71000   0.71231   0.00000  Uiso   1.00
H2180  H     0.82912   0.68319   0.67623   0.00000  Uiso   1.00
C2181  C     0.86513   0.72410   0.65273   0.00000  Uiso   1.00
H2182  H     0.89190   0.73667   0.65963   0.00000  Uiso   1.00
H2183  H     0.86719   0.71065   0.62386   0.00000  Uiso   1.00
C2184  C     0.83627   0.75389   0.65086   0.00000  Uiso   1.00
H2185  H     0.83390   0.76758   0.67954   0.00000  Uiso   1.00
H2186  H     0.80943   0.74219   0.64274   0.00000  Uiso   1.00
H2187  H     0.84413   0.77440   0.62870   0.00000  Uiso   1.00
O2188  O     0.61613   0.83145   0.31548   0.00000  Uiso   1.00
C2189  C     0.59259   0.84994   0.34119   0.00000  Uiso   1.00
H2190  H     0.56519   0.85346   0.32772   0.00000  Uiso   1.00
H2191  H     0.60385   0.87709   0.34915   0.00000  Uiso   1.00
C2192  C     0.58867   0.82731   0.37816   0.00000  Uiso   1.00
H2193  H     0.57984   0.79945   0.37017   0.00000  Uiso   1.00
H2194  H     0.61553   0.82539   0.39295   0.00000  Uiso   1.00
C2195  C     0.56091   0.84384   0.40605   0.00000  Uiso   1.00
H2196  H     0.56903   0.87194   0.41408   0.00000  Uiso   1.00
H2197  H     0.55949   0.82717   0.43293   0.00000  Uiso   1.00
H2198  H     0.53349   0.84435   0.39239   0.00000  Uiso   1.00
O2199  O     0.83106   0.88409   0.68433   0.00000  Uiso   1.00
C2200  C     0.80369   0.85705   0.68310   0.00000  Uiso   1.00
H2201  H     0.78947   0.85441   0.71167   0.00000  Uiso   1.00
H2202  H     0.81577   0.83040   0.67513   0.00000  Uiso   1.00
C2203  C     0.77552   0.86738   0.65227   0.00000  Uiso   1.00
H2204  H     0.76355   0.89430   0.65950   0.00000  Uiso   1.00
H2205  H     0.78902   0.86945   0.62342   0.00000  Uiso   1.00
C2206  C     0.74497   0.83931   0.65002   0.00000  Uiso   1.00
H2207  H     0.75611   0.81224   0.64202   0.00000  Uiso   1.00
H2208  H     0.72489   0.84769   0.62758   0.00000  Uiso   1.00
H2209  H     0.73078   0.83727   0.67847   0.00000  Uiso   1.00
O2210  O     0.66545   0.61231   0.31772   0.00000  Uiso   1.00
C2211  C     0.64771   0.58610   0.34095   0.00000  Uiso   1.00
H2212  H     0.64640   0.55951   0.32546   0.00000  Uiso   1.00
H2213  H     0.61958   0.59503   0.34859   0.00000  Uiso   1.00
C2214  C     0.66940   0.58127   0.37847   0.00000  Uiso   1.00
H2215  H     0.69812   0.57498   0.37105   0.00000  Uiso   1.00
H2216  H     0.66890   0.60707   0.39531   0.00000  Uiso   1.00
C2217  C     0.65402   0.55064   0.40349   0.00000  Uiso   1.00
H2218  H     0.62513   0.55624   0.41100   0.00000  Uiso   1.00
H2219  H     0.66998   0.54849   0.43082   0.00000  Uiso   1.00
H2220  H     0.65584   0.52433   0.38775   0.00000  Uiso   1.00
O2221  O     0.61084   0.83618   0.68160   0.00000  Uiso   1.00
C2222  C     0.63736   0.80927   0.67412   0.00000  Uiso   1.00
H2223  H     0.63980   0.79011   0.69912   0.00000  Uiso   1.00
H2224  H     0.66441   0.82165   0.66827   0.00000  Uiso   1.00
C2225  C     0.62557   0.78810   0.63806   0.00000  Uiso   1.00
H2226  H     0.59801   0.77667   0.64315   0.00000  Uiso   1.00
H2227  H     0.62424   0.80682   0.61271   0.00000  Uiso   1.00
C2228  C     0.65168   0.75709   0.62890   0.00000  Uiso   1.00
H2229  H     0.65110   0.73699   0.65288   0.00000  Uiso   1.00
H2230  H     0.67985   0.76752   0.62503   0.00000  Uiso   1.00
H2231  H     0.64300   0.74334   0.60168   0.00000  Uiso   1.00
O2232  O     0.88528   0.66725   0.31657   0.00000  Uiso   1.00
C2233  C     0.91025   0.64932   0.34120   0.00000  Uiso   1.00
H2234  H     0.93734   0.64698   0.32678   0.00000  Uiso   1.00
H2235  H     0.90026   0.62166   0.34909   0.00000  Uiso   1.00
C2236  C     0.91447   0.67155   0.37841   0.00000  Uiso   1.00
H2237  H     0.92182   0.69988   0.37063   0.00000  Uiso   1.00
H2238  H     0.88809   0.67207   0.39427   0.00000  Uiso   1.00
C2239  C     0.94386   0.65582   0.40489   0.00000  Uiso   1.00
H2240  H     0.93726   0.62726   0.41266   0.00000  Uiso   1.00
H2241  H     0.94547   0.67210   0.43203   0.00000  Uiso   1.00
H2242  H     0.97080   0.65675   0.39018   0.00000  Uiso   1.00
O2243  O     0.67268   0.62112   0.68687   0.00000  Uiso   1.00
C2244  C     0.70453   0.64225   0.69311   0.00000  Uiso   1.00
H2245  H     0.72723   0.62856   0.67750   0.00000  Uiso   1.00
H2246  H     0.71287   0.64386   0.72431   0.00000  Uiso   1.00
C2247  C     0.70017   0.68063   0.67662   0.00000  Uiso   1.00
H2248  H     0.68882   0.67909   0.64669   0.00000  Uiso   1.00
H2249  H     0.68113   0.69619   0.69538   0.00000  Uiso   1.00
C2250  C     0.73656   0.70073   0.67542   0.00000  Uiso   1.00
H2251  H     0.74845   0.70256   0.70506   0.00000  Uiso   1.00
H2252  H     0.73232   0.72870   0.66412   0.00000  Uiso   1.00
H2253  H     0.75599   0.68641   0.65595   0.00000  Uiso   1.00
O2254  O     0.83328   0.88605   0.31673   0.00000  Uiso   1.00
C2255  C     0.85189   0.91080   0.34101   0.00000  Uiso   1.00
H2256  H     0.85522   0.93754   0.32614   0.00000  Uiso   1.00
H2257  H     0.87921   0.90003   0.34927   0.00000  Uiso   1.00
C2258  C     0.82955   0.91638   0.37798   0.00000  Uiso   1.00
H2259  H     0.80161   0.92495   0.36983   0.00000  Uiso   1.00
H2260  H     0.82768   0.89026   0.39412   0.00000  Uiso   1.00
C2261  C     0.84640   0.94525   0.40428   0.00000  Uiso   1.00
H2262  H     0.87455   0.93735   0.41259   0.00000  Uiso   1.00
H2263  H     0.82982   0.94803   0.43113   0.00000  Uiso   1.00
H2264  H     0.84702   0.97195   0.38918   0.00000  Uiso   1.00
O2265  O     0.88348   0.83085   0.31537   0.00000  Uiso   1.00
C2266  C     0.85574   0.80418   0.31626   0.00000  Uiso   1.00
H2267  H     0.85324   0.78999   0.28767   0.00000  Uiso   1.00
H2268  H     0.82910   0.81680   0.32374   0.00000  Uiso   1.00
C2269  C     0.86510   0.77589   0.34726   0.00000  Uiso   1.00
H2270  H     0.89187   0.76332   0.34037   0.00000  Uiso   1.00
H2271  H     0.86715   0.78934   0.37613   0.00000  Uiso   1.00
C2272  C     0.83623   0.74611   0.34911   0.00000  Uiso   1.00
H2273  H     0.83387   0.73241   0.32044   0.00000  Uiso   1.00
H2274  H     0.80939   0.75781   0.35723   0.00000  Uiso   1.00
H2275  H     0.84408   0.72560   0.37128   0.00000  Uiso   1.00
O2276  O     0.61619   0.66860   0.68454   0.00000  Uiso   1.00
C2277  C     0.59269   0.65011   0.65880   0.00000  Uiso   1.00
H2278  H     0.56527   0.64659   0.67222   0.00000  Uiso   1.00
H2279  H     0.60396   0.62296   0.65085   0.00000  Uiso   1.00
C2280  C     0.58882   0.67274   0.62182   0.00000  Uiso   1.00
H2281  H     0.57997   0.70060   0.62980   0.00000  Uiso   1.00
H2282  H     0.61570   0.67467   0.60707   0.00000  Uiso   1.00
C2283  C     0.56110   0.65622   0.59389   0.00000  Uiso   1.00
H2284  H     0.56923   0.62811   0.58587   0.00000  Uiso   1.00
H2285  H     0.55972   0.67289   0.56701   0.00000  Uiso   1.00
H2286  H     0.53366   0.65571   0.60751   0.00000  Uiso   1.00
O2287  O     0.83105   0.61592   0.31567   0.00000  Uiso   1.00
C2288  C     0.80367   0.64294   0.31690   0.00000  Uiso   1.00
H2289  H     0.78946   0.64557   0.28832   0.00000  Uiso   1.00
H2290  H     0.81575   0.66960   0.32486   0.00000  Uiso   1.00
C2291  C     0.77550   0.63261   0.34772   0.00000  Uiso   1.00
H2292  H     0.76355   0.60568   0.34050   0.00000  Uiso   1.00
H2293  H     0.78901   0.63055   0.37658   0.00000  Uiso   1.00
C2294  C     0.74494   0.66066   0.34997   0.00000  Uiso   1.00
H2295  H     0.75606   0.68774   0.35794   0.00000  Uiso   1.00
H2296  H     0.72487   0.65228   0.37241   0.00000  Uiso   1.00
H2297  H     0.73074   0.66267   0.32152   0.00000  Uiso   1.00
O2298  O     0.66551   0.88763   0.68230   0.00000  Uiso   1.00
C2299  C     0.64778   0.91382   0.65903   0.00000  Uiso   1.00
H2300  H     0.64649   0.94043   0.67449   0.00000  Uiso   1.00
H2301  H     0.61964   0.90491   0.65140   0.00000  Uiso   1.00
C2302  C     0.66947   0.91859   0.62150   0.00000  Uiso   1.00
H2303  H     0.69820   0.92487   0.62891   0.00000  Uiso   1.00
H2304  H     0.66895   0.89277   0.60470   0.00000  Uiso   1.00
C2305  C     0.65411   0.94920   0.59645   0.00000  Uiso   1.00
H2306  H     0.62522   0.94362   0.58894   0.00000  Uiso   1.00
H2307  H     0.67007   0.95131   0.56910   0.00000  Uiso   1.00
H2308  H     0.65596   0.97554   0.61215   0.00000  Uiso   1.00
O2309  O     0.61076   0.66377   0.31841   0.00000  Uiso   1.00
C2310  C     0.63731   0.69063   0.32601   0.00000  Uiso   1.00
H2311  H     0.64000   0.70969   0.30096   0.00000  Uiso   1.00
H2312  H     0.66427   0.67816   0.33213   0.00000  Uiso   1.00
C2313  C     0.62533   0.71197   0.36187   0.00000  Uiso   1.00
H2314  H     0.59796   0.72368   0.35640   0.00000  Uiso   1.00
H2315  H     0.62350   0.69330   0.38723   0.00000  Uiso   1.00
C2316  C     0.65167   0.74270   0.37134   0.00000  Uiso   1.00
H2317  H     0.65168   0.76271   0.34728   0.00000  Uiso   1.00
H2318  H     0.67965   0.73196   0.37571   0.00000  Uiso   1.00
H2319  H     0.64277   0.75665   0.39836   0.00000  Uiso   1.00
O2320  O     0.88529   0.83276   0.68342   0.00000  Uiso   1.00
C2321  C     0.91028   0.85069   0.65881   0.00000  Uiso   1.00
H2322  H     0.93737   0.85300   0.67324   0.00000  Uiso   1.00
H2323  H     0.90030   0.87836   0.65093   0.00000  Uiso   1.00
C2324  C     0.91448   0.82847   0.62159   0.00000  Uiso   1.00
H2325  H     0.92179   0.80012   0.62936   0.00000  Uiso   1.00
H2326  H     0.88811   0.82799   0.60571   0.00000  Uiso   1.00
C2327  C     0.94391   0.84417   0.59514   0.00000  Uiso   1.00
H2328  H     0.93736   0.87276   0.58740   0.00000  Uiso   1.00
H2329  H     0.94550   0.82792   0.56798   0.00000  Uiso   1.00
H2330  H     0.97084   0.84319   0.60985   0.00000  Uiso   1.00
O2331  O     0.67259   0.87898   0.31320   0.00000  Uiso   1.00
C2332  C     0.70446   0.85784   0.30705   0.00000  Uiso   1.00
H2333  H     0.72712   0.87155   0.32270   0.00000  Uiso   1.00
H2334  H     0.71286   0.85620   0.27587   0.00000  Uiso   1.00
C2335  C     0.70007   0.81948   0.32359   0.00000  Uiso   1.00
H2336  H     0.68865   0.82104   0.35348   0.00000  Uiso   1.00
H2337  H     0.68107   0.80390   0.30479   0.00000  Uiso   1.00
C2338  C     0.73645   0.79938   0.32490   0.00000  Uiso   1.00
H2339  H     0.74841   0.79751   0.29529   0.00000  Uiso   1.00
H2340  H     0.73219   0.77143   0.33623   0.00000  Uiso   1.00
H2341  H     0.75585   0.81373   0.34439   0.00000  Uiso   1.00
O2342  O     0.83329   0.61394   0.68326   0.00000  Uiso   1.00
C2343  C     0.85190   0.58918   0.65899   0.00000  Uiso   1.00
H2344  H     0.85522   0.56245   0.67387   0.00000  Uiso   1.00
H2345  H     0.87922   0.59995   0.65074   0.00000  Uiso   1.00
C2346  C     0.82956   0.58360   0.62203   0.00000  Uiso   1.00
H2347  H     0.80162   0.57504   0.63017   0.00000  Uiso   1.00
H2348  H     0.82770   0.60971   0.60587   0.00000  Uiso   1.00
C2349  C     0.84641   0.55471   0.59574   0.00000  Uiso   1.00
H2350  H     0.87456   0.56261   0.58743   0.00000  Uiso   1.00
H2351  H     0.82984   0.55193   0.56889   0.00000  Uiso   1.00
H2352  H     0.84702   0.52802   0.61084   0.00000  Uiso   1.00
loop_
_geom_bond_atom_site_label_1
_geom_bond_atom_site_label_2
_geom_bond_distance
_geom_bond_site_symmetry_2
_ccdc_geom_bond_type
C1     C101    1.391   .     A
C1     H153    1.081   .     S
C1     C605    1.402   1_455 S
C2     C102    1.393   .     A
C2     H154    1.083   .     S
C2     C18     1.403   .     A
C3     C19     1.403   .     A
C3     C103    1.392   .     A
C3     H155    1.084   .     S
C4     C104    1.392   .     A
C4     C20     1.403   .     A
C4     H156    1.084   .     S
C5     C97     1.393   .     A
C5     C17     1.403   .     A
C5     H157    1.083   .     S
C6     H158    1.081   .     S
C6     C98     1.391   .     A
C6     C606    1.402   1_455 S
C7     C99     1.392   .     A
C7     H159    1.083   .     S
C7     C1195   1.403   .     S
C8     C100    1.392   .     A
C8     H160    1.083   .     S
C8     C1196   1.403   1_545 S
C9     C21     1.403   .     A
C9     H161    1.083   .     S
C9     C109    1.393   .     A
C10    H162    1.081   .     S
C10    C110    1.391   .     A
C10    C1198   1.402   .     S
C11    H163    1.083   .     S
C11    C111    1.392   .     A
C11    C611    1.403   1_455 S
C12    C112    1.392   .     A
C12    H164    1.083   .     S
C12    C612    1.403   1_455 S
C13    H165    1.081   .     S
C13    C105    1.391   .     A
C13    C1197   1.402   1_545 S
C14    H166    1.083   .     S
C14    C22     1.403   .     A
C14    C106    1.393   .     A
C15    H167    1.084   .     S
C15    C107    1.392   .     A
C15    C23     1.403   .     A
C16    C24     1.403   .     A
C16    H168    1.084   .     S
C16    C108    1.392   .     A
C17    C43     1.461   .     S
C17    C589    1.402   .     S
C18    C44     1.461   .     S
C18    C594    1.402   .     S
C19    C41     1.461   .     S
C19    C1183   1.403   1_545 S
C20    C1218   1.461   .     S
C20    C1184   1.403   .     S
C21    C47     1.461   .     S
C21    C1189   1.402   .     S
C22    C48     1.461   .     S
C22    C1186   1.402   1_545 S
C23    C45     1.461   .     S
C23    C599    1.403   .     S
C24    C46     1.461   .     S
C24    C600    1.403   .     S
C25    H137    1.084   .     S
C25    C97     1.402   .     A
C25    C30     1.395   .     A
C26    C29     1.394   .     A
C26    H138    1.084   .     S
C26    C98     1.402   .     A
C27    C99     1.402   .     A
C27    H139    1.084   .     S
C27    C32     1.394   .     A
C28    C31     1.394   .     A
C28    H140    1.084   .     S
C28    C100    1.402   .     A
C29    H141    1.084   .     S
C29    C101    1.402   .     A
C30    C102    1.402   .     A
C30    H142    1.084   .     S
C31    H143    1.084   .     S
C31    C103    1.402   .     A
C32    H144    1.084   .     S
C32    C104    1.402   .     A
C33    C105    1.402   .     A
C33    H145    1.084   .     S
C33    C1214   1.394   1_546 S
C34    C106    1.402   .     A
C34    H146    1.084   .     S
C34    C1213   1.395   1_544 S
C35    C107    1.402   .     A
C35    H147    1.084   .     S
C35    C628    1.394   1_556 S
C36    H148    1.084   .     S
C36    C108    1.402   .     A
C36    C627    1.394   1_554 S
C37    C109    1.402   .     A
C37    H149    1.084   .     S
C37    C1210   1.395   1_556 S
C38    C110    1.402   .     A
C38    H150    1.084   .     S
C38    C1209   1.394   1_554 S
C39    C111    1.402   .     A
C39    H151    1.084   .     S
C39    C624    1.394   1_456 S
C40    H152    1.084   .     S
C40    C112    1.402   .     A
C40    C623    1.394   1_454 S
C41    O177    1.283   .     A
C41    O1349   1.284   1_545 S
C42    C1196   1.461   1_545 S
C42    O1354   1.283   1_545 A
C42    O174    1.284   .     S
C43    O179    1.281   .     A
C43    O763    1.283   .     S
C44    O176    1.281   .     A
C44    O768    1.283   .     S
C45    O773    1.284   .     A
C45    O769    1.283   .     A
C46    O774    1.284   .     A
C46    O770    1.283   .     A
C47    O1359   1.281   .     S
C47    O1363   1.283   .     S
C48    O184    1.283   .     S
C48    O188    1.281   .     S
C49    C115    1.458   .     S
C49    O215    1.281   .     A
C49    O189    1.282   .     A
C50    O216    1.283   .     A
C50    C116    1.460   .     S
C50    O190    1.282   .     A
C51    O191    1.281   .     A
C51    C117    1.458   .     S
C51    O213    1.282   .     A
C52    O214    1.278   .     A
C52    C118    1.462   .     S
C52    O192    1.287   .     A
C53    O219    1.281   .     A
C53    O193    1.282   .     A
C53    C119    1.458   .     S
C54    O194    1.278   .     A
C54    C120    1.462   .     S
C54    O220    1.287   .     A
C55    O217    1.282   .     A
C55    O195    1.281   .     A
C55    C113    1.458   .     S
C56    O218    1.282   .     A
C56    O196    1.283   .     A
C56    C114    1.460   .     S
C57    C123    1.458   .     S
C57    O197    1.282   .     A
C57    O207    1.281   .     A
C58    O208    1.283   .     A
C58    O198    1.282   .     A
C58    C124    1.460   .     S
C59    C125    1.458   .     S
C59    O205    1.282   .     A
C59    O199    1.281   .     A
C60    O200    1.287   .     A
C60    O206    1.278   .     A
C60    C126    1.462   .     S
C61    C127    1.458   .     S
C61    O211    1.281   .     A
C61    O201    1.282   .     A
C62    O212    1.287   .     A
C62    O202    1.278   .     A
C62    C128    1.462   .     S
C63    O203    1.281   .     A
C63    O209    1.282   .     A
C63    C121    1.458   .     S
C64    O204    1.283   .     A
C64    O210    1.282   .     A
C64    C122    1.460   .     S
C65    C128    1.410   .     A
C65    C80     1.398   .     A
C65    O237    1.385   .     S
C66    O248    1.383   .     S
C66    C79     1.395   .     A
C66    C127    1.409   .     A
C67    O259    1.387   .     S
C67    C126    1.415   .     A
C67    C78     1.390   .     A
C68    C77     1.394   .     A
C68    C125    1.408   .     A
C68    O270    1.383   .     S
C69    C124    1.411   .     A
C69    C76     1.394   .     A
C69    O281    1.385   .     S
C70    O292    1.383   .     S
C70    C75     1.390   .     A
C70    C123    1.407   .     A
C71    C122    1.411   .     A
C71    O303    1.386   .     S
C71    C74     1.395   .     A
C72    C73     1.398   .     A
C72    O314    1.383   .     S
C72    C121    1.409   .     A
C73    O325    1.385   .     S
C73    C120    1.410   .     A
C74    O336    1.383   .     S
C74    C119    1.409   .     A
C75    C118    1.415   .     A
C75    O347    1.387   .     S
C76    C117    1.408   .     A
C76    O358    1.383   .     S
C77    O369    1.385   .     S
C77    C116    1.411   .     A
C78    C115    1.407   .     A
C78    O380    1.383   .     S
C79    O391    1.386   .     S
C79    C114    1.411   .     A
C80    O402    1.383   .     S
C80    C113    1.409   .     A
C81    C114    1.411   .     A
C81    O413    1.385   .     S
C81    C96     1.394   .     A
C82    O424    1.383   .     S
C82    C95     1.390   .     A
C82    C113    1.407   .     A
C83    O435    1.386   .     S
C83    C94     1.395   .     A
C83    C116    1.411   .     A
C84    O446    1.383   .     S
C84    C93     1.398   .     A
C84    C115    1.409   .     A
C85    C118    1.410   .     A
C85    C92     1.398   .     A
C85    O457    1.385   .     S
C86    C117    1.409   .     A
C86    C91     1.395   .     A
C86    O468    1.383   .     S
C87    O479    1.387   .     S
C87    C90     1.390   .     A
C87    C120    1.415   .     A
C88    C119    1.408   .     A
C88    C89     1.394   .     A
C88    O490    1.383   .     S
C89    O501    1.385   .     S
C89    C122    1.411   .     A
C90    C121    1.407   .     A
C90    O512    1.383   .     S
C91    O523    1.386   .     S
C91    C124    1.411   .     A
C92    O534    1.383   .     S
C92    C123    1.409   .     A
C93    C126    1.410   .     A
C93    O545    1.385   .     S
C94    O556    1.383   .     S
C94    C125    1.409   .     A
C95    C128    1.415   .     A
C95    O567    1.387   .     S
C96    C127    1.408   .     A
C96    O578    1.383   .     S
C97    C129    1.411   .     A
C98    C718    1.410   1_455 S
C99    C1307   1.410   .     S
C100   C132    1.410   .     S
C101   C717    1.410   1_455 S
C102   C130    1.411   .     A
C103   C131    1.411   .     A
C104   C1308   1.411   .     A
C105   C1309   1.410   1_545 S
C106   C134    1.411   .     A
C107   C135    1.411   .     A
C108   C136    1.411   .     A
C109   C133    1.411   .     A
C110   C1310   1.410   .     S
C111   C723    1.410   1_455 S
C112   C724    1.410   1_455 S
C129   C130    1.400   .     A
C129   C689    1.410   .     S
C130   C686    1.410   .     S
C131   C1275   1.410   1_545 S
C131   C132    1.401   .     S
C132   C1280   1.411   1_545 A
C133   C1281   1.410   .     S
C133   C1310   1.400   1_556 S
C134   C1286   1.410   1_545 S
C134   C1309   1.400   1_544 S
C135   C699    1.410   .     S
C135   C136    1.401   1_556 S
C136   C700    1.410   .     S
C136   C135    1.401   1_554 S
O169   Zn1412  1.952   1_545 S
O169   Zn225   1.949   .     S
O169   Zn221   1.949   .     S
O169   Zn232   1.952   .     S
O170   Zn226   1.949   .     S
O170   Zn235   1.952   .     S
O170   Zn222   1.949   .     S
O170   Zn1407  1.952   1_545 S
O171   Zn223   1.952   .     S
O171   Zn227   1.952   .     S
O171   Zn822   1.949   1_455 S
O171   Zn230   1.949   .     S
O172   Zn233   1.949   .     S
O172   Zn228   1.952   .     S
O172   Zn224   1.952   .     S
O172   Zn817   1.949   1_455 S
O173   Zn236   1.948   .     S
O173   C1217   1.284   .     S
O174   Zn235   1.948   .     S
O175   Zn230   1.947   .     S
O175   C631    1.283   1_455 S
O176   Zn229   1.947   .     S
O177   Zn232   1.948   .     S
O178   C1218   1.283   .     A
O178   Zn231   1.948   .     S
O179   Zn234   1.947   .     S
O180   Zn233   1.947   .     S
O180   C632    1.283   1_455 S
O181   C633    1.283   1_455 A
O181   Zn228   1.948   .     S
O182   Zn227   1.948   .     S
O182   C634    1.283   1_455 A
O183   Zn222   1.947   .     S
O183   C1223   1.281   1_545 S
O184   Zn221   1.947   .     S
O185   C633    1.284   1_455 A
O185   Zn224   1.948   .     S
O186   Zn223   1.948   .     S
O186   C634    1.284   1_455 A
O187   Zn226   1.947   .     S
O187   C1223   1.283   1_545 S
O188   Zn225   1.947   .     S
O189   Zn232   1.940   .     S
O190   Zn231   1.940   .     S
O191   Zn234   1.941   .     S
O192   Zn233   1.941   .     S
O193   Zn236   1.940   .     S
O194   Zn235   1.940   .     S
O195   Zn230   1.941   .     S
O196   Zn229   1.941   .     S
O197   Zn231   1.940   .     S
O198   Zn232   1.940   .     S
O199   Zn229   1.941   .     S
O200   Zn230   1.941   .     S
O201   Zn235   1.940   .     S
O202   Zn236   1.940   .     S
O203   Zn233   1.941   .     S
O204   Zn234   1.941   .     S
O205   Zn812   1.940   .     S
O206   Zn223   1.940   .     S
O207   Zn1402  1.941   .     S
O208   Zn225   1.941   .     S
O209   Zn228   1.940   .     S
O210   Zn815   1.940   .     S
O211   Zn222   1.941   .     S
O212   Zn1397  1.941   .     S
O213   Zn811   1.940   .     S
O214   Zn224   1.940   .     S
O215   Zn221   1.941   .     S
O216   Zn1398  1.941   .     S
O217   Zn227   1.940   .     S
O218   Zn816   1.940   .     S
O219   Zn1401  1.941   .     S
O220   Zn226   1.941   .     S
Zn221  O1388   1.941   1_545 S
Zn222  O1392   1.941   1_545 S
Zn223  O801    1.940   1_455 S
Zn224  O793    1.940   1_455 S
Zn225  O1395   1.941   1_545 S
Zn226  O1383   1.941   1_545 S
Zn227  O798    1.940   1_455 S
Zn228  O806    1.940   1_455 S
Zn229  O760    1.949   .     S
Zn231  O1346   1.952   .     S
Zn234  O759    1.949   .     S
Zn236  O1345   1.952   .     S
O237   C238    1.412   .     S
C238   C241    1.527   .     S
C238   H239    1.115   .     S
C238   H240    1.111   .     S
C241   C244    1.523   .     S
C241   H242    1.110   .     S
C241   H243    1.112   .     S
C244   H246    1.111   .     S
C244   H1421   1.107   .     S
C244   H1423   1.110   .     S
H245   C1420   1.107   1_545 S
H247   C1420   1.110   1_545 S
O248   C249    1.411   .     S
C249   H250    1.115   .     S
C249   C252    1.526   .     S
C249   H251    1.115   .     S
C252   C255    1.526   .     S
C252   H253    1.109   .     S
C252   H254    1.112   .     S
C255   H257    1.110   .     S
C255   H258    1.111   .     S
C255   H256    1.111   .     S
O259   C260    1.421   .     S
C260   H261    1.112   .     S
C260   C263    1.529   .     S
C260   H262    1.117   .     S
C263   H264    1.112   .     S
C263   H265    1.110   .     S
C263   C266    1.527   .     S
C266   H268    1.111   .     S
C266   H267    1.111   .     S
C266   H857    1.111   1_455 S
H269   C854    1.111   .     S
O270   C271    1.412   .     S
C271   H272    1.115   .     S
C271   C274    1.526   .     S
C271   H273    1.115   .     S
C274   C277    1.526   .     S
C274   H275    1.109   .     S
C274   H276    1.112   .     S
C277   H278    1.111   .     S
C277   H280    1.111   .     S
C277   H279    1.110   .     S
O281   C282    1.414   .     S
C282   H283    1.117   .     S
C282   C285    1.528   .     S
C282   H284    1.113   .     S
C285   H287    1.112   .     S
C285   H286    1.112   .     S
C285   C1464   1.525   1_545 S
C288   H291    1.110   .     S
C288   H289    1.110   .     S
C288   C1461   1.525   .     S
C288   H1466   1.111   .     S
H290   C1464   1.111   1_545 S
O292   C293    1.411   .     S
C293   H294    1.115   .     S
C293   C296    1.526   .     S
C293   H295    1.115   .     S
C296   C299    1.526   .     S
C296   H298    1.112   .     S
C296   H297    1.109   .     S
C299   H302    1.111   .     S
C299   H300    1.111   .     S
C299   H301    1.110   .     S
O303   C304    1.414   .     S
C304   C307    1.529   .     S
C304   H305    1.117   .     S
C304   H306    1.110   .     S
C307   H308    1.111   .     S
C307   H309    1.112   .     S
C307   C898    1.526   .     S
C310   H312    1.110   .     S
C310   H313    1.111   .     S
C310   C895    1.526   1_455 S
C310   H899    1.111   1_455 S
H311   C898    1.111   .     S
O314   C315    1.411   .     S
C315   C318    1.527   .     S
C315   H317    1.115   .     S
C315   H316    1.115   .     S
C318   C321    1.526   .     S
C318   H320    1.112   .     S
C318   H319    1.109   .     S
C321   H322    1.111   .     S
C321   H324    1.111   .     S
C321   H323    1.110   .     S
O325   C326    1.412   .     S
C326   H327    1.115   .     S
C326   C329    1.527   .     S
C326   H328    1.111   .     S
C329   H331    1.112   .     S
C329   H330    1.109   .     S
C329   C332    1.523   .     S
C332   H334    1.111   .     S
C332   H1509   1.108   1_545 S
C332   H1511   1.110   1_545 S
H333   C1508   1.108   .     S
H335   C1508   1.110   .     S
O336   C337    1.411   .     S
C337   H338    1.115   .     S
C337   C340    1.526   .     S
C337   H339    1.115   .     S
C340   H341    1.109   .     S
C340   C343    1.526   .     S
C340   H342    1.112   .     S
C343   H345    1.110   .     S
C343   H344    1.111   .     S
C343   H346    1.111   .     S
O347   C348    1.421   .     S
C348   H349    1.112   .     S
C348   C351    1.530   .     S
C348   H350    1.117   .     S
C351   H352    1.112   .     S
C351   C354    1.527   .     S
C351   H353    1.110   .     S
C354   H355    1.111   .     S
C354   H356    1.111   .     S
C354   H945    1.111   1_455 S
H357   C942    1.111   .     S
O358   C359    1.412   .     S
C359   H360    1.115   .     S
C359   C362    1.526   .     S
C359   H361    1.115   .     S
C362   H363    1.109   .     S
C362   H364    1.112   .     S
C362   C365    1.526   .     S
C365   H366    1.111   .     S
C365   H368    1.111   .     S
C365   H367    1.110   .     S
O369   C370    1.414   .     S
C370   H371    1.117   .     S
C370   H372    1.113   .     S
C370   C373    1.528   .     S
C373   H375    1.112   .     S
C373   H374    1.112   .     S
C373   C1552   1.525   .     S
C376   H379    1.110   .     S
C376   H377    1.110   .     S
C376   C1549   1.525   1_545 S
C376   H1554   1.111   1_545 S
H378   C1552   1.111   .     S
O380   C381    1.411   .     S
C381   H382    1.115   .     S
C381   C384    1.526   .     S
C381   H383    1.115   .     S
C384   H386    1.112   .     S
C384   H385    1.109   .     S
C384   C387    1.526   .     S
C387   H390    1.111   .     S
C387   H388    1.111   .     S
C387   H389    1.110   .     S
O391   C392    1.414   .     S
C392   H393    1.117   .     S
C392   C395    1.529   .     S
C392   H394    1.110   .     S
C395   H396    1.111   .     S
C395   H397    1.112   .     S
C395   C986    1.526   .     S
C398   H400    1.110   .     S
C398   H401    1.111   .     S
C398   C983    1.526   1_455 S
C398   H987    1.111   1_455 S
H399   C986    1.111   .     S
O402   C403    1.411   .     S
C403   H405    1.115   .     S
C403   C406    1.527   .     S
C403   H404    1.115   .     S
C406   H408    1.112   .     S
C406   H407    1.109   .     S
C406   C409    1.526   .     S
C409   H410    1.111   .     S
C409   H412    1.111   .     S
C409   H411    1.110   .     S
O413   C414    1.414   .     S
C414   C417    1.528   .     S
C414   H416    1.113   .     S
C414   H415    1.117   .     S
C417   H419    1.112   .     S
C417   H418    1.112   .     S
C417   C420    1.525   .     S
C420   H421    1.110   .     S
C420   H423    1.110   .     S
C420   H422    1.111   .     S
O424   C425    1.411   .     S
C425   H426    1.115   .     S
C425   H427    1.115   .     S
C425   C428    1.526   .     S
C428   H429    1.109   .     S
C428   C431    1.526   .     S
C428   H430    1.112   .     S
C431   H433    1.110   .     S
C431   H432    1.111   .     S
C431   H434    1.111   .     S
O435   C436    1.414   .     S
C436   C439    1.529   .     S
C436   H437    1.117   .     S
C436   H438    1.110   .     S
C439   H440    1.111   .     S
C439   H441    1.112   .     S
C439   C442    1.526   .     S
C442   H443    1.111   .     S
C442   H444    1.110   .     S
C442   H445    1.111   .     S
O446   C447    1.411   .     S
C447   H449    1.115   .     S
C447   H448    1.115   .     S
C447   C450    1.527   .     S
C450   H452    1.112   .     S
C450   C453    1.526   .     S
C450   H451    1.109   .     S
C453   H456    1.111   .     S
C453   H455    1.110   .     S
C453   H454    1.111   .     S
O457   C458    1.412   .     S
C458   C461    1.527   .     S
C458   H459    1.115   .     S
C458   H460    1.111   .     S
C461   H462    1.109   .     S
C461   C464    1.523   .     S
C461   H463    1.112   .     S
C464   H465    1.108   .     S
C464   H467    1.110   .     S
C464   H466    1.111   .     S
O468   C469    1.411   .     S
C469   H470    1.115   .     S
C469   H471    1.115   .     S
C469   C472    1.526   .     S
C472   C475    1.526   .     S
C472   H473    1.109   .     S
C472   H474    1.112   .     S
C475   H478    1.111   .     S
C475   H476    1.111   .     S
C475   H477    1.110   .     S
O479   C480    1.421   .     S
C480   H481    1.112   .     S
C480   C483    1.530   .     S
C480   H482    1.117   .     S
C483   C486    1.527   .     S
C483   H484    1.112   .     S
C483   H485    1.110   .     S
C486   H487    1.111   .     S
C486   H489    1.111   .     S
C486   H488    1.111   .     S
O490   C491    1.412   .     S
C491   H493    1.115   .     S
C491   C494    1.526   .     S
C491   H492    1.115   .     S
C494   H496    1.112   .     S
C494   C497    1.526   .     S
C494   H495    1.109   .     S
C497   H499    1.110   .     S
C497   H500    1.111   .     S
C497   H498    1.111   .     S
O501   C502    1.414   .     S
C502   C505    1.528   .     S
C502   H504    1.113   .     S
C502   H503    1.117   .     S
C505   H507    1.112   .     S
C505   H506    1.112   .     S
C505   C508    1.525   .     S
C508   H509    1.110   .     S
C508   H511    1.110   .     S
C508   H510    1.111   .     S
O512   C513    1.411   .     S
C513   H515    1.115   .     S
C513   C516    1.526   .     S
C513   H514    1.115   .     S
C516   H517    1.109   .     S
C516   C519    1.526   .     S
C516   H518    1.112   .     S
C519   H522    1.111   .     S
C519   H521    1.110   .     S
C519   H520    1.111   .     S
O523   C524    1.414   .     S
C524   C527    1.529   .     S
C524   H526    1.110   .     S
C524   H525    1.117   .     S
C527   C530    1.526   .     S
C527   H529    1.112   .     S
C527   H528    1.111   .     S
C530   H532    1.110   .     S
C530   H533    1.111   .     S
C530   H531    1.111   .     S
O534   C535    1.411   .     S
C535   C538    1.527   .     S
C535   H537    1.115   .     S
C535   H536    1.115   .     S
C538   H539    1.109   .     S
C538   H540    1.112   .     S
C538   C541    1.526   .     S
C541   H544    1.111   .     S
C541   H542    1.111   .     S
C541   H543    1.110   .     S
O545   C546    1.412   .     S
C546   C549    1.527   .     S
C546   H547    1.115   .     S
C546   H548    1.111   .     S
C549   H551    1.112   .     S
C549   H550    1.109   .     S
C549   C552    1.523   .     S
C552   H554    1.111   .     S
C552   H555    1.110   .     S
C552   H553    1.107   .     S
O556   C557    1.411   .     S
C557   H558    1.115   .     S
C557   C560    1.526   .     S
C557   H559    1.115   .     S
C560   H561    1.109   .     S
C560   C563    1.526   .     S
C560   H562    1.112   .     S
C563   H564    1.111   .     S
C563   H565    1.110   .     S
C563   H566    1.111   .     S
O567   C568    1.421   .     S
C568   H569    1.112   .     S
C568   C571    1.530   .     S
C568   H570    1.117   .     S
C571   H573    1.110   .     S
C571   H572    1.112   .     S
C571   C574    1.527   .     S
C574   H575    1.111   .     S
C574   H577    1.111   .     S
C574   H576    1.111   .     S
O578   C579    1.412   .     S
C579   C582    1.526   .     S
C579   H580    1.115   .     S
C579   H581    1.115   .     S
C582   C585    1.526   .     S
C582   H583    1.109   .     S
C582   H584    1.112   .     S
C585   H586    1.111   .     S
C585   H588    1.111   .     S
C585   H587    1.110   .     S
C589   C689    1.391   .     A
C589   H741    1.081   .     S
C590   C690    1.393   .     A
C590   H742    1.083   .     S
C590   C606    1.403   .     A
C591   C607    1.403   .     A
C591   C691    1.392   .     A
C591   H743    1.084   .     S
C592   C692    1.392   .     A
C592   C608    1.403   .     A
C592   H744    1.084   .     S
C593   C685    1.393   .     A
C593   C605    1.403   .     A
C593   H745    1.083   .     S
C594   H746    1.081   .     S
C594   C686    1.391   .     A
C595   C687    1.392   .     A
C595   H747    1.083   .     S
C595   C1783   1.403   .     S
C596   C688    1.392   .     A
C596   H748    1.083   .     S
C596   C1784   1.403   1_545 S
C597   C609    1.403   .     A
C597   H749    1.083   .     S
C597   C697    1.393   .     A
C598   H750    1.081   .     S
C598   C698    1.391   .     A
C598   C1786   1.402   .     S
C599   H751    1.083   .     S
C599   C699    1.392   .     A
C600   C700    1.392   .     A
C600   H752    1.083   .     S
C601   H753    1.081   .     S
C601   C693    1.391   .     A
C601   C1785   1.402   1_545 S
C602   H754    1.083   .     S
C602   C610    1.403   .     A
C602   C694    1.393   .     A
C603   H755    1.084   .     S
C603   C695    1.392   .     A
C603   C611    1.403   .     A
C604   C612    1.403   .     A
C604   H756    1.084   .     S
C604   C696    1.392   .     A
C605   C631    1.461   .     S
C605   C1      1.402   1_655 S
C606   C632    1.461   .     S
C606   C6      1.402   1_655 S
C607   C629    1.461   .     S
C607   C1771   1.403   1_545 S
C608   C1806   1.461   .     S
C608   C1772   1.403   .     S
C609   C635    1.461   .     S
C609   C1777   1.402   .     S
C610   C636    1.461   .     S
C610   C1774   1.402   1_545 S
C611   C633    1.461   .     S
C611   C11     1.403   1_655 S
C612   C634    1.461   .     S
C612   C12     1.403   1_655 S
C613   H725    1.084   .     S
C613   C685    1.402   .     A
C613   C618    1.395   .     A
C614   C617    1.394   .     A
C614   H726    1.084   .     S
C614   C686    1.402   .     A
C615   C687    1.402   .     A
C615   H727    1.084   .     S
C615   C620    1.394   .     A
C616   C619    1.394   .     A
C616   H728    1.084   .     S
C616   C688    1.402   .     A
C617   H729    1.084   .     S
C617   C689    1.402   .     A
C618   C690    1.402   .     A
C618   H730    1.084   .     S
C619   H731    1.084   .     S
C619   C691    1.402   .     A
C620   H732    1.084   .     S
C620   C692    1.402   .     A
C621   C693    1.402   .     A
C621   H733    1.084   .     S
C621   C1802   1.394   1_546 S
C622   C694    1.402   .     A
C622   H734    1.084   .     S
C622   C1801   1.395   1_544 S
C623   C695    1.402   .     A
C623   H735    1.084   .     S
C623   C40     1.394   1_656 S
C624   H736    1.084   .     S
C624   C696    1.402   .     A
C624   C39     1.394   1_654 S
C625   C697    1.402   .     A
C625   H737    1.084   .     S
C625   C1798   1.395   1_556 S
C626   C698    1.402   .     A
C626   H738    1.084   .     S
C626   C1797   1.394   1_554 S
C627   C699    1.402   .     A
C627   H739    1.084   .     S
C627   C36     1.394   1_556 S
C628   H740    1.084   .     S
C628   C700    1.402   .     A
C628   C35     1.394   1_554 S
C629   O765    1.283   .     A
C629   O1937   1.284   1_545 S
C630   C1784   1.461   1_545 S
C630   O1942   1.283   1_545 A
C630   O762    1.284   .     S
C631   O767    1.281   .     A
C631   O175    1.283   1_655 S
C632   O764    1.281   .     A
C632   O180    1.283   1_655 S
C633   O185    1.284   1_655 A
C633   O181    1.283   1_655 A
C634   O186    1.284   1_655 A
C634   O182    1.283   1_655 A
C635   O1947   1.281   .     S
C635   O1951   1.283   .     S
C636   O772    1.283   .     S
C636   O776    1.281   .     S
C637   C703    1.458   .     S
C637   O803    1.281   .     A
C637   O777    1.282   .     A
C638   O804    1.283   .     A
C638   C704    1.460   .     S
C638   O778    1.282   .     A
C639   O779    1.281   .     A
C639   C705    1.458   .     S
C639   O801    1.282   .     A
C640   O802    1.278   .     A
C640   C706    1.462   .     S
C640   O780    1.287   .     A
C641   O807    1.281   .     A
C641   O781    1.282   .     A
C641   C707    1.458   .     S
C642   O782    1.278   .     A
C642   C708    1.462   .     S
C642   O808    1.287   .     A
C643   O805    1.282   .     A
C643   O783    1.281   .     A
C643   C701    1.458   .     S
C644   O806    1.282   .     A
C644   O784    1.283   .     A
C644   C702    1.460   .     S
C645   C711    1.458   .     S
C645   O785    1.282   .     A
C645   O795    1.281   .     A
C646   O796    1.283   .     A
C646   O786    1.282   .     A
C646   C712    1.460   .     S
C647   C713    1.458   .     S
C647   O793    1.282   .     A
C647   O787    1.281   .     A
C648   O788    1.287   .     A
C648   O794    1.278   .     A
C648   C714    1.462   .     S
C649   C715    1.458   .     S
C649   O799    1.281   .     A
C649   O789    1.282   .     A
C650   O800    1.287   .     A
C650   O790    1.278   .     A
C650   C716    1.462   .     S
C651   O791    1.281   .     A
C651   O797    1.282   .     A
C651   C709    1.458   .     S
C652   O792    1.283   .     A
C652   O798    1.282   .     A
C652   C710    1.460   .     S
C653   C716    1.410   .     A
C653   C668    1.398   .     A
C653   O825    1.385   .     S
C654   O836    1.383   .     S
C654   C667    1.395   .     A
C654   C715    1.409   .     A
C655   O847    1.387   .     S
C655   C714    1.415   .     A
C655   C666    1.390   .     A
C656   C665    1.394   .     A
C656   C713    1.408   .     A
C656   O858    1.383   .     S
C657   C712    1.411   .     A
C657   C664    1.394   .     A
C657   O869    1.385   .     S
C658   O880    1.383   .     S
C658   C663    1.390   .     A
C658   C711    1.407   .     A
C659   C710    1.411   .     A
C659   O891    1.386   .     S
C659   C662    1.395   .     A
C660   C661    1.398   .     A
C660   O902    1.383   .     S
C660   C709    1.409   .     A
C661   O913    1.385   .     S
C661   C708    1.410   .     A
C662   O924    1.383   .     S
C662   C707    1.409   .     A
C663   C706    1.415   .     A
C663   O935    1.387   .     S
C664   C705    1.408   .     A
C664   O946    1.383   .     S
C665   O957    1.385   .     S
C665   C704    1.411   .     A
C666   C703    1.407   .     A
C666   O968    1.383   .     S
C667   O979    1.386   .     S
C667   C702    1.411   .     A
C668   O990    1.383   .     S
C668   C701    1.409   .     A
C669   C702    1.411   .     A
C669   O1001   1.385   .     S
C669   C684    1.394   .     A
C670   O1012   1.383   .     S
C670   C683    1.390   .     A
C670   C701    1.407   .     A
C671   O1023   1.386   .     S
C671   C682    1.395   .     A
C671   C704    1.411   .     A
C672   O1034   1.383   .     S
C672   C681    1.398   .     A
C672   C703    1.409   .     A
C673   C706    1.410   .     A
C673   C680    1.398   .     A
C673   O1045   1.385   .     S
C674   C705    1.409   .     A
C674   C679    1.395   .     A
C674   O1056   1.383   .     S
C675   O1067   1.387   .     S
C675   C678    1.390   .     A
C675   C708    1.415   .     A
C676   C707    1.408   .     A
C676   C677    1.394   .     A
C676   O1078   1.383   .     S
C677   O1089   1.385   .     S
C677   C710    1.411   .     A
C678   C709    1.407   .     A
C678   O1100   1.383   .     S
C679   O1111   1.386   .     S
C679   C712    1.411   .     A
C680   O1122   1.383   .     S
C680   C711    1.409   .     A
C681   C714    1.410   .     A
C681   O1133   1.385   .     S
C682   O1144   1.383   .     S
C682   C713    1.409   .     A
C683   C716    1.415   .     A
C683   O1155   1.387   .     S
C684   C715    1.408   .     A
C684   O1166   1.383   .     S
C685   C717    1.411   .     A
C687   C1895   1.410   .     S
C688   C720    1.410   .     S
C690   C718    1.411   .     A
C691   C719    1.411   .     A
C692   C1896   1.411   .     A
C693   C1897   1.410   1_545 S
C694   C722    1.411   .     A
C695   C723    1.411   .     A
C696   C724    1.411   .     A
C697   C721    1.411   .     A
C698   C1898   1.410   .     S
C717   C718    1.400   .     A
C717   C101    1.410   1_655 S
C718   C98     1.410   1_655 S
C719   C1863   1.410   1_545 S
C719   C720    1.401   .     S
C720   C1868   1.411   1_545 A
C721   C1869   1.410   .     S
C721   C1898   1.400   1_556 S
C722   C1874   1.410   1_545 S
C722   C1897   1.400   1_544 S
C723   C111    1.410   1_655 S
C723   C724    1.401   1_556 S
C724   C112    1.410   1_655 S
C724   C723    1.401   1_554 S
O757   Zn2000  1.952   1_545 S
O757   Zn813   1.949   .     S
O757   Zn809   1.949   .     S
O757   Zn820   1.952   .     S
O758   Zn814   1.949   .     S
O758   Zn823   1.952   .     S
O758   Zn810   1.949   .     S
O758   Zn1995  1.952   1_545 S
O759   Zn811   1.952   .     S
O759   Zn815   1.952   .     S
O759   Zn818   1.949   .     S
O760   Zn821   1.949   .     S
O760   Zn816   1.952   .     S
O760   Zn812   1.952   .     S
O761   Zn824   1.948   .     S
O761   C1805   1.284   .     S
O762   Zn823   1.948   .     S
O763   Zn818   1.947   .     S
O764   Zn817   1.947   .     S
O765   Zn820   1.948   .     S
O766   C1806   1.283   .     A
O766   Zn819   1.948   .     S
O767   Zn822   1.947   .     S
O768   Zn821   1.947   .     S
O769   Zn816   1.948   .     S
O770   Zn815   1.948   .     S
O771   Zn810   1.947   .     S
O771   C1811   1.281   1_545 S
O772   Zn809   1.947   .     S
O773   Zn812   1.948   .     S
O774   Zn811   1.948   .     S
O775   Zn814   1.947   .     S
O775   C1811   1.283   1_545 S
O776   Zn813   1.947   .     S
O777   Zn820   1.940   .     S
O778   Zn819   1.940   .     S
O779   Zn822   1.941   .     S
O780   Zn821   1.941   .     S
O781   Zn824   1.940   .     S
O782   Zn823   1.940   .     S
O783   Zn818   1.941   .     S
O784   Zn817   1.941   .     S
O785   Zn819   1.940   .     S
O786   Zn820   1.940   .     S
O787   Zn817   1.941   .     S
O788   Zn818   1.941   .     S
O789   Zn823   1.940   .     S
O790   Zn824   1.940   .     S
O791   Zn821   1.941   .     S
O792   Zn822   1.941   .     S
O793   Zn224   1.940   1_655 S
O794   Zn811   1.940   .     S
O795   Zn1990  1.941   .     S
O796   Zn813   1.941   .     S
O797   Zn816   1.940   .     S
O798   Zn227   1.940   1_655 S
O799   Zn810   1.941   .     S
O800   Zn1985  1.941   .     S
O801   Zn223   1.940   1_655 S
O802   Zn812   1.940   .     S
O803   Zn809   1.941   .     S
O804   Zn1986  1.941   .     S
O805   Zn815   1.940   .     S
O806   Zn228   1.940   1_655 S
O807   Zn1989  1.941   .     S
O808   Zn814   1.941   .     S
Zn809  O1976   1.941   1_545 S
Zn810  O1980   1.941   1_545 S
Zn813  O1983   1.941   1_545 S
Zn814  O1971   1.941   1_545 S
Zn817  O172    1.949   1_655 S
Zn819  O1934   1.952   .     S
Zn822  O171    1.949   1_655 S
Zn824  O1933   1.952   .     S
O825   C826    1.412   .     S
C826   C829    1.527   .     S
C826   H827    1.115   .     S
C826   H828    1.111   .     S
C829   C832    1.523   .     S
C829   H830    1.110   .     S
C829   H831    1.112   .     S
C832   H834    1.111   .     S
C832   H2009   1.107   .     S
C832   H2011   1.110   .     S
H833   C2008   1.107   1_545 S
H835   C2008   1.110   1_545 S
O836   C837    1.411   .     S
C837   H838    1.115   .     S
C837   C840    1.526   .     S
C837   H839    1.115   .     S
C840   C843    1.526   .     S
C840   H841    1.109   .     S
C840   H842    1.112   .     S
C843   H845    1.110   .     S
C843   H846    1.111   .     S
C843   H844    1.111   .     S
O847   C848    1.421   .     S
C848   H849    1.112   .     S
C848   C851    1.529   .     S
C848   H850    1.117   .     S
C851   H852    1.112   .     S
C851   H853    1.110   .     S
C851   C854    1.527   .     S
C854   H856    1.111   .     S
C854   H855    1.111   .     S
H857   C266    1.111   1_655 S
O858   C859    1.412   .     S
C859   H860    1.115   .     S
C859   C862    1.526   .     S
C859   H861    1.115   .     S
C862   C865    1.526   .     S
C862   H863    1.109   .     S
C862   H864    1.112   .     S
C865   H866    1.111   .     S
C865   H868    1.111   .     S
C865   H867    1.110   .     S
O869   C870    1.414   .     S
C870   H871    1.117   .     S
C870   C873    1.528   .     S
C870   H872    1.113   .     S
C873   H875    1.112   .     S
C873   H874    1.112   .     S
C873   C2052   1.525   1_545 S
C876   H879    1.110   .     S
C876   H877    1.110   .     S
C876   C2049   1.525   .     S
C876   H2054   1.111   .     S
H878   C2052   1.111   1_545 S
O880   C881    1.411   .     S
C881   H882    1.115   .     S
C881   C884    1.526   .     S
C881   H883    1.115   .     S
C884   C887    1.526   .     S
C884   H886    1.112   .     S
C884   H885    1.109   .     S
C887   H890    1.111   .     S
C887   H888    1.111   .     S
C887   H889    1.110   .     S
O891   C892    1.414   .     S
C892   C895    1.529   .     S
C892   H893    1.117   .     S
C892   H894    1.110   .     S
C895   H896    1.111   .     S
C895   H897    1.112   .     S
C895   C310    1.526   1_655 S
C898   H900    1.110   .     S
C898   H901    1.111   .     S
H899   C310    1.111   1_655 S
O902   C903    1.411   .     S
C903   C906    1.527   .     S
C903   H905    1.115   .     S
C903   H904    1.115   .     S
C906   C909    1.526   .     S
C906   H908    1.112   .     S
C906   H907    1.109   .     S
C909   H910    1.111   .     S
C909   H912    1.111   .     S
C909   H911    1.110   .     S
O913   C914    1.412   .     S
C914   H915    1.115   .     S
C914   C917    1.527   .     S
C914   H916    1.111   .     S
C917   H919    1.112   .     S
C917   H918    1.109   .     S
C917   C920    1.523   .     S
C920   H922    1.111   .     S
C920   H2097   1.108   1_545 S
C920   H2099   1.110   1_545 S
H921   C2096   1.108   .     S
H923   C2096   1.110   .     S
O924   C925    1.411   .     S
C925   H926    1.115   .     S
C925   C928    1.526   .     S
C925   H927    1.115   .     S
C928   H929    1.109   .     S
C928   C931    1.526   .     S
C928   H930    1.112   .     S
C931   H933    1.110   .     S
C931   H932    1.111   .     S
C931   H934    1.111   .     S
O935   C936    1.421   .     S
C936   H937    1.112   .     S
C936   C939    1.530   .     S
C936   H938    1.117   .     S
C939   H940    1.112   .     S
C939   C942    1.527   .     S
C939   H941    1.110   .     S
C942   H943    1.111   .     S
C942   H944    1.111   .     S
H945   C354    1.111   1_655 S
O946   C947    1.412   .     S
C947   H948    1.115   .     S
C947   C950    1.526   .     S
C947   H949    1.115   .     S
C950   H951    1.109   .     S
C950   H952    1.112   .     S
C950   C953    1.526   .     S
C953   H954    1.111   .     S
C953   H956    1.111   .     S
C953   H955    1.110   .     S
O957   C958    1.414   .     S
C958   H959    1.117   .     S
C958   H960    1.113   .     S
C958   C961    1.528   .     S
C961   H963    1.112   .     S
C961   H962    1.112   .     S
C961   C2140   1.525   .     S
C964   H967    1.110   .     S
C964   H965    1.110   .     S
C964   C2137   1.525   1_545 S
C964   H2142   1.111   1_545 S
H966   C2140   1.111   .     S
O968   C969    1.411   .     S
C969   H970    1.115   .     S
C969   C972    1.526   .     S
C969   H971    1.115   .     S
C972   H974    1.112   .     S
C972   H973    1.109   .     S
C972   C975    1.526   .     S
C975   H978    1.111   .     S
C975   H976    1.111   .     S
C975   H977    1.110   .     S
O979   C980    1.414   .     S
C980   H981    1.117   .     S
C980   C983    1.529   .     S
C980   H982    1.110   .     S
C983   H984    1.111   .     S
C983   H985    1.112   .     S
C983   C398    1.526   1_655 S
C986   H988    1.110   .     S
C986   H989    1.111   .     S
H987   C398    1.111   1_655 S
O990   C991    1.411   .     S
C991   H993    1.115   .     S
C991   C994    1.527   .     S
C991   H992    1.115   .     S
C994   H996    1.112   .     S
C994   H995    1.109   .     S
C994   C997    1.526   .     S
C997   H998    1.111   .     S
C997   H1000   1.111   .     S
C997   H999    1.110   .     S
O1001  C1002   1.414   .     S
C1002  C1005   1.528   .     S
C1002  H1004   1.113   .     S
C1002  H1003   1.117   .     S
C1005  H1007   1.112   .     S
C1005  H1006   1.112   .     S
C1005  C1008   1.525   .     S
C1008  H1009   1.110   .     S
C1008  H1011   1.110   .     S
C1008  H1010   1.111   .     S
O1012  C1013   1.411   .     S
C1013  H1014   1.115   .     S
C1013  H1015   1.115   .     S
C1013  C1016   1.526   .     S
C1016  H1017   1.109   .     S
C1016  C1019   1.526   .     S
C1016  H1018   1.112   .     S
C1019  H1021   1.110   .     S
C1019  H1020   1.111   .     S
C1019  H1022   1.111   .     S
O1023  C1024   1.414   .     S
C1024  C1027   1.529   .     S
C1024  H1025   1.117   .     S
C1024  H1026   1.110   .     S
C1027  H1028   1.111   .     S
C1027  H1029   1.112   .     S
C1027  C1030   1.526   .     S
C1030  H1031   1.111   .     S
C1030  H1032   1.110   .     S
C1030  H1033   1.111   .     S
O1034  C1035   1.411   .     S
C1035  H1037   1.115   .     S
C1035  H1036   1.115   .     S
C1035  C1038   1.527   .     S
C1038  H1040   1.112   .     S
C1038  C1041   1.526   .     S
C1038  H1039   1.109   .     S
C1041  H1044   1.111   .     S
C1041  H1043   1.110   .     S
C1041  H1042   1.111   .     S
O1045  C1046   1.412   .     S
C1046  C1049   1.527   .     S
C1046  H1047   1.115   .     S
C1046  H1048   1.111   .     S
C1049  H1050   1.109   .     S
C1049  C1052   1.523   .     S
C1049  H1051   1.112   .     S
C1052  H1053   1.108   .     S
C1052  H1055   1.110   .     S
C1052  H1054   1.111   .     S
O1056  C1057   1.411   .     S
C1057  H1058   1.115   .     S
C1057  H1059   1.115   .     S
C1057  C1060   1.526   .     S
C1060  C1063   1.526   .     S
C1060  H1061   1.109   .     S
C1060  H1062   1.112   .     S
C1063  H1066   1.111   .     S
C1063  H1064   1.111   .     S
C1063  H1065   1.110   .     S
O1067  C1068   1.421   .     S
C1068  H1069   1.112   .     S
C1068  C1071   1.530   .     S
C1068  H1070   1.117   .     S
C1071  C1074   1.527   .     S
C1071  H1072   1.112   .     S
C1071  H1073   1.110   .     S
C1074  H1075   1.111   .     S
C1074  H1077   1.111   .     S
C1074  H1076   1.111   .     S
O1078  C1079   1.412   .     S
C1079  H1081   1.115   .     S
C1079  C1082   1.526   .     S
C1079  H1080   1.115   .     S
C1082  H1084   1.112   .     S
C1082  C1085   1.526   .     S
C1082  H1083   1.109   .     S
C1085  H1087   1.110   .     S
C1085  H1088   1.111   .     S
C1085  H1086   1.111   .     S
O1089  C1090   1.414   .     S
C1090  C1093   1.528   .     S
C1090  H1092   1.113   .     S
C1090  H1091   1.117   .     S
C1093  H1095   1.112   .     S
C1093  H1094   1.112   .     S
C1093  C1096   1.525   .     S
C1096  H1097   1.110   .     S
C1096  H1099   1.110   .     S
C1096  H1098   1.111   .     S
O1100  C1101   1.411   .     S
C1101  H1103   1.115   .     S
C1101  C1104   1.526   .     S
C1101  H1102   1.115   .     S
C1104  H1105   1.109   .     S
C1104  C1107   1.526   .     S
C1104  H1106   1.112   .     S
C1107  H1110   1.111   .     S
C1107  H1109   1.110   .     S
C1107  H1108   1.111   .     S
O1111  C1112   1.414   .     S
C1112  C1115   1.529   .     S
C1112  H1114   1.110   .     S
C1112  H1113   1.117   .     S
C1115  C1118   1.526   .     S
C1115  H1117   1.112   .     S
C1115  H1116   1.111   .     S
C1118  H1120   1.110   .     S
C1118  H1121   1.111   .     S
C1118  H1119   1.111   .     S
O1122  C1123   1.411   .     S
C1123  C1126   1.527   .     S
C1123  H1125   1.115   .     S
C1123  H1124   1.115   .     S
C1126  H1127   1.109   .     S
C1126  H1128   1.112   .     S
C1126  C1129   1.526   .     S
C1129  H1132   1.111   .     S
C1129  H1130   1.111   .     S
C1129  H1131   1.110   .     S
O1133  C1134   1.412   .     S
C1134  C1137   1.527   .     S
C1134  H1135   1.115   .     S
C1134  H1136   1.111   .     S
C1137  H1139   1.112   .     S
C1137  H1138   1.109   .     S
C1137  C1140   1.523   .     S
C1140  H1142   1.111   .     S
C1140  H1143   1.110   .     S
C1140  H1141   1.107   .     S
O1144  C1145   1.411   .     S
C1145  H1146   1.115   .     S
C1145  C1148   1.526   .     S
C1145  H1147   1.115   .     S
C1148  H1149   1.109   .     S
C1148  C1151   1.526   .     S
C1148  H1150   1.112   .     S
C1151  H1152   1.111   .     S
C1151  H1153   1.110   .     S
C1151  H1154   1.111   .     S
O1155  C1156   1.421   .     S
C1156  H1157   1.112   .     S
C1156  C1159   1.530   .     S
C1156  H1158   1.117   .     S
C1159  H1161   1.110   .     S
C1159  H1160   1.112   .     S
C1159  C1162   1.527   .     S
C1162  H1163   1.111   .     S
C1162  H1165   1.111   .     S
C1162  H1164   1.111   .     S
O1166  C1167   1.412   .     S
C1167  C1170   1.526   .     S
C1167  H1168   1.115   .     S
C1167  H1169   1.115   .     S
C1170  C1173   1.526   .     S
C1170  H1171   1.109   .     S
C1170  H1172   1.112   .     S
C1173  H1174   1.111   .     S
C1173  H1176   1.111   .     S
C1173  H1175   1.110   .     S
C1177  C1277   1.391   .     A
C1177  H1329   1.081   .     S
C1177  C1781   1.402   1_455 S
C1178  C1278   1.393   .     A
C1178  H1330   1.083   .     S
C1178  C1194   1.403   .     A
C1179  C1195   1.403   .     A
C1179  C1279   1.392   .     A
C1179  H1331   1.084   .     S
C1180  C1280   1.392   .     A
C1180  C1196   1.403   .     A
C1180  H1332   1.084   .     S
C1181  C1273   1.393   .     A
C1181  C1193   1.403   .     A
C1181  H1333   1.083   .     S
C1182  H1334   1.081   .     S
C1182  C1274   1.391   .     A
C1182  C1782   1.402   1_455 S
C1183  C1275   1.392   .     A
C1183  H1335   1.083   .     S
C1183  C19     1.403   1_565 S
C1184  C1276   1.392   .     A
C1184  H1336   1.083   .     S
C1185  C1197   1.403   .     A
C1185  H1337   1.083   .     S
C1185  C1285   1.393   .     A
C1186  H1338   1.081   .     S
C1186  C1286   1.391   .     A
C1186  C22     1.402   1_565 S
C1187  H1339   1.083   .     S
C1187  C1287   1.392   .     A
C1187  C1787   1.403   1_455 S
C1188  C1288   1.392   .     A
C1188  H1340   1.083   .     S
C1188  C1788   1.403   1_455 S
C1189  H1341   1.081   .     S
C1189  C1281   1.391   .     A
C1190  H1342   1.083   .     S
C1190  C1198   1.403   .     A
C1190  C1282   1.393   .     A
C1191  H1343   1.084   .     S
C1191  C1283   1.392   .     A
C1191  C1199   1.403   .     A
C1192  C1200   1.403   .     A
C1192  H1344   1.084   .     S
C1192  C1284   1.392   .     A
C1193  C1219   1.461   .     S
C1193  C1765   1.402   .     S
C1194  C1220   1.461   .     S
C1194  C1770   1.402   .     S
C1195  C1217   1.461   .     S
C1196  C42     1.461   1_565 S
C1196  C8      1.403   1_565 S
C1197  C1223   1.461   .     S
C1197  C13     1.402   1_565 S
C1198  C1224   1.461   .     S
C1199  C1221   1.461   .     S
C1199  C1775   1.403   .     S
C1200  C1222   1.461   .     S
C1200  C1776   1.403   .     S
C1201  H1313   1.084   .     S
C1201  C1273   1.402   .     A
C1201  C1206   1.395   .     A
C1202  C1205   1.394   .     A
C1202  H1314   1.084   .     S
C1202  C1274   1.402   .     A
C1203  C1275   1.402   .     A
C1203  H1315   1.084   .     S
C1203  C1208   1.394   .     A
C1204  C1207   1.394   .     A
C1204  H1316   1.084   .     S
C1204  C1276   1.402   .     A
C1205  H1317   1.084   .     S
C1205  C1277   1.402   .     A
C1206  C1278   1.402   .     A
C1206  H1318   1.084   .     S
C1207  H1319   1.084   .     S
C1207  C1279   1.402   .     A
C1208  H1320   1.084   .     S
C1208  C1280   1.402   .     A
C1209  C1281   1.402   .     A
C1209  H1321   1.084   .     S
C1209  C38     1.394   1_556 S
C1210  C1282   1.402   .     A
C1210  H1322   1.084   .     S
C1210  C37     1.395   1_554 S
C1211  C1283   1.402   .     A
C1211  H1323   1.084   .     S
C1211  C1804   1.394   1_556 S
C1212  H1324   1.084   .     S
C1212  C1284   1.402   .     A
C1212  C1803   1.394   1_554 S
C1213  C1285   1.402   .     A
C1213  H1325   1.084   .     S
C1213  C34     1.395   1_566 S
C1214  C1286   1.402   .     A
C1214  H1326   1.084   .     S
C1214  C33     1.394   1_564 S
C1215  C1287   1.402   .     A
C1215  H1327   1.084   .     S
C1215  C1800   1.394   1_456 S
C1216  H1328   1.084   .     S
C1216  C1288   1.402   .     A
C1216  C1799   1.394   1_454 S
C1217  O1353   1.283   .     A
C1218  O1350   1.284   .     S
C1219  O1355   1.281   .     A
C1219  O1939   1.283   .     S
C1220  O1352   1.281   .     A
C1220  O1944   1.283   .     S
C1221  O1949   1.284   .     A
C1221  O1945   1.283   .     A
C1222  O1950   1.284   .     A
C1222  O1946   1.283   .     A
C1223  O183    1.281   1_565 S
C1223  O187    1.283   1_565 S
C1224  O1360   1.283   .     S
C1224  O1364   1.281   .     S
C1225  C1291   1.458   .     S
C1225  O1391   1.281   .     A
C1225  O1365   1.282   .     A
C1226  O1392   1.283   .     A
C1226  C1292   1.460   .     S
C1226  O1366   1.282   .     A
C1227  O1367   1.281   .     A
C1227  C1293   1.458   .     S
C1227  O1389   1.282   .     A
C1228  O1390   1.278   .     A
C1228  C1294   1.462   .     S
C1228  O1368   1.287   .     A
C1229  O1395   1.281   .     A
C1229  O1369   1.282   .     A
C1229  C1295   1.458   .     S
C1230  O1370   1.278   .     A
C1230  C1296   1.462   .     S
C1230  O1396   1.287   .     A
C1231  O1393   1.282   .     A
C1231  O1371   1.281   .     A
C1231  C1289   1.458   .     S
C1232  O1394   1.282   .     A
C1232  O1372   1.283   .     A
C1232  C1290   1.460   .     S
C1233  C1299   1.458   .     S
C1233  O1373   1.282   .     A
C1233  O1383   1.281   .     A
C1234  O1384   1.283   .     A
C1234  O1374   1.282   .     A
C1234  C1300   1.460   .     S
C1235  C1301   1.458   .     S
C1235  O1381   1.282   .     A
C1235  O1375   1.281   .     A
C1236  O1376   1.287   .     A
C1236  O1382   1.278   .     A
C1236  C1302   1.462   .     S
C1237  C1303   1.458   .     S
C1237  O1387   1.281   .     A
C1237  O1377   1.282   .     A
C1238  O1388   1.287   .     A
C1238  O1378   1.278   .     A
C1238  C1304   1.462   .     S
C1239  O1379   1.281   .     A
C1239  O1385   1.282   .     A
C1239  C1297   1.458   .     S
C1240  O1380   1.283   .     A
C1240  O1386   1.282   .     A
C1240  C1298   1.460   .     S
C1241  C1304   1.410   .     A
C1241  C1256   1.398   .     A
C1241  O1413   1.385   .     S
C1242  O1424   1.383   .     S
C1242  C1255   1.395   .     A
C1242  C1303   1.409   .     A
C1243  O1435   1.387   .     S
C1243  C1302   1.415   .     A
C1243  C1254   1.390   .     A
C1244  C1253   1.394   .     A
C1244  C1301   1.408   .     A
C1244  O1446   1.383   .     S
C1245  C1300   1.411   .     A
C1245  C1252   1.394   .     A
C1245  O1457   1.385   .     S
C1246  O1468   1.383   .     S
C1246  C1251   1.390   .     A
C1246  C1299   1.407   .     A
C1247  C1298   1.411   .     A
C1247  O1479   1.386   .     S
C1247  C1250   1.395   .     A
C1248  C1249   1.398   .     A
C1248  O1490   1.383   .     S
C1248  C1297   1.409   .     A
C1249  O1501   1.385   .     S
C1249  C1296   1.410   .     A
C1250  O1512   1.383   .     S
C1250  C1295   1.409   .     A
C1251  C1294   1.415   .     A
C1251  O1523   1.387   .     S
C1252  C1293   1.408   .     A
C1252  O1534   1.383   .     S
C1253  O1545   1.385   .     S
C1253  C1292   1.411   .     A
C1254  C1291   1.407   .     A
C1254  O1556   1.383   .     S
C1255  O1567   1.386   .     S
C1255  C1290   1.411   .     A
C1256  O1578   1.383   .     S
C1256  C1289   1.409   .     A
C1257  C1290   1.411   .     A
C1257  O1589   1.385   .     S
C1257  C1272   1.394   .     A
C1258  O1600   1.383   .     S
C1258  C1271   1.390   .     A
C1258  C1289   1.407   .     A
C1259  O1611   1.386   .     S
C1259  C1270   1.395   .     A
C1259  C1292   1.411   .     A
C1260  O1622   1.383   .     S
C1260  C1269   1.398   .     A
C1260  C1291   1.409   .     A
C1261  C1294   1.410   .     A
C1261  C1268   1.398   .     A
C1261  O1633   1.385   .     S
C1262  C1293   1.409   .     A
C1262  C1267   1.395   .     A
C1262  O1644   1.383   .     S
C1263  O1655   1.387   .     S
C1263  C1266   1.390   .     A
C1263  C1296   1.415   .     A
C1264  C1295   1.408   .     A
C1264  C1265   1.394   .     A
C1264  O1666   1.383   .     S
C1265  O1677   1.385   .     S
C1265  C1298   1.411   .     A
C1266  C1297   1.407   .     A
C1266  O1688   1.383   .     S
C1267  O1699   1.386   .     S
C1267  C1300   1.411   .     A
C1268  O1710   1.383   .     S
C1268  C1299   1.409   .     A
C1269  C1302   1.410   .     A
C1269  O1721   1.385   .     S
C1270  O1732   1.383   .     S
C1270  C1301   1.409   .     A
C1271  C1304   1.415   .     A
C1271  O1743   1.387   .     S
C1272  C1303   1.408   .     A
C1272  O1754   1.383   .     S
C1273  C1305   1.411   .     A
C1274  C1894   1.410   1_455 S
C1275  C131    1.410   1_565 S
C1276  C1308   1.410   .     S
C1277  C1893   1.410   1_455 S
C1278  C1306   1.411   .     A
C1279  C1307   1.411   .     A
C1280  C132    1.411   1_565 A
C1282  C1310   1.411   .     A
C1283  C1311   1.411   .     A
C1284  C1312   1.411   .     A
C1285  C1309   1.411   .     A
C1286  C134    1.410   1_565 S
C1287  C1899   1.410   1_455 S
C1288  C1900   1.410   1_455 S
C1305  C1306   1.400   .     A
C1305  C1865   1.410   .     S
C1306  C1862   1.410   .     S
C1307  C1308   1.401   .     S
C1309  C105    1.410   1_565 S
C1309  C134    1.400   1_566 S
C1310  C133    1.400   1_554 S
C1311  C1875   1.410   .     S
C1311  C1312   1.401   1_556 S
C1312  C1876   1.410   .     S
C1312  C1311   1.401   1_554 S
O1345  Zn1401  1.949   .     S
O1345  Zn1397  1.949   .     S
O1345  Zn1408  1.952   .     S
O1346  Zn1402  1.949   .     S
O1346  Zn1411  1.952   .     S
O1346  Zn1398  1.949   .     S
O1347  Zn1399  1.952   .     S
O1347  Zn1403  1.952   .     S
O1347  Zn1998  1.949   1_455 S
O1347  Zn1406  1.949   .     S
O1348  Zn1409  1.949   .     S
O1348  Zn1404  1.952   .     S
O1348  Zn1400  1.952   .     S
O1348  Zn1993  1.949   1_455 S
O1349  Zn1412  1.948   .     S
O1349  C41     1.284   1_565 S
O1350  Zn1411  1.948   .     S
O1351  Zn1406  1.947   .     S
O1351  C1807   1.283   1_455 S
O1352  Zn1405  1.947   .     S
O1353  Zn1408  1.948   .     S
O1354  C42     1.283   1_565 A
O1354  Zn1407  1.948   .     S
O1355  Zn1410  1.947   .     S
O1356  Zn1409  1.947   .     S
O1356  C1808   1.283   1_455 S
O1357  C1809   1.283   1_455 A
O1357  Zn1404  1.948   .     S
O1358  Zn1403  1.948   .     S
O1358  C1810   1.283   1_455 A
O1359  Zn1398  1.947   .     S
O1360  Zn1397  1.947   .     S
O1361  C1809   1.284   1_455 A
O1361  Zn1400  1.948   .     S
O1362  Zn1399  1.948   .     S
O1362  C1810   1.284   1_455 A
O1363  Zn1402  1.947   .     S
O1364  Zn1401  1.947   .     S
O1365  Zn1408  1.940   .     S
O1366  Zn1407  1.940   .     S
O1367  Zn1410  1.941   .     S
O1368  Zn1409  1.941   .     S
O1369  Zn1412  1.940   .     S
O1370  Zn1411  1.940   .     S
O1371  Zn1406  1.941   .     S
O1372  Zn1405  1.941   .     S
O1373  Zn1407  1.940   .     S
O1374  Zn1408  1.940   .     S
O1375  Zn1405  1.941   .     S
O1376  Zn1406  1.941   .     S
O1377  Zn1411  1.940   .     S
O1378  Zn1412  1.940   .     S
O1379  Zn1409  1.941   .     S
O1380  Zn1410  1.941   .     S
O1381  Zn1988  1.940   .     S
O1382  Zn1399  1.940   .     S
O1383  Zn226   1.941   1_565 S
O1384  Zn1401  1.941   .     S
O1385  Zn1404  1.940   .     S
O1386  Zn1991  1.940   .     S
O1387  Zn1398  1.941   .     S
O1388  Zn221   1.941   1_565 S
O1389  Zn1987  1.940   .     S
O1390  Zn1400  1.940   .     S
O1391  Zn1397  1.941   .     S
O1392  Zn222   1.941   1_565 S
O1393  Zn1403  1.940   .     S
O1394  Zn1992  1.940   .     S
O1395  Zn225   1.941   1_565 S
O1396  Zn1402  1.941   .     S
Zn1399 O1977   1.940   1_455 S
Zn1400 O1969   1.940   1_455 S
Zn1403 O1974   1.940   1_455 S
Zn1404 O1982   1.940   1_455 S
Zn1405 O1936   1.949   .     S
Zn1407 O170    1.952   1_565 S
Zn1410 O1935   1.949   .     S
Zn1412 O169    1.952   1_565 S
O1413  C1414   1.412   .     S
C1414  C1417   1.527   .     S
C1414  H1415   1.115   .     S
C1414  H1416   1.111   .     S
C1417  C1420   1.523   .     S
C1417  H1418   1.110   .     S
C1417  H1419   1.112   .     S
C1420  H1422   1.111   .     S
C1420  H245    1.107   1_565 S
C1420  H247    1.110   1_565 S
O1424  C1425   1.411   .     S
C1425  H1426   1.115   .     S
C1425  C1428   1.526   .     S
C1425  H1427   1.115   .     S
C1428  C1431   1.526   .     S
C1428  H1429   1.109   .     S
C1428  H1430   1.112   .     S
C1431  H1433   1.110   .     S
C1431  H1434   1.111   .     S
C1431  H1432   1.111   .     S
O1435  C1436   1.421   .     S
C1436  H1437   1.112   .     S
C1436  C1439   1.529   .     S
C1436  H1438   1.117   .     S
C1439  H1440   1.112   .     S
C1439  H1441   1.110   .     S
C1439  C1442   1.527   .     S
C1442  H1444   1.111   .     S
C1442  H1443   1.111   .     S
C1442  H2033   1.111   1_455 S
H1445  C2030   1.111   .     S
O1446  C1447   1.412   .     S
C1447  H1448   1.115   .     S
C1447  C1450   1.526   .     S
C1447  H1449   1.115   .     S
C1450  C1453   1.526   .     S
C1450  H1451   1.109   .     S
C1450  H1452   1.112   .     S
C1453  H1454   1.111   .     S
C1453  H1456   1.111   .     S
C1453  H1455   1.110   .     S
O1457  C1458   1.414   .     S
C1458  H1459   1.117   .     S
C1458  C1461   1.528   .     S
C1458  H1460   1.113   .     S
C1461  H1463   1.112   .     S
C1461  H1462   1.112   .     S
C1464  H1467   1.110   .     S
C1464  H1465   1.110   .     S
C1464  C285    1.525   1_565 S
C1464  H290    1.111   1_565 S
O1468  C1469   1.411   .     S
C1469  H1470   1.115   .     S
C1469  C1472   1.526   .     S
C1469  H1471   1.115   .     S
C1472  C1475   1.526   .     S
C1472  H1474   1.112   .     S
C1472  H1473   1.109   .     S
C1475  H1478   1.111   .     S
C1475  H1476   1.111   .     S
C1475  H1477   1.110   .     S
O1479  C1480   1.414   .     S
C1480  C1483   1.529   .     S
C1480  H1481   1.117   .     S
C1480  H1482   1.110   .     S
C1483  H1484   1.111   .     S
C1483  H1485   1.112   .     S
C1483  C2074   1.526   .     S
C1486  H1488   1.110   .     S
C1486  H1489   1.111   .     S
C1486  C2071   1.526   1_455 S
C1486  H2075   1.111   1_455 S
H1487  C2074   1.111   .     S
O1490  C1491   1.411   .     S
C1491  C1494   1.527   .     S
C1491  H1493   1.115   .     S
C1491  H1492   1.115   .     S
C1494  C1497   1.526   .     S
C1494  H1496   1.112   .     S
C1494  H1495   1.109   .     S
C1497  H1498   1.111   .     S
C1497  H1500   1.111   .     S
C1497  H1499   1.110   .     S
O1501  C1502   1.412   .     S
C1502  H1503   1.115   .     S
C1502  C1505   1.527   .     S
C1502  H1504   1.111   .     S
C1505  H1507   1.112   .     S
C1505  H1506   1.109   .     S
C1505  C1508   1.523   .     S
C1508  H1510   1.111   .     S
H1509  C332    1.108   1_565 S
H1511  C332    1.110   1_565 S
O1512  C1513   1.411   .     S
C1513  H1514   1.115   .     S
C1513  C1516   1.526   .     S
C1513  H1515   1.115   .     S
C1516  H1517   1.109   .     S
C1516  C1519   1.526   .     S
C1516  H1518   1.112   .     S
C1519  H1521   1.110   .     S
C1519  H1520   1.111   .     S
C1519  H1522   1.111   .     S
O1523  C1524   1.421   .     S
C1524  H1525   1.112   .     S
C1524  C1527   1.530   .     S
C1524  H1526   1.117   .     S
C1527  H1528   1.112   .     S
C1527  C1530   1.527   .     S
C1527  H1529   1.110   .     S
C1530  H1531   1.111   .     S
C1530  H1532   1.111   .     S
C1530  H2121   1.111   1_455 S
H1533  C2118   1.111   .     S
O1534  C1535   1.412   .     S
C1535  H1536   1.115   .     S
C1535  C1538   1.526   .     S
C1535  H1537   1.115   .     S
C1538  H1539   1.109   .     S
C1538  H1540   1.112   .     S
C1538  C1541   1.526   .     S
C1541  H1542   1.111   .     S
C1541  H1544   1.111   .     S
C1541  H1543   1.110   .     S
O1545  C1546   1.414   .     S
C1546  H1547   1.117   .     S
C1546  H1548   1.113   .     S
C1546  C1549   1.528   .     S
C1549  H1551   1.112   .     S
C1549  H1550   1.112   .     S
C1549  C376    1.525   1_565 S
C1552  H1555   1.110   .     S
C1552  H1553   1.110   .     S
H1554  C376    1.111   1_565 S
O1556  C1557   1.411   .     S
C1557  H1558   1.115   .     S
C1557  C1560   1.526   .     S
C1557  H1559   1.115   .     S
C1560  H1562   1.112   .     S
C1560  H1561   1.109   .     S
C1560  C1563   1.526   .     S
C1563  H1566   1.111   .     S
C1563  H1564   1.111   .     S
C1563  H1565   1.110   .     S
O1567  C1568   1.414   .     S
C1568  H1569   1.117   .     S
C1568  C1571   1.529   .     S
C1568  H1570   1.110   .     S
C1571  H1572   1.111   .     S
C1571  H1573   1.112   .     S
C1571  C2162   1.526   .     S
C1574  H1576   1.110   .     S
C1574  H1577   1.111   .     S
C1574  C2159   1.526   1_455 S
C1574  H2163   1.111   1_455 S
H1575  C2162   1.111   .     S
O1578  C1579   1.411   .     S
C1579  H1581   1.115   .     S
C1579  C1582   1.527   .     S
C1579  H1580   1.115   .     S
C1582  H1584   1.112   .     S
C1582  H1583   1.109   .     S
C1582  C1585   1.526   .     S
C1585  H1586   1.111   .     S
C1585  H1588   1.111   .     S
C1585  H1587   1.110   .     S
O1589  C1590   1.414   .     S
C1590  C1593   1.528   .     S
C1590  H1592   1.113   .     S
C1590  H1591   1.117   .     S
C1593  H1595   1.112   .     S
C1593  H1594   1.112   .     S
C1593  C1596   1.525   .     S
C1596  H1597   1.110   .     S
C1596  H1599   1.110   .     S
C1596  H1598   1.111   .     S
O1600  C1601   1.411   .     S
C1601  H1602   1.115   .     S
C1601  H1603   1.115   .     S
C1601  C1604   1.526   .     S
C1604  H1605   1.109   .     S
C1604  C1607   1.526   .     S
C1604  H1606   1.112   .     S
C1607  H1609   1.110   .     S
C1607  H1608   1.111   .     S
C1607  H1610   1.111   .     S
O1611  C1612   1.414   .     S
C1612  C1615   1.529   .     S
C1612  H1613   1.117   .     S
C1612  H1614   1.110   .     S
C1615  H1616   1.111   .     S
C1615  H1617   1.112   .     S
C1615  C1618   1.526   .     S
C1618  H1619   1.111   .     S
C1618  H1620   1.110   .     S
C1618  H1621   1.111   .     S
O1622  C1623   1.411   .     S
C1623  H1625   1.115   .     S
C1623  H1624   1.115   .     S
C1623  C1626   1.527   .     S
C1626  H1628   1.112   .     S
C1626  C1629   1.526   .     S
C1626  H1627   1.109   .     S
C1629  H1632   1.111   .     S
C1629  H1631   1.110   .     S
C1629  H1630   1.111   .     S
O1633  C1634   1.412   .     S
C1634  C1637   1.527   .     S
C1634  H1635   1.115   .     S
C1634  H1636   1.111   .     S
C1637  H1638   1.109   .     S
C1637  C1640   1.523   .     S
C1637  H1639   1.112   .     S
C1640  H1641   1.108   .     S
C1640  H1643   1.110   .     S
C1640  H1642   1.111   .     S
O1644  C1645   1.411   .     S
C1645  H1646   1.115   .     S
C1645  H1647   1.115   .     S
C1645  C1648   1.526   .     S
C1648  C1651   1.526   .     S
C1648  H1649   1.109   .     S
C1648  H1650   1.112   .     S
C1651  H1654   1.111   .     S
C1651  H1652   1.111   .     S
C1651  H1653   1.110   .     S
O1655  C1656   1.421   .     S
C1656  H1657   1.112   .     S
C1656  C1659   1.530   .     S
C1656  H1658   1.117   .     S
C1659  C1662   1.527   .     S
C1659  H1660   1.112   .     S
C1659  H1661   1.110   .     S
C1662  H1663   1.111   .     S
C1662  H1665   1.111   .     S
C1662  H1664   1.111   .     S
O1666  C1667   1.412   .     S
C1667  H1669   1.115   .     S
C1667  C1670   1.526   .     S
C1667  H1668   1.115   .     S
C1670  H1672   1.112   .     S
C1670  C1673   1.526   .     S
C1670  H1671   1.109   .     S
C1673  H1675   1.110   .     S
C1673  H1676   1.111   .     S
C1673  H1674   1.111   .     S
O1677  C1678   1.414   .     S
C1678  C1681   1.528   .     S
C1678  H1680   1.113   .     S
C1678  H1679   1.117   .     S
C1681  H1683   1.112   .     S
C1681  H1682   1.112   .     S
C1681  C1684   1.525   .     S
C1684  H1685   1.110   .     S
C1684  H1687   1.110   .     S
C1684  H1686   1.111   .     S
O1688  C1689   1.411   .     S
C1689  H1691   1.115   .     S
C1689  C1692   1.526   .     S
C1689  H1690   1.115   .     S
C1692  H1693   1.109   .     S
C1692  C1695   1.526   .     S
C1692  H1694   1.112   .     S
C1695  H1698   1.111   .     S
C1695  H1697   1.110   .     S
C1695  H1696   1.111   .     S
O1699  C1700   1.414   .     S
C1700  C1703   1.529   .     S
C1700  H1702   1.110   .     S
C1700  H1701   1.117   .     S
C1703  C1706   1.526   .     S
C1703  H1705   1.112   .     S
C1703  H1704   1.111   .     S
C1706  H1708   1.110   .     S
C1706  H1709   1.111   .     S
C1706  H1707   1.111   .     S
O1710  C1711   1.411   .     S
C1711  C1714   1.527   .     S
C1711  H1713   1.115   .     S
C1711  H1712   1.115   .     S
C1714  H1715   1.109   .     S
C1714  H1716   1.112   .     S
C1714  C1717   1.526   .     S
C1717  H1720   1.111   .     S
C1717  H1718   1.111   .     S
C1717  H1719   1.110   .     S
O1721  C1722   1.412   .     S
C1722  C1725   1.527   .     S
C1722  H1723   1.115   .     S
C1722  H1724   1.111   .     S
C1725  H1727   1.112   .     S
C1725  H1726   1.109   .     S
C1725  C1728   1.523   .     S
C1728  H1730   1.111   .     S
C1728  H1731   1.110   .     S
C1728  H1729   1.107   .     S
O1732  C1733   1.411   .     S
C1733  H1734   1.115   .     S
C1733  C1736   1.526   .     S
C1733  H1735   1.115   .     S
C1736  H1737   1.109   .     S
C1736  C1739   1.526   .     S
C1736  H1738   1.112   .     S
C1739  H1740   1.111   .     S
C1739  H1741   1.110   .     S
C1739  H1742   1.111   .     S
O1743  C1744   1.421   .     S
C1744  H1745   1.112   .     S
C1744  C1747   1.530   .     S
C1744  H1746   1.117   .     S
C1747  H1749   1.110   .     S
C1747  H1748   1.112   .     S
C1747  C1750   1.527   .     S
C1750  H1751   1.111   .     S
C1750  H1753   1.111   .     S
C1750  H1752   1.111   .     S
O1754  C1755   1.412   .     S
C1755  C1758   1.526   .     S
C1755  H1756   1.115   .     S
C1755  H1757   1.115   .     S
C1758  C1761   1.526   .     S
C1758  H1759   1.109   .     S
C1758  H1760   1.112   .     S
C1761  H1762   1.111   .     S
C1761  H1764   1.111   .     S
C1761  H1763   1.110   .     S
C1765  C1865   1.391   .     A
C1765  H1917   1.081   .     S
C1766  C1866   1.393   .     A
C1766  H1918   1.083   .     S
C1766  C1782   1.403   .     A
C1767  C1783   1.403   .     A
C1767  C1867   1.392   .     A
C1767  H1919   1.084   .     S
C1768  C1868   1.392   .     A
C1768  C1784   1.403   .     A
C1768  H1920   1.084   .     S
C1769  C1861   1.393   .     A
C1769  C1781   1.403   .     A
C1769  H1921   1.083   .     S
C1770  H1922   1.081   .     S
C1770  C1862   1.391   .     A
C1771  C1863   1.392   .     A
C1771  H1923   1.083   .     S
C1771  C607    1.403   1_565 S
C1772  C1864   1.392   .     A
C1772  H1924   1.083   .     S
C1773  C1785   1.403   .     A
C1773  H1925   1.083   .     S
C1773  C1873   1.393   .     A
C1774  H1926   1.081   .     S
C1774  C1874   1.391   .     A
C1774  C610    1.402   1_565 S
C1775  H1927   1.083   .     S
C1775  C1875   1.392   .     A
C1776  C1876   1.392   .     A
C1776  H1928   1.083   .     S
C1777  H1929   1.081   .     S
C1777  C1869   1.391   .     A
C1778  H1930   1.083   .     S
C1778  C1786   1.403   .     A
C1778  C1870   1.393   .     A
C1779  H1931   1.084   .     S
C1779  C1871   1.392   .     A
C1779  C1787   1.403   .     A
C1780  C1788   1.403   .     A
C1780  H1932   1.084   .     S
C1780  C1872   1.392   .     A
C1781  C1807   1.461   .     S
C1781  C1177   1.402   1_655 S
C1782  C1808   1.461   .     S
C1782  C1182   1.402   1_655 S
C1783  C1805   1.461   .     S
C1784  C630    1.461   1_565 S
C1784  C596    1.403   1_565 S
C1785  C1811   1.461   .     S
C1785  C601    1.402   1_565 S
C1786  C1812   1.461   .     S
C1787  C1809   1.461   .     S
C1787  C1187   1.403   1_655 S
C1788  C1810   1.461   .     S
C1788  C1188   1.403   1_655 S
C1789  H1901   1.084   .     S
C1789  C1861   1.402   .     A
C1789  C1794   1.395   .     A
C1790  C1793   1.394   .     A
C1790  H1902   1.084   .     S
C1790  C1862   1.402   .     A
C1791  C1863   1.402   .     A
C1791  H1903   1.084   .     S
C1791  C1796   1.394   .     A
C1792  C1795   1.394   .     A
C1792  H1904   1.084   .     S
C1792  C1864   1.402   .     A
C1793  H1905   1.084   .     S
C1793  C1865   1.402   .     A
C1794  C1866   1.402   .     A
C1794  H1906   1.084   .     S
C1795  H1907   1.084   .     S
C1795  C1867   1.402   .     A
C1796  H1908   1.084   .     S
C1796  C1868   1.402   .     A
C1797  C1869   1.402   .     A
C1797  H1909   1.084   .     S
C1797  C626    1.394   1_556 S
C1798  C1870   1.402   .     A
C1798  H1910   1.084   .     S
C1798  C625    1.395   1_554 S
C1799  C1871   1.402   .     A
C1799  H1911   1.084   .     S
C1799  C1216   1.394   1_656 S
C1800  H1912   1.084   .     S
C1800  C1872   1.402   .     A
C1800  C1215   1.394   1_654 S
C1801  C1873   1.402   .     A
C1801  H1913   1.084   .     S
C1801  C622    1.395   1_566 S
C1802  C1874   1.402   .     A
C1802  H1914   1.084   .     S
C1802  C621    1.394   1_564 S
C1803  C1875   1.402   .     A
C1803  H1915   1.084   .     S
C1803  C1212   1.394   1_556 S
C1804  H1916   1.084   .     S
C1804  C1876   1.402   .     A
C1804  C1211   1.394   1_554 S
C1805  O1941   1.283   .     A
C1806  O1938   1.284   .     S
C1807  O1943   1.281   .     A
C1807  O1351   1.283   1_655 S
C1808  O1940   1.281   .     A
C1808  O1356   1.283   1_655 S
C1809  O1361   1.284   1_655 A
C1809  O1357   1.283   1_655 A
C1810  O1362   1.284   1_655 A
C1810  O1358   1.283   1_655 A
C1811  O771    1.281   1_565 S
C1811  O775    1.283   1_565 S
C1812  O1948   1.283   .     S
C1812  O1952   1.281   .     S
C1813  C1879   1.458   .     S
C1813  O1979   1.281   .     A
C1813  O1953   1.282   .     A
C1814  O1980   1.283   .     A
C1814  C1880   1.460   .     S
C1814  O1954   1.282   .     A
C1815  O1955   1.281   .     A
C1815  C1881   1.458   .     S
C1815  O1977   1.282   .     A
C1816  O1978   1.278   .     A
C1816  C1882   1.462   .     S
C1816  O1956   1.287   .     A
C1817  O1983   1.281   .     A
C1817  O1957   1.282   .     A
C1817  C1883   1.458   .     S
C1818  O1958   1.278   .     A
C1818  C1884   1.462   .     S
C1818  O1984   1.287   .     A
C1819  O1981   1.282   .     A
C1819  O1959   1.281   .     A
C1819  C1877   1.458   .     S
C1820  O1982   1.282   .     A
C1820  O1960   1.283   .     A
C1820  C1878   1.460   .     S
C1821  C1887   1.458   .     S
C1821  O1961   1.282   .     A
C1821  O1971   1.281   .     A
C1822  O1972   1.283   .     A
C1822  O1962   1.282   .     A
C1822  C1888   1.460   .     S
C1823  C1889   1.458   .     S
C1823  O1969   1.282   .     A
C1823  O1963   1.281   .     A
C1824  O1964   1.287   .     A
C1824  O1970   1.278   .     A
C1824  C1890   1.462   .     S
C1825  C1891   1.458   .     S
C1825  O1975   1.281   .     A
C1825  O1965   1.282   .     A
C1826  O1976   1.287   .     A
C1826  O1966   1.278   .     A
C1826  C1892   1.462   .     S
C1827  O1967   1.281   .     A
C1827  O1973   1.282   .     A
C1827  C1885   1.458   .     S
C1828  O1968   1.283   .     A
C1828  O1974   1.282   .     A
C1828  C1886   1.460   .     S
C1829  C1892   1.410   .     A
C1829  C1844   1.398   .     A
C1829  O2001   1.385   .     S
C1830  O2012   1.383   .     S
C1830  C1843   1.395   .     A
C1830  C1891   1.409   .     A
C1831  O2023   1.387   .     S
C1831  C1890   1.415   .     A
C1831  C1842   1.390   .     A
C1832  C1841   1.394   .     A
C1832  C1889   1.408   .     A
C1832  O2034   1.383   .     S
C1833  C1888   1.411   .     A
C1833  C1840   1.394   .     A
C1833  O2045   1.385   .     S
C1834  O2056   1.383   .     S
C1834  C1839   1.390   .     A
C1834  C1887   1.407   .     A
C1835  C1886   1.411   .     A
C1835  O2067   1.386   .     S
C1835  C1838   1.395   .     A
C1836  C1837   1.398   .     A
C1836  O2078   1.383   .     S
C1836  C1885   1.409   .     A
C1837  O2089   1.385   .     S
C1837  C1884   1.410   .     A
C1838  O2100   1.383   .     S
C1838  C1883   1.409   .     A
C1839  C1882   1.415   .     A
C1839  O2111   1.387   .     S
C1840  C1881   1.408   .     A
C1840  O2122   1.383   .     S
C1841  O2133   1.385   .     S
C1841  C1880   1.411   .     A
C1842  C1879   1.407   .     A
C1842  O2144   1.383   .     S
C1843  O2155   1.386   .     S
C1843  C1878   1.411   .     A
C1844  O2166   1.383   .     S
C1844  C1877   1.409   .     A
C1845  C1878   1.411   .     A
C1845  O2177   1.385   .     S
C1845  C1860   1.394   .     A
C1846  O2188   1.383   .     S
C1846  C1859   1.390   .     A
C1846  C1877   1.407   .     A
C1847  O2199   1.386   .     S
C1847  C1858   1.395   .     A
C1847  C1880   1.411   .     A
C1848  O2210   1.383   .     S
C1848  C1857   1.398   .     A
C1848  C1879   1.409   .     A
C1849  C1882   1.410   .     A
C1849  C1856   1.398   .     A
C1849  O2221   1.385   .     S
C1850  C1881   1.409   .     A
C1850  C1855   1.395   .     A
C1850  O2232   1.383   .     S
C1851  O2243   1.387   .     S
C1851  C1854   1.390   .     A
C1851  C1884   1.415   .     A
C1852  C1883   1.408   .     A
C1852  C1853   1.394   .     A
C1852  O2254   1.383   .     S
C1853  O2265   1.385   .     S
C1853  C1886   1.411   .     A
C1854  C1885   1.407   .     A
C1854  O2276   1.383   .     S
C1855  O2287   1.386   .     S
C1855  C1888   1.411   .     A
C1856  O2298   1.383   .     S
C1856  C1887   1.409   .     A
C1857  C1890   1.410   .     A
C1857  O2309   1.385   .     S
C1858  O2320   1.383   .     S
C1858  C1889   1.409   .     A
C1859  C1892   1.415   .     A
C1859  O2331   1.387   .     S
C1860  C1891   1.408   .     A
C1860  O2342   1.383   .     S
C1861  C1893   1.411   .     A
C1863  C719    1.410   1_565 S
C1864  C1896   1.410   .     S
C1866  C1894   1.411   .     A
C1867  C1895   1.411   .     A
C1868  C720    1.411   1_565 A
C1870  C1898   1.411   .     A
C1871  C1899   1.411   .     A
C1872  C1900   1.411   .     A
C1873  C1897   1.411   .     A
C1874  C722    1.410   1_565 S
C1893  C1894   1.400   .     A
C1893  C1277   1.410   1_655 S
C1894  C1274   1.410   1_655 S
C1895  C1896   1.401   .     S
C1897  C693    1.410   1_565 S
C1897  C722    1.400   1_566 S
C1898  C721    1.400   1_554 S
C1899  C1287   1.410   1_655 S
C1899  C1900   1.401   1_556 S
C1900  C1288   1.410   1_655 S
C1900  C1899   1.401   1_554 S
O1933  Zn1989  1.949   .     S
O1933  Zn1985  1.949   .     S
O1933  Zn1996  1.952   .     S
O1934  Zn1990  1.949   .     S
O1934  Zn1999  1.952   .     S
O1934  Zn1986  1.949   .     S
O1935  Zn1987  1.952   .     S
O1935  Zn1991  1.952   .     S
O1935  Zn1994  1.949   .     S
O1936  Zn1997  1.949   .     S
O1936  Zn1992  1.952   .     S
O1936  Zn1988  1.952   .     S
O1937  Zn2000  1.948   .     S
O1937  C629    1.284   1_565 S
O1938  Zn1999  1.948   .     S
O1939  Zn1994  1.947   .     S
O1940  Zn1993  1.947   .     S
O1941  Zn1996  1.948   .     S
O1942  C630    1.283   1_565 A
O1942  Zn1995  1.948   .     S
O1943  Zn1998  1.947   .     S
O1944  Zn1997  1.947   .     S
O1945  Zn1992  1.948   .     S
O1946  Zn1991  1.948   .     S
O1947  Zn1986  1.947   .     S
O1948  Zn1985  1.947   .     S
O1949  Zn1988  1.948   .     S
O1950  Zn1987  1.948   .     S
O1951  Zn1990  1.947   .     S
O1952  Zn1989  1.947   .     S
O1953  Zn1996  1.940   .     S
O1954  Zn1995  1.940   .     S
O1955  Zn1998  1.941   .     S
O1956  Zn1997  1.941   .     S
O1957  Zn2000  1.940   .     S
O1958  Zn1999  1.940   .     S
O1959  Zn1994  1.941   .     S
O1960  Zn1993  1.941   .     S
O1961  Zn1995  1.940   .     S
O1962  Zn1996  1.940   .     S
O1963  Zn1993  1.941   .     S
O1964  Zn1994  1.941   .     S
O1965  Zn1999  1.940   .     S
O1966  Zn2000  1.940   .     S
O1967  Zn1997  1.941   .     S
O1968  Zn1998  1.941   .     S
O1969  Zn1400  1.940   1_655 S
O1970  Zn1987  1.940   .     S
O1971  Zn814   1.941   1_565 S
O1972  Zn1989  1.941   .     S
O1973  Zn1992  1.940   .     S
O1974  Zn1403  1.940   1_655 S
O1975  Zn1986  1.941   .     S
O1976  Zn809   1.941   1_565 S
O1977  Zn1399  1.940   1_655 S
O1978  Zn1988  1.940   .     S
O1979  Zn1985  1.941   .     S
O1980  Zn810   1.941   1_565 S
O1981  Zn1991  1.940   .     S
O1982  Zn1404  1.940   1_655 S
O1983  Zn813   1.941   1_565 S
O1984  Zn1990  1.941   .     S
Zn1993 O1348   1.949   1_655 S
Zn1995 O758    1.952   1_565 S
Zn1998 O1347   1.949   1_655 S
Zn2000 O757    1.952   1_565 S
O2001  C2002   1.412   .     S
C2002  C2005   1.527   .     S
C2002  H2003   1.115   .     S
C2002  H2004   1.111   .     S
C2005  C2008   1.523   .     S
C2005  H2006   1.110   .     S
C2005  H2007   1.112   .     S
C2008  H2010   1.111   .     S
C2008  H833    1.107   1_565 S
C2008  H835    1.110   1_565 S
O2012  C2013   1.411   .     S
C2013  H2014   1.115   .     S
C2013  C2016   1.526   .     S
C2013  H2015   1.115   .     S
C2016  C2019   1.526   .     S
C2016  H2017   1.109   .     S
C2016  H2018   1.112   .     S
C2019  H2021   1.110   .     S
C2019  H2022   1.111   .     S
C2019  H2020   1.111   .     S
O2023  C2024   1.421   .     S
C2024  H2025   1.112   .     S
C2024  C2027   1.529   .     S
C2024  H2026   1.117   .     S
C2027  H2028   1.112   .     S
C2027  H2029   1.110   .     S
C2027  C2030   1.527   .     S
C2030  H2032   1.111   .     S
C2030  H2031   1.111   .     S
H2033  C1442   1.111   1_655 S
O2034  C2035   1.412   .     S
C2035  H2036   1.115   .     S
C2035  C2038   1.526   .     S
C2035  H2037   1.115   .     S
C2038  C2041   1.526   .     S
C2038  H2039   1.109   .     S
C2038  H2040   1.112   .     S
C2041  H2042   1.111   .     S
C2041  H2044   1.111   .     S
C2041  H2043   1.110   .     S
O2045  C2046   1.414   .     S
C2046  H2047   1.117   .     S
C2046  C2049   1.528   .     S
C2046  H2048   1.113   .     S
C2049  H2051   1.112   .     S
C2049  H2050   1.112   .     S
C2052  H2055   1.110   .     S
C2052  H2053   1.110   .     S
C2052  C873    1.525   1_565 S
C2052  H878    1.111   1_565 S
O2056  C2057   1.411   .     S
C2057  H2058   1.115   .     S
C2057  C2060   1.526   .     S
C2057  H2059   1.115   .     S
C2060  C2063   1.526   .     S
C2060  H2062   1.112   .     S
C2060  H2061   1.109   .     S
C2063  H2066   1.111   .     S
C2063  H2064   1.111   .     S
C2063  H2065   1.110   .     S
O2067  C2068   1.414   .     S
C2068  C2071   1.529   .     S
C2068  H2069   1.117   .     S
C2068  H2070   1.110   .     S
C2071  H2072   1.111   .     S
C2071  H2073   1.112   .     S
C2071  C1486   1.526   1_655 S
C2074  H2076   1.110   .     S
C2074  H2077   1.111   .     S
H2075  C1486   1.111   1_655 S
O2078  C2079   1.411   .     S
C2079  C2082   1.527   .     S
C2079  H2081   1.115   .     S
C2079  H2080   1.115   .     S
C2082  C2085   1.526   .     S
C2082  H2084   1.112   .     S
C2082  H2083   1.109   .     S
C2085  H2086   1.111   .     S
C2085  H2088   1.111   .     S
C2085  H2087   1.110   .     S
O2089  C2090   1.412   .     S
C2090  H2091   1.115   .     S
C2090  C2093   1.527   .     S
C2090  H2092   1.111   .     S
C2093  H2095   1.112   .     S
C2093  H2094   1.109   .     S
C2093  C2096   1.523   .     S
C2096  H2098   1.111   .     S
H2097  C920    1.108   1_565 S
H2099  C920    1.110   1_565 S
O2100  C2101   1.411   .     S
C2101  H2102   1.115   .     S
C2101  C2104   1.526   .     S
C2101  H2103   1.115   .     S
C2104  H2105   1.109   .     S
C2104  C2107   1.526   .     S
C2104  H2106   1.112   .     S
C2107  H2109   1.110   .     S
C2107  H2108   1.111   .     S
C2107  H2110   1.111   .     S
O2111  C2112   1.421   .     S
C2112  H2113   1.112   .     S
C2112  C2115   1.530   .     S
C2112  H2114   1.117   .     S
C2115  H2116   1.112   .     S
C2115  C2118   1.527   .     S
C2115  H2117   1.110   .     S
C2118  H2119   1.111   .     S
C2118  H2120   1.111   .     S
H2121  C1530   1.111   1_655 S
O2122  C2123   1.412   .     S
C2123  H2124   1.115   .     S
C2123  C2126   1.526   .     S
C2123  H2125   1.115   .     S
C2126  H2127   1.109   .     S
C2126  H2128   1.112   .     S
C2126  C2129   1.526   .     S
C2129  H2130   1.111   .     S
C2129  H2132   1.111   .     S
C2129  H2131   1.110   .     S
O2133  C2134   1.414   .     S
C2134  H2135   1.117   .     S
C2134  H2136   1.113   .     S
C2134  C2137   1.528   .     S
C2137  H2139   1.112   .     S
C2137  H2138   1.112   .     S
C2137  C964    1.525   1_565 S
C2140  H2143   1.110   .     S
C2140  H2141   1.110   .     S
H2142  C964    1.111   1_565 S
O2144  C2145   1.411   .     S
C2145  H2146   1.115   .     S
C2145  C2148   1.526   .     S
C2145  H2147   1.115   .     S
C2148  H2150   1.112   .     S
C2148  H2149   1.109   .     S
C2148  C2151   1.526   .     S
C2151  H2154   1.111   .     S
C2151  H2152   1.111   .     S
C2151  H2153   1.110   .     S
O2155  C2156   1.414   .     S
C2156  H2157   1.117   .     S
C2156  C2159   1.529   .     S
C2156  H2158   1.110   .     S
C2159  H2160   1.111   .     S
C2159  H2161   1.112   .     S
C2159  C1574   1.526   1_655 S
C2162  H2164   1.110   .     S
C2162  H2165   1.111   .     S
H2163  C1574   1.111   1_655 S
O2166  C2167   1.411   .     S
C2167  H2169   1.115   .     S
C2167  C2170   1.527   .     S
C2167  H2168   1.115   .     S
C2170  H2172   1.112   .     S
C2170  H2171   1.109   .     S
C2170  C2173   1.526   .     S
C2173  H2174   1.111   .     S
C2173  H2176   1.111   .     S
C2173  H2175   1.110   .     S
O2177  C2178   1.414   .     S
C2178  C2181   1.528   .     S
C2178  H2180   1.113   .     S
C2178  H2179   1.117   .     S
C2181  H2183   1.112   .     S
C2181  H2182   1.112   .     S
C2181  C2184   1.525   .     S
C2184  H2185   1.110   .     S
C2184  H2187   1.110   .     S
C2184  H2186   1.111   .     S
O2188  C2189   1.411   .     S
C2189  H2190   1.115   .     S
C2189  H2191   1.115   .     S
C2189  C2192   1.526   .     S
C2192  H2193   1.109   .     S
C2192  C2195   1.526   .     S
C2192  H2194   1.112   .     S
C2195  H2197   1.110   .     S
C2195  H2196   1.111   .     S
C2195  H2198   1.111   .     S
O2199  C2200   1.414   .     S
C2200  C2203   1.529   .     S
C2200  H2201   1.117   .     S
C2200  H2202   1.110   .     S
C2203  H2204   1.111   .     S
C2203  H2205   1.112   .     S
C2203  C2206   1.526   .     S
C2206  H2207   1.111   .     S
C2206  H2208   1.110   .     S
C2206  H2209   1.111   .     S
O2210  C2211   1.411   .     S
C2211  H2213   1.115   .     S
C2211  H2212   1.115   .     S
C2211  C2214   1.527   .     S
C2214  H2216   1.112   .     S
C2214  C2217   1.526   .     S
C2214  H2215   1.109   .     S
C2217  H2220   1.111   .     S
C2217  H2219   1.110   .     S
C2217  H2218   1.111   .     S
O2221  C2222   1.412   .     S
C2222  C2225   1.527   .     S
C2222  H2223   1.115   .     S
C2222  H2224   1.111   .     S
C2225  H2226   1.109   .     S
C2225  C2228   1.523   .     S
C2225  H2227   1.112   .     S
C2228  H2229   1.108   .     S
C2228  H2231   1.110   .     S
C2228  H2230   1.111   .     S
O2232  C2233   1.411   .     S
C2233  H2234   1.115   .     S
C2233  H2235   1.115   .     S
C2233  C2236   1.526   .     S
C2236  C2239   1.526   .     S
C2236  H2237   1.109   .     S
C2236  H2238   1.112   .     S
C2239  H2242   1.111   .     S
C2239  H2240   1.111   .     S
C2239  H2241   1.110   .     S
O2243  C2244   1.421   .     S
C2244  H2245   1.112   .     S
C2244  C2247   1.530   .     S
C2244  H2246   1.117   .     S
C2247  C2250   1.527   .     S
C2247  H2248   1.112   .     S
C2247  H2249   1.110   .     S
C2250  H2251   1.111   .     S
C2250  H2253   1.111   .     S
C2250  H2252   1.111   .     S
O2254  C2255   1.412   .     S
C2255  H2257   1.115   .     S
C2255  C2258   1.526   .     S
C2255  H2256   1.115   .     S
C2258  H2260   1.112   .     S
C2258  C2261   1.526   .     S
C2258  H2259   1.109   .     S
C2261  H2263   1.110   .     S
C2261  H2264   1.111   .     S
C2261  H2262   1.111   .     S
O2265  C2266   1.414   .     S
C2266  C2269   1.528   .     S
C2266  H2268   1.113   .     S
C2266  H2267   1.117   .     S
C2269  H2271   1.112   .     S
C2269  H2270   1.112   .     S
C2269  C2272   1.525   .     S
C2272  H2273   1.110   .     S
C2272  H2275   1.110   .     S
C2272  H2274   1.111   .     S
O2276  C2277   1.411   .     S
C2277  H2279   1.115   .     S
C2277  C2280   1.526   .     S
C2277  H2278   1.115   .     S
C2280  H2281   1.109   .     S
C2280  C2283   1.526   .     S
C2280  H2282   1.112   .     S
C2283  H2286   1.111   .     S
C2283  H2285   1.110   .     S
C2283  H2284   1.111   .     S
O2287  C2288   1.414   .     S
C2288  C2291   1.529   .     S
C2288  H2290   1.110   .     S
C2288  H2289   1.117   .     S
C2291  C2294   1.526   .     S
C2291  H2293   1.112   .     S
C2291  H2292   1.111   .     S
C2294  H2296   1.110   .     S
C2294  H2297   1.111   .     S
C2294  H2295   1.111   .     S
O2298  C2299   1.411   .     S
C2299  C2302   1.527   .     S
C2299  H2301   1.115   .     S
C2299  H2300   1.115   .     S
C2302  H2303   1.109   .     S
C2302  H2304   1.112   .     S
C2302  C2305   1.526   .     S
C2305  H2308   1.111   .     S
C2305  H2306   1.111   .     S
C2305  H2307   1.110   .     S
O2309  C2310   1.412   .     S
C2310  C2313   1.527   .     S
C2310  H2311   1.115   .     S
C2310  H2312   1.111   .     S
C2313  H2315   1.112   .     S
C2313  H2314   1.109   .     S
C2313  C2316   1.523   .     S
C2316  H2318   1.111   .     S
C2316  H2319   1.110   .     S
C2316  H2317   1.107   .     S
O2320  C2321   1.411   .     S
C2321  H2322   1.115   .     S
C2321  C2324   1.526   .     S
C2321  H2323   1.115   .     S
C2324  H2325   1.109   .     S
C2324  C2327   1.526   .     S
C2324  H2326   1.112   .     S
C2327  H2328   1.111   .     S
C2327  H2329   1.110   .     S
C2327  H2330   1.111   .     S
O2331  C2332   1.421   .     S
C2332  H2333   1.112   .     S
C2332  C2335   1.530   .     S
C2332  H2334   1.117   .     S
C2335  H2337   1.110   .     S
C2335  H2336   1.112   .     S
C2335  C2338   1.527   .     S
C2338  H2339   1.111   .     S
C2338  H2341   1.111   .     S
C2338  H2340   1.111   .     S
O2342  C2343   1.412   .     S
C2343  C2346   1.526   .     S
C2343  H2344   1.115   .     S
C2343  H2345   1.115   .     S
C2346  C2349   1.526   .     S
C2346  H2347   1.109   .     S
C2346  H2348   1.112   .     S
C2349  H2350   1.111   .     S
C2349  H2352   1.111   .     S
C2349  H2351   1.110   .     S
