data_str_m1_o10_o16_pcu_sym.75
_audit_creation_date              2020-01-03
_audit_creation_method            'Materials Studio'
_symmetry_space_group_name_H-M    'P1'
_symmetry_Int_Tables_number       1
_symmetry_cell_setting            triclinic
loop_
_symmetry_equiv_pos_as_xyz
  x,y,z
_cell_length_a                    32.5277
_cell_length_b                    32.5832
_cell_length_c                    30.9400
_cell_angle_alpha                 96.6053
_cell_angle_beta                  75.0624
_cell_angle_gamma                 98.5483
loop_
_atom_site_label
_atom_site_type_symbol
_atom_site_fract_x
_atom_site_fract_y
_atom_site_fract_z
_atom_site_U_iso_or_equiv
_atom_site_adp_type
_atom_site_occupancy
Br1    Br    0.10666   0.09913   0.40268   0.00000  Uiso   1.00
C2     C     0.05272   0.15951   0.26004   0.00000  Uiso   1.00
C3     C     0.18457   0.16695   0.05482   0.00000  Uiso   1.00
C4     C     0.19652   0.09736   0.06356   0.00000  Uiso   1.00
C5     C     0.28075   0.17379   0.24007   0.00000  Uiso   1.00
C6     C     0.14754   0.19768   0.41887   0.00000  Uiso   1.00
C7     C     0.32656   0.17659   0.23620   0.00000  Uiso   1.00
C8     C     0.00747   0.15685   0.26383   0.00000  Uiso   1.00
C9     C     0.18044   0.32241   0.23654   0.00000  Uiso   1.00
C10    C     0.15190   0.01172   0.26382   0.00000  Uiso   1.00
C11    C     0.15618   0.05581   0.26014   0.00000  Uiso   1.00
C12    C     0.17657   0.27788   0.24019   0.00000  Uiso   1.00
C13    C     0.16784   0.25501   0.46944   0.00000  Uiso   1.00
C14    C     0.18501   0.14800   0.12930   0.00000  Uiso   1.00
C15    C     0.14909   0.18519   0.37096   0.00000  Uiso   1.00
C16    C     0.18989   0.08372   0.02113   0.00000  Uiso   1.00
C17    C     0.19177   0.13825   0.08110   0.00000  Uiso   1.00
C18    C     0.14908   0.24054   0.43400   0.00000  Uiso   1.00
C19    C     0.19132   0.03832   0.00543   0.00000  Uiso   1.00
C20    C     0.13582   0.27244   0.41017   0.00000  Uiso   1.00
C21    C     0.21815   0.24842   0.01486   0.00000  Uiso   1.00
C22    C     0.18457   0.22824   0.49052   0.00000  Uiso   1.00
C23    C     0.17401   0.18437   0.48298   0.00000  Uiso   1.00
C24    C     0.15560   0.16898   0.44614   0.00000  Uiso   1.00
C25    C     0.18106   0.15526   0.01055   0.00000  Uiso   1.00
C26    C     0.17918   0.11224   0.49570   0.00000  Uiso   1.00
C27    C     0.16215   0.09809   0.45874   0.00000  Uiso   1.00
C28    C     0.14657   0.12525   0.43724   0.00000  Uiso   1.00
H29    H     0.20196   0.07530   0.08460   0.00000  Uiso   1.00
H30    H     0.20305   0.02145   0.02821   0.00000  Uiso   1.00
H31    H     0.15857   0.02338   0.00447   0.00000  Uiso   1.00
H32    H     0.13685   0.30371   0.42878   0.00000  Uiso   1.00
H33    H     0.15780   0.27562   0.37638   0.00000  Uiso   1.00
H34    H     0.10233   0.26309   0.40729   0.00000  Uiso   1.00
H35    H     0.20260   0.26308   0.04811   0.00000  Uiso   1.00
H36    H     0.23953   0.22617   0.01844   0.00000  Uiso   1.00
H37    H     0.23953   0.27322   0.49517   0.00000  Uiso   1.00
H38    H     0.31925   0.13846   0.28954   0.00000  Uiso   1.00
H39    H     0.20680   0.00358   0.21141   0.00000  Uiso   1.00
H40    H     0.12519   0.33133   0.28907   0.00000  Uiso   1.00
H41    H     0.15655   0.06515   0.44908   0.00000  Uiso   1.00
H42    H     0.17726   0.19709   0.07097   0.00000  Uiso   1.00
H43    H     0.17359   0.28814   0.47768   0.00000  Uiso   1.00
H44    H     0.01549   0.19479   0.21073   0.00000  Uiso   1.00
H45    H     0.21325   0.03508   0.47149   0.00000  Uiso   1.00
O46    O     0.16667   0.16667   0.25000   0.00000  Uiso   1.00
O47    O     0.15451   0.12637   0.15458   0.00000  Uiso   1.00
O48    O     0.12940   0.20391   0.34968   0.00000  Uiso   1.00
O49    O     0.20824   0.17759   0.14606   0.00000  Uiso   1.00
O50    O     0.17451   0.15880   0.34968   0.00000  Uiso   1.00
O51    O     0.17930   0.08019   0.28214   0.00000  Uiso   1.00
O52    O     0.14632   0.26085   0.27013   0.00000  Uiso   1.00
O53    O     0.07412   0.13291   0.23413   0.00000  Uiso   1.00
O54    O     0.26693   0.19272   0.21360   0.00000  Uiso   1.00
O55    O     0.07071   0.18878   0.28213   0.00000  Uiso   1.00
O56    O     0.25491   0.15226   0.27013   0.00000  Uiso   1.00
O57    O     0.13760   0.06944   0.23413   0.00000  Uiso   1.00
O58    O     0.20345   0.25620   0.21360   0.00000  Uiso   1.00
Zn59   Zn    0.19338   0.13994   0.28734   0.00000  Uiso   1.00
Zn60   Zn    0.13379   0.12458   0.21875   0.00000  Uiso   1.00
Zn61   Zn    0.21056   0.19775   0.20657   0.00000  Uiso   1.00
Zn62   Zn    0.12893   0.20439   0.28733   0.00000  Uiso   1.00
Br63   Br    0.43999   0.09913   0.40268   0.00000  Uiso   1.00
C64    C     0.38606   0.15951   0.26004   0.00000  Uiso   1.00
C65    C     0.51790   0.16695   0.05482   0.00000  Uiso   1.00
C66    C     0.52985   0.09736   0.06356   0.00000  Uiso   1.00
C67    C     0.61409   0.17379   0.24007   0.00000  Uiso   1.00
C68    C     0.48087   0.19768   0.41887   0.00000  Uiso   1.00
C69    C     0.65989   0.17659   0.23620   0.00000  Uiso   1.00
C70    C     0.34080   0.15685   0.26383   0.00000  Uiso   1.00
C71    C     0.51377   0.32241   0.23654   0.00000  Uiso   1.00
C72    C     0.48523   0.01172   0.26382   0.00000  Uiso   1.00
C73    C     0.48951   0.05581   0.26014   0.00000  Uiso   1.00
C74    C     0.50991   0.27788   0.24019   0.00000  Uiso   1.00
C75    C     0.50118   0.25501   0.46944   0.00000  Uiso   1.00
C76    C     0.51835   0.14800   0.12930   0.00000  Uiso   1.00
C77    C     0.48242   0.18519   0.37096   0.00000  Uiso   1.00
C78    C     0.52323   0.08372   0.02113   0.00000  Uiso   1.00
C79    C     0.52510   0.13825   0.08110   0.00000  Uiso   1.00
C80    C     0.48241   0.24054   0.43400   0.00000  Uiso   1.00
C81    C     0.52466   0.03832   0.00543   0.00000  Uiso   1.00
C82    C     0.46915   0.27244   0.41017   0.00000  Uiso   1.00
C83    C     0.55148   0.24842   0.01486   0.00000  Uiso   1.00
C84    C     0.51791   0.22824   0.49052   0.00000  Uiso   1.00
C85    C     0.50734   0.18437   0.48298   0.00000  Uiso   1.00
C86    C     0.48894   0.16898   0.44614   0.00000  Uiso   1.00
C87    C     0.51439   0.15526   0.01055   0.00000  Uiso   1.00
C88    C     0.51251   0.11224   0.49570   0.00000  Uiso   1.00
C89    C     0.49549   0.09809   0.45874   0.00000  Uiso   1.00
C90    C     0.47991   0.12525   0.43724   0.00000  Uiso   1.00
H91    H     0.53529   0.07530   0.08460   0.00000  Uiso   1.00
H92    H     0.53639   0.02145   0.02821   0.00000  Uiso   1.00
H93    H     0.49190   0.02338   0.00447   0.00000  Uiso   1.00
H94    H     0.47019   0.30371   0.42878   0.00000  Uiso   1.00
H95    H     0.49113   0.27562   0.37638   0.00000  Uiso   1.00
H96    H     0.43566   0.26309   0.40729   0.00000  Uiso   1.00
H97    H     0.53594   0.26308   0.04811   0.00000  Uiso   1.00
H98    H     0.57287   0.22617   0.01844   0.00000  Uiso   1.00
H99    H     0.57286   0.27322   0.49517   0.00000  Uiso   1.00
H100   H     0.65258   0.13846   0.28954   0.00000  Uiso   1.00
H101   H     0.54013   0.00358   0.21141   0.00000  Uiso   1.00
H102   H     0.45852   0.33133   0.28907   0.00000  Uiso   1.00
H103   H     0.48988   0.06515   0.44908   0.00000  Uiso   1.00
H104   H     0.51059   0.19709   0.07097   0.00000  Uiso   1.00
H105   H     0.50692   0.28814   0.47768   0.00000  Uiso   1.00
H106   H     0.34883   0.19479   0.21073   0.00000  Uiso   1.00
H107   H     0.54659   0.03508   0.47149   0.00000  Uiso   1.00
O108   O     0.50000   0.16667   0.25000   0.00000  Uiso   1.00
O109   O     0.48784   0.12637   0.15458   0.00000  Uiso   1.00
O110   O     0.46274   0.20391   0.34968   0.00000  Uiso   1.00
O111   O     0.54157   0.17759   0.14606   0.00000  Uiso   1.00
O112   O     0.50785   0.15880   0.34968   0.00000  Uiso   1.00
O113   O     0.51264   0.08019   0.28214   0.00000  Uiso   1.00
O114   O     0.47965   0.26085   0.27013   0.00000  Uiso   1.00
O115   O     0.40745   0.13291   0.23413   0.00000  Uiso   1.00
O116   O     0.60026   0.19272   0.21360   0.00000  Uiso   1.00
O117   O     0.40405   0.18878   0.28213   0.00000  Uiso   1.00
O118   O     0.58824   0.15226   0.27013   0.00000  Uiso   1.00
O119   O     0.47093   0.06944   0.23413   0.00000  Uiso   1.00
O120   O     0.53678   0.25620   0.21360   0.00000  Uiso   1.00
Zn121  Zn    0.52672   0.13994   0.28734   0.00000  Uiso   1.00
Zn122  Zn    0.46713   0.12458   0.21875   0.00000  Uiso   1.00
Zn123  Zn    0.54389   0.19775   0.20657   0.00000  Uiso   1.00
Zn124  Zn    0.46226   0.20439   0.28733   0.00000  Uiso   1.00
Br125  Br    0.77333   0.09913   0.40268   0.00000  Uiso   1.00
C126   C     0.71939   0.15951   0.26004   0.00000  Uiso   1.00
C127   C     0.85123   0.16695   0.05482   0.00000  Uiso   1.00
C128   C     0.86319   0.09736   0.06356   0.00000  Uiso   1.00
C129   C     0.94742   0.17379   0.24007   0.00000  Uiso   1.00
C130   C     0.81420   0.19768   0.41887   0.00000  Uiso   1.00
C131   C     0.99323   0.17659   0.23620   0.00000  Uiso   1.00
C132   C     0.67414   0.15685   0.26383   0.00000  Uiso   1.00
C133   C     0.84710   0.32241   0.23654   0.00000  Uiso   1.00
C134   C     0.81856   0.01172   0.26382   0.00000  Uiso   1.00
C135   C     0.82284   0.05581   0.26014   0.00000  Uiso   1.00
C136   C     0.84324   0.27788   0.24019   0.00000  Uiso   1.00
C137   C     0.83451   0.25501   0.46944   0.00000  Uiso   1.00
C138   C     0.85168   0.14800   0.12930   0.00000  Uiso   1.00
C139   C     0.81576   0.18519   0.37096   0.00000  Uiso   1.00
C140   C     0.85656   0.08372   0.02113   0.00000  Uiso   1.00
C141   C     0.85844   0.13825   0.08110   0.00000  Uiso   1.00
C142   C     0.81574   0.24054   0.43400   0.00000  Uiso   1.00
C143   C     0.85799   0.03832   0.00543   0.00000  Uiso   1.00
C144   C     0.80249   0.27244   0.41017   0.00000  Uiso   1.00
C145   C     0.88482   0.24842   0.01486   0.00000  Uiso   1.00
C146   C     0.85124   0.22824   0.49052   0.00000  Uiso   1.00
C147   C     0.84068   0.18437   0.48298   0.00000  Uiso   1.00
C148   C     0.82227   0.16898   0.44614   0.00000  Uiso   1.00
C149   C     0.84773   0.15526   0.01055   0.00000  Uiso   1.00
C150   C     0.84584   0.11224   0.49570   0.00000  Uiso   1.00
C151   C     0.82882   0.09809   0.45874   0.00000  Uiso   1.00
C152   C     0.81324   0.12525   0.43724   0.00000  Uiso   1.00
H153   H     0.86863   0.07530   0.08460   0.00000  Uiso   1.00
H154   H     0.86972   0.02145   0.02821   0.00000  Uiso   1.00
H155   H     0.82523   0.02338   0.00447   0.00000  Uiso   1.00
H156   H     0.80352   0.30371   0.42878   0.00000  Uiso   1.00
H157   H     0.82447   0.27562   0.37638   0.00000  Uiso   1.00
H158   H     0.76900   0.26309   0.40729   0.00000  Uiso   1.00
H159   H     0.86927   0.26308   0.04811   0.00000  Uiso   1.00
H160   H     0.90620   0.22617   0.01844   0.00000  Uiso   1.00
H161   H     0.90619   0.27322   0.49517   0.00000  Uiso   1.00
H162   H     0.98591   0.13846   0.28954   0.00000  Uiso   1.00
H163   H     0.87346   0.00358   0.21141   0.00000  Uiso   1.00
H164   H     0.79185   0.33133   0.28907   0.00000  Uiso   1.00
H165   H     0.82322   0.06515   0.44908   0.00000  Uiso   1.00
H166   H     0.84392   0.19709   0.07097   0.00000  Uiso   1.00
H167   H     0.84026   0.28814   0.47768   0.00000  Uiso   1.00
H168   H     0.68216   0.19479   0.21073   0.00000  Uiso   1.00
H169   H     0.87992   0.03508   0.47149   0.00000  Uiso   1.00
O170   O     0.83333   0.16667   0.25000   0.00000  Uiso   1.00
O171   O     0.82118   0.12637   0.15458   0.00000  Uiso   1.00
O172   O     0.79607   0.20391   0.34968   0.00000  Uiso   1.00
O173   O     0.87491   0.17759   0.14606   0.00000  Uiso   1.00
O174   O     0.84118   0.15880   0.34968   0.00000  Uiso   1.00
O175   O     0.84597   0.08019   0.28214   0.00000  Uiso   1.00
O176   O     0.81298   0.26085   0.27013   0.00000  Uiso   1.00
O177   O     0.74078   0.13291   0.23413   0.00000  Uiso   1.00
O178   O     0.93360   0.19272   0.21360   0.00000  Uiso   1.00
O179   O     0.73738   0.18878   0.28213   0.00000  Uiso   1.00
O180   O     0.92158   0.15226   0.27013   0.00000  Uiso   1.00
O181   O     0.80426   0.06944   0.23413   0.00000  Uiso   1.00
O182   O     0.87012   0.25620   0.21360   0.00000  Uiso   1.00
Zn183  Zn    0.86005   0.13994   0.28734   0.00000  Uiso   1.00
Zn184  Zn    0.80046   0.12458   0.21875   0.00000  Uiso   1.00
Zn185  Zn    0.87723   0.19775   0.20657   0.00000  Uiso   1.00
Zn186  Zn    0.79560   0.20439   0.28733   0.00000  Uiso   1.00
Br187  Br    0.10666   0.43247   0.40268   0.00000  Uiso   1.00
C188   C     0.05272   0.49284   0.26004   0.00000  Uiso   1.00
C189   C     0.18457   0.50028   0.05482   0.00000  Uiso   1.00
C190   C     0.19652   0.43070   0.06356   0.00000  Uiso   1.00
C191   C     0.28075   0.50712   0.24007   0.00000  Uiso   1.00
C192   C     0.14754   0.53101   0.41887   0.00000  Uiso   1.00
C193   C     0.32656   0.50992   0.23620   0.00000  Uiso   1.00
C194   C     0.00747   0.49018   0.26383   0.00000  Uiso   1.00
C195   C     0.18044   0.65575   0.23654   0.00000  Uiso   1.00
C196   C     0.15190   0.34505   0.26382   0.00000  Uiso   1.00
C197   C     0.15618   0.38914   0.26014   0.00000  Uiso   1.00
C198   C     0.17657   0.61121   0.24019   0.00000  Uiso   1.00
C199   C     0.16784   0.58834   0.46944   0.00000  Uiso   1.00
C200   C     0.18501   0.48134   0.12930   0.00000  Uiso   1.00
C201   C     0.14909   0.51853   0.37096   0.00000  Uiso   1.00
C202   C     0.18989   0.41705   0.02113   0.00000  Uiso   1.00
C203   C     0.19177   0.47158   0.08110   0.00000  Uiso   1.00
C204   C     0.14908   0.57387   0.43400   0.00000  Uiso   1.00
C205   C     0.19132   0.37165   0.00543   0.00000  Uiso   1.00
C206   C     0.13582   0.60577   0.41017   0.00000  Uiso   1.00
C207   C     0.21815   0.58175   0.01486   0.00000  Uiso   1.00
C208   C     0.18457   0.56157   0.49052   0.00000  Uiso   1.00
C209   C     0.17401   0.51770   0.48298   0.00000  Uiso   1.00
C210   C     0.15560   0.50231   0.44614   0.00000  Uiso   1.00
C211   C     0.18106   0.48859   0.01055   0.00000  Uiso   1.00
C212   C     0.17918   0.44557   0.49570   0.00000  Uiso   1.00
C213   C     0.16215   0.43142   0.45874   0.00000  Uiso   1.00
C214   C     0.14657   0.45859   0.43724   0.00000  Uiso   1.00
H215   H     0.20196   0.40864   0.08460   0.00000  Uiso   1.00
H216   H     0.20305   0.35478   0.02821   0.00000  Uiso   1.00
H217   H     0.15857   0.35671   0.00447   0.00000  Uiso   1.00
H218   H     0.13685   0.63704   0.42878   0.00000  Uiso   1.00
H219   H     0.15780   0.60895   0.37638   0.00000  Uiso   1.00
H220   H     0.10233   0.59643   0.40729   0.00000  Uiso   1.00
H221   H     0.20260   0.59642   0.04811   0.00000  Uiso   1.00
H222   H     0.23953   0.55950   0.01844   0.00000  Uiso   1.00
H223   H     0.23953   0.60655   0.49517   0.00000  Uiso   1.00
H224   H     0.31925   0.47180   0.28954   0.00000  Uiso   1.00
H225   H     0.20680   0.33691   0.21141   0.00000  Uiso   1.00
H226   H     0.12519   0.66466   0.28907   0.00000  Uiso   1.00
H227   H     0.15655   0.39849   0.44908   0.00000  Uiso   1.00
H228   H     0.17726   0.53042   0.07097   0.00000  Uiso   1.00
H229   H     0.17359   0.62148   0.47768   0.00000  Uiso   1.00
H230   H     0.01549   0.52812   0.21073   0.00000  Uiso   1.00
H231   H     0.21325   0.36842   0.47149   0.00000  Uiso   1.00
O232   O     0.16667   0.50000   0.25000   0.00000  Uiso   1.00
O233   O     0.15451   0.45970   0.15458   0.00000  Uiso   1.00
O234   O     0.12940   0.53724   0.34968   0.00000  Uiso   1.00
O235   O     0.20824   0.51092   0.14606   0.00000  Uiso   1.00
O236   O     0.17451   0.49213   0.34968   0.00000  Uiso   1.00
O237   O     0.17930   0.41352   0.28214   0.00000  Uiso   1.00
O238   O     0.14632   0.59418   0.27013   0.00000  Uiso   1.00
O239   O     0.07412   0.46625   0.23413   0.00000  Uiso   1.00
O240   O     0.26693   0.52605   0.21360   0.00000  Uiso   1.00
O241   O     0.07071   0.52211   0.28213   0.00000  Uiso   1.00
O242   O     0.25491   0.48559   0.27013   0.00000  Uiso   1.00
O243   O     0.13760   0.40277   0.23413   0.00000  Uiso   1.00
O244   O     0.20345   0.58953   0.21360   0.00000  Uiso   1.00
Zn245  Zn    0.19338   0.47327   0.28734   0.00000  Uiso   1.00
Zn246  Zn    0.13379   0.45791   0.21875   0.00000  Uiso   1.00
Zn247  Zn    0.21056   0.53109   0.20657   0.00000  Uiso   1.00
Zn248  Zn    0.12893   0.53773   0.28733   0.00000  Uiso   1.00
Br249  Br    0.43999   0.43247   0.40268   0.00000  Uiso   1.00
C250   C     0.38606   0.49284   0.26004   0.00000  Uiso   1.00
C251   C     0.51790   0.50028   0.05482   0.00000  Uiso   1.00
C252   C     0.52985   0.43070   0.06356   0.00000  Uiso   1.00
C253   C     0.61409   0.50712   0.24007   0.00000  Uiso   1.00
C254   C     0.48087   0.53101   0.41887   0.00000  Uiso   1.00
C255   C     0.65989   0.50992   0.23620   0.00000  Uiso   1.00
C256   C     0.34080   0.49018   0.26383   0.00000  Uiso   1.00
C257   C     0.51377   0.65575   0.23654   0.00000  Uiso   1.00
C258   C     0.48523   0.34505   0.26382   0.00000  Uiso   1.00
C259   C     0.48951   0.38914   0.26014   0.00000  Uiso   1.00
C260   C     0.50991   0.61121   0.24019   0.00000  Uiso   1.00
C261   C     0.50118   0.58834   0.46944   0.00000  Uiso   1.00
C262   C     0.51835   0.48134   0.12930   0.00000  Uiso   1.00
C263   C     0.48242   0.51853   0.37096   0.00000  Uiso   1.00
C264   C     0.52323   0.41705   0.02113   0.00000  Uiso   1.00
C265   C     0.52510   0.47158   0.08110   0.00000  Uiso   1.00
C266   C     0.48241   0.57387   0.43400   0.00000  Uiso   1.00
C267   C     0.52466   0.37165   0.00543   0.00000  Uiso   1.00
C268   C     0.46915   0.60577   0.41017   0.00000  Uiso   1.00
C269   C     0.55148   0.58175   0.01486   0.00000  Uiso   1.00
C270   C     0.51791   0.56157   0.49052   0.00000  Uiso   1.00
C271   C     0.50734   0.51770   0.48298   0.00000  Uiso   1.00
C272   C     0.48894   0.50231   0.44614   0.00000  Uiso   1.00
C273   C     0.51439   0.48859   0.01055   0.00000  Uiso   1.00
C274   C     0.51251   0.44557   0.49570   0.00000  Uiso   1.00
C275   C     0.49549   0.43142   0.45874   0.00000  Uiso   1.00
C276   C     0.47991   0.45859   0.43724   0.00000  Uiso   1.00
H277   H     0.53529   0.40864   0.08460   0.00000  Uiso   1.00
H278   H     0.53639   0.35478   0.02821   0.00000  Uiso   1.00
H279   H     0.49190   0.35671   0.00447   0.00000  Uiso   1.00
H280   H     0.47019   0.63704   0.42878   0.00000  Uiso   1.00
H281   H     0.49113   0.60895   0.37638   0.00000  Uiso   1.00
H282   H     0.43566   0.59643   0.40729   0.00000  Uiso   1.00
H283   H     0.53594   0.59642   0.04811   0.00000  Uiso   1.00
H284   H     0.57287   0.55950   0.01844   0.00000  Uiso   1.00
H285   H     0.57286   0.60655   0.49517   0.00000  Uiso   1.00
H286   H     0.65258   0.47180   0.28954   0.00000  Uiso   1.00
H287   H     0.54013   0.33691   0.21141   0.00000  Uiso   1.00
H288   H     0.45852   0.66466   0.28907   0.00000  Uiso   1.00
H289   H     0.48988   0.39849   0.44908   0.00000  Uiso   1.00
H290   H     0.51059   0.53042   0.07097   0.00000  Uiso   1.00
H291   H     0.50692   0.62148   0.47768   0.00000  Uiso   1.00
H292   H     0.34883   0.52812   0.21073   0.00000  Uiso   1.00
H293   H     0.54659   0.36842   0.47149   0.00000  Uiso   1.00
O294   O     0.50000   0.50000   0.25000   0.00000  Uiso   1.00
O295   O     0.48784   0.45970   0.15458   0.00000  Uiso   1.00
O296   O     0.46274   0.53724   0.34968   0.00000  Uiso   1.00
O297   O     0.54157   0.51092   0.14606   0.00000  Uiso   1.00
O298   O     0.50785   0.49213   0.34968   0.00000  Uiso   1.00
O299   O     0.51264   0.41352   0.28214   0.00000  Uiso   1.00
O300   O     0.47965   0.59418   0.27013   0.00000  Uiso   1.00
O301   O     0.40745   0.46625   0.23413   0.00000  Uiso   1.00
O302   O     0.60026   0.52605   0.21360   0.00000  Uiso   1.00
O303   O     0.40405   0.52211   0.28213   0.00000  Uiso   1.00
O304   O     0.58824   0.48559   0.27013   0.00000  Uiso   1.00
O305   O     0.47093   0.40277   0.23413   0.00000  Uiso   1.00
O306   O     0.53678   0.58953   0.21360   0.00000  Uiso   1.00
Zn307  Zn    0.52672   0.47327   0.28734   0.00000  Uiso   1.00
Zn308  Zn    0.46713   0.45791   0.21875   0.00000  Uiso   1.00
Zn309  Zn    0.54389   0.53109   0.20657   0.00000  Uiso   1.00
Zn310  Zn    0.46226   0.53773   0.28733   0.00000  Uiso   1.00
Br311  Br    0.77333   0.43247   0.40268   0.00000  Uiso   1.00
C312   C     0.71939   0.49284   0.26004   0.00000  Uiso   1.00
C313   C     0.85123   0.50028   0.05482   0.00000  Uiso   1.00
C314   C     0.86319   0.43070   0.06356   0.00000  Uiso   1.00
C315   C     0.94742   0.50712   0.24007   0.00000  Uiso   1.00
C316   C     0.81420   0.53101   0.41887   0.00000  Uiso   1.00
C317   C     0.99323   0.50992   0.23620   0.00000  Uiso   1.00
C318   C     0.67414   0.49018   0.26383   0.00000  Uiso   1.00
C319   C     0.84710   0.65575   0.23654   0.00000  Uiso   1.00
C320   C     0.81856   0.34505   0.26382   0.00000  Uiso   1.00
C321   C     0.82284   0.38914   0.26014   0.00000  Uiso   1.00
C322   C     0.84324   0.61121   0.24019   0.00000  Uiso   1.00
C323   C     0.83451   0.58834   0.46944   0.00000  Uiso   1.00
C324   C     0.85168   0.48134   0.12930   0.00000  Uiso   1.00
C325   C     0.81576   0.51853   0.37096   0.00000  Uiso   1.00
C326   C     0.85656   0.41705   0.02113   0.00000  Uiso   1.00
C327   C     0.85844   0.47158   0.08110   0.00000  Uiso   1.00
C328   C     0.81574   0.57387   0.43400   0.00000  Uiso   1.00
C329   C     0.85799   0.37165   0.00543   0.00000  Uiso   1.00
C330   C     0.80249   0.60577   0.41017   0.00000  Uiso   1.00
C331   C     0.88482   0.58175   0.01486   0.00000  Uiso   1.00
C332   C     0.85124   0.56157   0.49052   0.00000  Uiso   1.00
C333   C     0.84068   0.51770   0.48298   0.00000  Uiso   1.00
C334   C     0.82227   0.50231   0.44614   0.00000  Uiso   1.00
C335   C     0.84773   0.48859   0.01055   0.00000  Uiso   1.00
C336   C     0.84584   0.44557   0.49570   0.00000  Uiso   1.00
C337   C     0.82882   0.43142   0.45874   0.00000  Uiso   1.00
C338   C     0.81324   0.45859   0.43724   0.00000  Uiso   1.00
H339   H     0.86863   0.40864   0.08460   0.00000  Uiso   1.00
H340   H     0.86972   0.35478   0.02821   0.00000  Uiso   1.00
H341   H     0.82523   0.35671   0.00447   0.00000  Uiso   1.00
H342   H     0.80352   0.63704   0.42878   0.00000  Uiso   1.00
H343   H     0.82447   0.60895   0.37638   0.00000  Uiso   1.00
H344   H     0.76900   0.59643   0.40729   0.00000  Uiso   1.00
H345   H     0.86927   0.59642   0.04811   0.00000  Uiso   1.00
H346   H     0.90620   0.55950   0.01844   0.00000  Uiso   1.00
H347   H     0.90619   0.60655   0.49517   0.00000  Uiso   1.00
H348   H     0.98591   0.47180   0.28954   0.00000  Uiso   1.00
H349   H     0.87346   0.33691   0.21141   0.00000  Uiso   1.00
H350   H     0.79185   0.66466   0.28907   0.00000  Uiso   1.00
H351   H     0.82322   0.39849   0.44908   0.00000  Uiso   1.00
H352   H     0.84392   0.53042   0.07097   0.00000  Uiso   1.00
H353   H     0.84026   0.62148   0.47768   0.00000  Uiso   1.00
H354   H     0.68216   0.52812   0.21073   0.00000  Uiso   1.00
H355   H     0.87992   0.36842   0.47149   0.00000  Uiso   1.00
O356   O     0.83333   0.50000   0.25000   0.00000  Uiso   1.00
O357   O     0.82118   0.45970   0.15458   0.00000  Uiso   1.00
O358   O     0.79607   0.53724   0.34968   0.00000  Uiso   1.00
O359   O     0.87491   0.51092   0.14606   0.00000  Uiso   1.00
O360   O     0.84118   0.49213   0.34968   0.00000  Uiso   1.00
O361   O     0.84597   0.41352   0.28214   0.00000  Uiso   1.00
O362   O     0.81298   0.59418   0.27013   0.00000  Uiso   1.00
O363   O     0.74078   0.46625   0.23413   0.00000  Uiso   1.00
O364   O     0.93360   0.52605   0.21360   0.00000  Uiso   1.00
O365   O     0.73738   0.52211   0.28213   0.00000  Uiso   1.00
O366   O     0.92158   0.48559   0.27013   0.00000  Uiso   1.00
O367   O     0.80426   0.40277   0.23413   0.00000  Uiso   1.00
O368   O     0.87012   0.58953   0.21360   0.00000  Uiso   1.00
Zn369  Zn    0.86005   0.47327   0.28734   0.00000  Uiso   1.00
Zn370  Zn    0.80046   0.45791   0.21875   0.00000  Uiso   1.00
Zn371  Zn    0.87723   0.53109   0.20657   0.00000  Uiso   1.00
Zn372  Zn    0.79560   0.53773   0.28733   0.00000  Uiso   1.00
Br373  Br    0.10666   0.76580   0.40268   0.00000  Uiso   1.00
C374   C     0.05272   0.82617   0.26004   0.00000  Uiso   1.00
C375   C     0.18457   0.83361   0.05482   0.00000  Uiso   1.00
C376   C     0.19652   0.76403   0.06356   0.00000  Uiso   1.00
C377   C     0.28075   0.84046   0.24007   0.00000  Uiso   1.00
C378   C     0.14754   0.86435   0.41887   0.00000  Uiso   1.00
C379   C     0.32656   0.84325   0.23620   0.00000  Uiso   1.00
C380   C     0.00747   0.82351   0.26383   0.00000  Uiso   1.00
C381   C     0.18044   0.98908   0.23654   0.00000  Uiso   1.00
C382   C     0.15190   0.67838   0.26382   0.00000  Uiso   1.00
C383   C     0.15618   0.72247   0.26014   0.00000  Uiso   1.00
C384   C     0.17657   0.94455   0.24019   0.00000  Uiso   1.00
C385   C     0.16784   0.92168   0.46944   0.00000  Uiso   1.00
C386   C     0.18501   0.81467   0.12930   0.00000  Uiso   1.00
C387   C     0.14909   0.85186   0.37096   0.00000  Uiso   1.00
C388   C     0.18989   0.75039   0.02113   0.00000  Uiso   1.00
C389   C     0.19177   0.80491   0.08110   0.00000  Uiso   1.00
C390   C     0.14908   0.90721   0.43400   0.00000  Uiso   1.00
C391   C     0.19132   0.70499   0.00543   0.00000  Uiso   1.00
C392   C     0.13582   0.93911   0.41017   0.00000  Uiso   1.00
C393   C     0.21815   0.91508   0.01486   0.00000  Uiso   1.00
C394   C     0.18457   0.89491   0.49052   0.00000  Uiso   1.00
C395   C     0.17401   0.85104   0.48298   0.00000  Uiso   1.00
C396   C     0.15560   0.83565   0.44614   0.00000  Uiso   1.00
C397   C     0.18106   0.82193   0.01055   0.00000  Uiso   1.00
C398   C     0.17918   0.77891   0.49570   0.00000  Uiso   1.00
C399   C     0.16215   0.76475   0.45874   0.00000  Uiso   1.00
C400   C     0.14657   0.79192   0.43724   0.00000  Uiso   1.00
H401   H     0.20196   0.74197   0.08460   0.00000  Uiso   1.00
H402   H     0.20305   0.68812   0.02821   0.00000  Uiso   1.00
H403   H     0.15857   0.69005   0.00447   0.00000  Uiso   1.00
H404   H     0.13685   0.97037   0.42878   0.00000  Uiso   1.00
H405   H     0.15780   0.94229   0.37638   0.00000  Uiso   1.00
H406   H     0.10233   0.92976   0.40729   0.00000  Uiso   1.00
H407   H     0.20260   0.92975   0.04811   0.00000  Uiso   1.00
H408   H     0.23953   0.89284   0.01844   0.00000  Uiso   1.00
H409   H     0.23953   0.93989   0.49517   0.00000  Uiso   1.00
H410   H     0.31925   0.80513   0.28954   0.00000  Uiso   1.00
H411   H     0.20680   0.67025   0.21141   0.00000  Uiso   1.00
H412   H     0.12519   0.99799   0.28907   0.00000  Uiso   1.00
H413   H     0.15655   0.73182   0.44908   0.00000  Uiso   1.00
H414   H     0.17726   0.86375   0.07097   0.00000  Uiso   1.00
H415   H     0.17359   0.95481   0.47768   0.00000  Uiso   1.00
H416   H     0.01549   0.86146   0.21073   0.00000  Uiso   1.00
H417   H     0.21325   0.70175   0.47149   0.00000  Uiso   1.00
O418   O     0.16667   0.83333   0.25000   0.00000  Uiso   1.00
O419   O     0.15451   0.79304   0.15458   0.00000  Uiso   1.00
O420   O     0.12940   0.87058   0.34968   0.00000  Uiso   1.00
O421   O     0.20824   0.84425   0.14606   0.00000  Uiso   1.00
O422   O     0.17451   0.82546   0.34968   0.00000  Uiso   1.00
O423   O     0.17930   0.74686   0.28214   0.00000  Uiso   1.00
O424   O     0.14632   0.92751   0.27013   0.00000  Uiso   1.00
O425   O     0.07412   0.79958   0.23413   0.00000  Uiso   1.00
O426   O     0.26693   0.85939   0.21360   0.00000  Uiso   1.00
O427   O     0.07071   0.85544   0.28213   0.00000  Uiso   1.00
O428   O     0.25491   0.81892   0.27013   0.00000  Uiso   1.00
O429   O     0.13760   0.73610   0.23413   0.00000  Uiso   1.00
O430   O     0.20345   0.92286   0.21360   0.00000  Uiso   1.00
Zn431  Zn    0.19338   0.80661   0.28734   0.00000  Uiso   1.00
Zn432  Zn    0.13379   0.79124   0.21875   0.00000  Uiso   1.00
Zn433  Zn    0.21056   0.86442   0.20657   0.00000  Uiso   1.00
Zn434  Zn    0.12893   0.87106   0.28733   0.00000  Uiso   1.00
Br435  Br    0.43999   0.76580   0.40268   0.00000  Uiso   1.00
C436   C     0.38606   0.82617   0.26004   0.00000  Uiso   1.00
C437   C     0.51790   0.83361   0.05482   0.00000  Uiso   1.00
C438   C     0.52985   0.76403   0.06356   0.00000  Uiso   1.00
C439   C     0.61409   0.84046   0.24007   0.00000  Uiso   1.00
C440   C     0.48087   0.86435   0.41887   0.00000  Uiso   1.00
C441   C     0.65989   0.84325   0.23620   0.00000  Uiso   1.00
C442   C     0.34080   0.82351   0.26383   0.00000  Uiso   1.00
C443   C     0.51377   0.98908   0.23654   0.00000  Uiso   1.00
C444   C     0.48523   0.67838   0.26382   0.00000  Uiso   1.00
C445   C     0.48951   0.72247   0.26014   0.00000  Uiso   1.00
C446   C     0.50991   0.94455   0.24019   0.00000  Uiso   1.00
C447   C     0.50118   0.92168   0.46944   0.00000  Uiso   1.00
C448   C     0.51835   0.81467   0.12930   0.00000  Uiso   1.00
C449   C     0.48242   0.85186   0.37096   0.00000  Uiso   1.00
C450   C     0.52323   0.75039   0.02113   0.00000  Uiso   1.00
C451   C     0.52510   0.80491   0.08110   0.00000  Uiso   1.00
C452   C     0.48241   0.90721   0.43400   0.00000  Uiso   1.00
C453   C     0.52466   0.70499   0.00543   0.00000  Uiso   1.00
C454   C     0.46915   0.93911   0.41017   0.00000  Uiso   1.00
C455   C     0.55148   0.91508   0.01486   0.00000  Uiso   1.00
C456   C     0.51791   0.89491   0.49052   0.00000  Uiso   1.00
C457   C     0.50734   0.85104   0.48298   0.00000  Uiso   1.00
C458   C     0.48894   0.83565   0.44614   0.00000  Uiso   1.00
C459   C     0.51439   0.82193   0.01055   0.00000  Uiso   1.00
C460   C     0.51251   0.77891   0.49570   0.00000  Uiso   1.00
C461   C     0.49549   0.76475   0.45874   0.00000  Uiso   1.00
C462   C     0.47991   0.79192   0.43724   0.00000  Uiso   1.00
H463   H     0.53529   0.74197   0.08460   0.00000  Uiso   1.00
H464   H     0.53639   0.68812   0.02821   0.00000  Uiso   1.00
H465   H     0.49190   0.69005   0.00447   0.00000  Uiso   1.00
H466   H     0.47019   0.97037   0.42878   0.00000  Uiso   1.00
H467   H     0.49113   0.94229   0.37638   0.00000  Uiso   1.00
H468   H     0.43566   0.92976   0.40729   0.00000  Uiso   1.00
H469   H     0.53594   0.92975   0.04811   0.00000  Uiso   1.00
H470   H     0.57287   0.89284   0.01844   0.00000  Uiso   1.00
H471   H     0.57286   0.93989   0.49517   0.00000  Uiso   1.00
H472   H     0.65258   0.80513   0.28954   0.00000  Uiso   1.00
H473   H     0.54013   0.67025   0.21141   0.00000  Uiso   1.00
H474   H     0.45852   0.99799   0.28907   0.00000  Uiso   1.00
H475   H     0.48988   0.73182   0.44908   0.00000  Uiso   1.00
H476   H     0.51059   0.86375   0.07097   0.00000  Uiso   1.00
H477   H     0.50692   0.95481   0.47768   0.00000  Uiso   1.00
H478   H     0.34883   0.86146   0.21073   0.00000  Uiso   1.00
H479   H     0.54659   0.70175   0.47149   0.00000  Uiso   1.00
O480   O     0.50000   0.83333   0.25000   0.00000  Uiso   1.00
O481   O     0.48784   0.79304   0.15458   0.00000  Uiso   1.00
O482   O     0.46274   0.87058   0.34968   0.00000  Uiso   1.00
O483   O     0.54157   0.84425   0.14606   0.00000  Uiso   1.00
O484   O     0.50785   0.82546   0.34968   0.00000  Uiso   1.00
O485   O     0.51264   0.74686   0.28214   0.00000  Uiso   1.00
O486   O     0.47965   0.92751   0.27013   0.00000  Uiso   1.00
O487   O     0.40745   0.79958   0.23413   0.00000  Uiso   1.00
O488   O     0.60026   0.85939   0.21360   0.00000  Uiso   1.00
O489   O     0.40405   0.85544   0.28213   0.00000  Uiso   1.00
O490   O     0.58824   0.81892   0.27013   0.00000  Uiso   1.00
O491   O     0.47093   0.73610   0.23413   0.00000  Uiso   1.00
O492   O     0.53678   0.92286   0.21360   0.00000  Uiso   1.00
Zn493  Zn    0.52672   0.80661   0.28734   0.00000  Uiso   1.00
Zn494  Zn    0.46713   0.79124   0.21875   0.00000  Uiso   1.00
Zn495  Zn    0.54389   0.86442   0.20657   0.00000  Uiso   1.00
Zn496  Zn    0.46226   0.87106   0.28733   0.00000  Uiso   1.00
Br497  Br    0.77333   0.76580   0.40268   0.00000  Uiso   1.00
C498   C     0.71939   0.82617   0.26004   0.00000  Uiso   1.00
C499   C     0.85123   0.83361   0.05482   0.00000  Uiso   1.00
C500   C     0.86319   0.76403   0.06356   0.00000  Uiso   1.00
C501   C     0.94742   0.84046   0.24007   0.00000  Uiso   1.00
C502   C     0.81420   0.86435   0.41887   0.00000  Uiso   1.00
C503   C     0.99323   0.84325   0.23620   0.00000  Uiso   1.00
C504   C     0.67414   0.82351   0.26383   0.00000  Uiso   1.00
C505   C     0.84710   0.98908   0.23654   0.00000  Uiso   1.00
C506   C     0.81856   0.67838   0.26382   0.00000  Uiso   1.00
C507   C     0.82284   0.72247   0.26014   0.00000  Uiso   1.00
C508   C     0.84324   0.94455   0.24019   0.00000  Uiso   1.00
C509   C     0.83451   0.92168   0.46944   0.00000  Uiso   1.00
C510   C     0.85168   0.81467   0.12930   0.00000  Uiso   1.00
C511   C     0.81576   0.85186   0.37096   0.00000  Uiso   1.00
C512   C     0.85656   0.75039   0.02113   0.00000  Uiso   1.00
C513   C     0.85844   0.80491   0.08110   0.00000  Uiso   1.00
C514   C     0.81574   0.90721   0.43400   0.00000  Uiso   1.00
C515   C     0.85799   0.70499   0.00543   0.00000  Uiso   1.00
C516   C     0.80249   0.93911   0.41017   0.00000  Uiso   1.00
C517   C     0.88482   0.91508   0.01486   0.00000  Uiso   1.00
C518   C     0.85124   0.89491   0.49052   0.00000  Uiso   1.00
C519   C     0.84068   0.85104   0.48298   0.00000  Uiso   1.00
C520   C     0.82227   0.83565   0.44614   0.00000  Uiso   1.00
C521   C     0.84773   0.82193   0.01055   0.00000  Uiso   1.00
C522   C     0.84584   0.77891   0.49570   0.00000  Uiso   1.00
C523   C     0.82882   0.76475   0.45874   0.00000  Uiso   1.00
C524   C     0.81324   0.79192   0.43724   0.00000  Uiso   1.00
H525   H     0.86863   0.74197   0.08460   0.00000  Uiso   1.00
H526   H     0.86972   0.68812   0.02821   0.00000  Uiso   1.00
H527   H     0.82523   0.69005   0.00447   0.00000  Uiso   1.00
H528   H     0.80352   0.97037   0.42878   0.00000  Uiso   1.00
H529   H     0.82447   0.94229   0.37638   0.00000  Uiso   1.00
H530   H     0.76900   0.92976   0.40729   0.00000  Uiso   1.00
H531   H     0.86927   0.92975   0.04811   0.00000  Uiso   1.00
H532   H     0.90620   0.89284   0.01844   0.00000  Uiso   1.00
H533   H     0.90619   0.93989   0.49517   0.00000  Uiso   1.00
H534   H     0.98591   0.80513   0.28954   0.00000  Uiso   1.00
H535   H     0.87346   0.67025   0.21141   0.00000  Uiso   1.00
H536   H     0.79185   0.99799   0.28907   0.00000  Uiso   1.00
H537   H     0.82322   0.73182   0.44908   0.00000  Uiso   1.00
H538   H     0.84392   0.86375   0.07097   0.00000  Uiso   1.00
H539   H     0.84026   0.95481   0.47768   0.00000  Uiso   1.00
H540   H     0.68216   0.86146   0.21073   0.00000  Uiso   1.00
H541   H     0.87992   0.70175   0.47149   0.00000  Uiso   1.00
O542   O     0.83333   0.83333   0.25000   0.00000  Uiso   1.00
O543   O     0.82118   0.79304   0.15458   0.00000  Uiso   1.00
O544   O     0.79607   0.87058   0.34968   0.00000  Uiso   1.00
O545   O     0.87491   0.84425   0.14606   0.00000  Uiso   1.00
O546   O     0.84118   0.82546   0.34968   0.00000  Uiso   1.00
O547   O     0.84597   0.74686   0.28214   0.00000  Uiso   1.00
O548   O     0.81298   0.92751   0.27013   0.00000  Uiso   1.00
O549   O     0.74078   0.79958   0.23413   0.00000  Uiso   1.00
O550   O     0.93360   0.85939   0.21360   0.00000  Uiso   1.00
O551   O     0.73738   0.85544   0.28213   0.00000  Uiso   1.00
O552   O     0.92158   0.81892   0.27013   0.00000  Uiso   1.00
O553   O     0.80426   0.73610   0.23413   0.00000  Uiso   1.00
O554   O     0.87012   0.92286   0.21360   0.00000  Uiso   1.00
Zn555  Zn    0.86005   0.80661   0.28734   0.00000  Uiso   1.00
Zn556  Zn    0.80046   0.79124   0.21875   0.00000  Uiso   1.00
Zn557  Zn    0.87723   0.86442   0.20657   0.00000  Uiso   1.00
Zn558  Zn    0.79560   0.87106   0.28733   0.00000  Uiso   1.00
Br559  Br    0.10666   0.09913   0.90268   0.00000  Uiso   1.00
C560   C     0.05272   0.15951   0.76004   0.00000  Uiso   1.00
C561   C     0.18457   0.16695   0.55482   0.00000  Uiso   1.00
C562   C     0.19652   0.09736   0.56356   0.00000  Uiso   1.00
C563   C     0.28075   0.17379   0.74007   0.00000  Uiso   1.00
C564   C     0.14754   0.19768   0.91887   0.00000  Uiso   1.00
C565   C     0.32656   0.17659   0.73620   0.00000  Uiso   1.00
C566   C     0.00747   0.15685   0.76383   0.00000  Uiso   1.00
C567   C     0.18044   0.32241   0.73654   0.00000  Uiso   1.00
C568   C     0.15190   0.01172   0.76382   0.00000  Uiso   1.00
C569   C     0.15618   0.05581   0.76014   0.00000  Uiso   1.00
C570   C     0.17657   0.27788   0.74019   0.00000  Uiso   1.00
C571   C     0.16784   0.25501   0.96944   0.00000  Uiso   1.00
C572   C     0.18501   0.14800   0.62930   0.00000  Uiso   1.00
C573   C     0.14909   0.18519   0.87096   0.00000  Uiso   1.00
C574   C     0.18989   0.08372   0.52113   0.00000  Uiso   1.00
C575   C     0.19177   0.13825   0.58110   0.00000  Uiso   1.00
C576   C     0.14908   0.24054   0.93400   0.00000  Uiso   1.00
C577   C     0.19132   0.03832   0.50543   0.00000  Uiso   1.00
C578   C     0.13582   0.27244   0.91017   0.00000  Uiso   1.00
C579   C     0.21815   0.24842   0.51486   0.00000  Uiso   1.00
C580   C     0.18457   0.22824   0.99052   0.00000  Uiso   1.00
C581   C     0.17401   0.18437   0.98298   0.00000  Uiso   1.00
C582   C     0.15560   0.16898   0.94614   0.00000  Uiso   1.00
C583   C     0.18106   0.15526   0.51055   0.00000  Uiso   1.00
C584   C     0.17918   0.11224   0.99570   0.00000  Uiso   1.00
C585   C     0.16215   0.09809   0.95874   0.00000  Uiso   1.00
C586   C     0.14657   0.12525   0.93724   0.00000  Uiso   1.00
H587   H     0.20196   0.07530   0.58460   0.00000  Uiso   1.00
H588   H     0.20305   0.02145   0.52821   0.00000  Uiso   1.00
H589   H     0.15857   0.02338   0.50447   0.00000  Uiso   1.00
H590   H     0.13685   0.30371   0.92878   0.00000  Uiso   1.00
H591   H     0.15780   0.27562   0.87638   0.00000  Uiso   1.00
H592   H     0.10233   0.26309   0.90729   0.00000  Uiso   1.00
H593   H     0.20260   0.26308   0.54811   0.00000  Uiso   1.00
H594   H     0.23953   0.22617   0.51844   0.00000  Uiso   1.00
H595   H     0.23953   0.27322   0.99517   0.00000  Uiso   1.00
H596   H     0.31925   0.13846   0.78954   0.00000  Uiso   1.00
H597   H     0.20680   0.00358   0.71141   0.00000  Uiso   1.00
H598   H     0.12519   0.33133   0.78907   0.00000  Uiso   1.00
H599   H     0.15655   0.06515   0.94908   0.00000  Uiso   1.00
H600   H     0.17726   0.19709   0.57097   0.00000  Uiso   1.00
H601   H     0.17359   0.28814   0.97768   0.00000  Uiso   1.00
H602   H     0.01549   0.19479   0.71073   0.00000  Uiso   1.00
H603   H     0.21325   0.03508   0.97149   0.00000  Uiso   1.00
O604   O     0.16667   0.16667   0.75000   0.00000  Uiso   1.00
O605   O     0.15451   0.12637   0.65458   0.00000  Uiso   1.00
O606   O     0.12940   0.20391   0.84968   0.00000  Uiso   1.00
O607   O     0.20824   0.17759   0.64606   0.00000  Uiso   1.00
O608   O     0.17451   0.15880   0.84968   0.00000  Uiso   1.00
O609   O     0.17930   0.08019   0.78214   0.00000  Uiso   1.00
O610   O     0.14632   0.26085   0.77013   0.00000  Uiso   1.00
O611   O     0.07412   0.13291   0.73413   0.00000  Uiso   1.00
O612   O     0.26693   0.19272   0.71360   0.00000  Uiso   1.00
O613   O     0.07071   0.18878   0.78213   0.00000  Uiso   1.00
O614   O     0.25491   0.15226   0.77013   0.00000  Uiso   1.00
O615   O     0.13760   0.06944   0.73413   0.00000  Uiso   1.00
O616   O     0.20345   0.25620   0.71360   0.00000  Uiso   1.00
Zn617  Zn    0.19338   0.13994   0.78734   0.00000  Uiso   1.00
Zn618  Zn    0.13379   0.12458   0.71875   0.00000  Uiso   1.00
Zn619  Zn    0.21056   0.19775   0.70657   0.00000  Uiso   1.00
Zn620  Zn    0.12893   0.20439   0.78733   0.00000  Uiso   1.00
Br621  Br    0.43999   0.09913   0.90268   0.00000  Uiso   1.00
C622   C     0.38606   0.15951   0.76004   0.00000  Uiso   1.00
C623   C     0.51790   0.16695   0.55482   0.00000  Uiso   1.00
C624   C     0.52985   0.09736   0.56356   0.00000  Uiso   1.00
C625   C     0.61409   0.17379   0.74007   0.00000  Uiso   1.00
C626   C     0.48087   0.19768   0.91887   0.00000  Uiso   1.00
C627   C     0.65989   0.17659   0.73620   0.00000  Uiso   1.00
C628   C     0.34080   0.15685   0.76383   0.00000  Uiso   1.00
C629   C     0.51377   0.32241   0.73654   0.00000  Uiso   1.00
C630   C     0.48523   0.01172   0.76382   0.00000  Uiso   1.00
C631   C     0.48951   0.05581   0.76014   0.00000  Uiso   1.00
C632   C     0.50991   0.27788   0.74019   0.00000  Uiso   1.00
C633   C     0.50118   0.25501   0.96944   0.00000  Uiso   1.00
C634   C     0.51835   0.14800   0.62930   0.00000  Uiso   1.00
C635   C     0.48242   0.18519   0.87096   0.00000  Uiso   1.00
C636   C     0.52323   0.08372   0.52113   0.00000  Uiso   1.00
C637   C     0.52510   0.13825   0.58110   0.00000  Uiso   1.00
C638   C     0.48241   0.24054   0.93400   0.00000  Uiso   1.00
C639   C     0.52466   0.03832   0.50543   0.00000  Uiso   1.00
C640   C     0.46915   0.27244   0.91017   0.00000  Uiso   1.00
C641   C     0.55148   0.24842   0.51486   0.00000  Uiso   1.00
C642   C     0.51791   0.22824   0.99052   0.00000  Uiso   1.00
C643   C     0.50734   0.18437   0.98298   0.00000  Uiso   1.00
C644   C     0.48894   0.16898   0.94614   0.00000  Uiso   1.00
C645   C     0.51439   0.15526   0.51055   0.00000  Uiso   1.00
C646   C     0.51251   0.11224   0.99570   0.00000  Uiso   1.00
C647   C     0.49549   0.09809   0.95874   0.00000  Uiso   1.00
C648   C     0.47991   0.12525   0.93724   0.00000  Uiso   1.00
H649   H     0.53529   0.07530   0.58460   0.00000  Uiso   1.00
H650   H     0.53639   0.02145   0.52821   0.00000  Uiso   1.00
H651   H     0.49190   0.02338   0.50447   0.00000  Uiso   1.00
H652   H     0.47019   0.30371   0.92878   0.00000  Uiso   1.00
H653   H     0.49113   0.27562   0.87638   0.00000  Uiso   1.00
H654   H     0.43566   0.26309   0.90729   0.00000  Uiso   1.00
H655   H     0.53594   0.26308   0.54811   0.00000  Uiso   1.00
H656   H     0.57287   0.22617   0.51844   0.00000  Uiso   1.00
H657   H     0.57286   0.27322   0.99517   0.00000  Uiso   1.00
H658   H     0.65258   0.13846   0.78954   0.00000  Uiso   1.00
H659   H     0.54013   0.00358   0.71141   0.00000  Uiso   1.00
H660   H     0.45852   0.33133   0.78907   0.00000  Uiso   1.00
H661   H     0.48988   0.06515   0.94908   0.00000  Uiso   1.00
H662   H     0.51059   0.19709   0.57097   0.00000  Uiso   1.00
H663   H     0.50692   0.28814   0.97768   0.00000  Uiso   1.00
H664   H     0.34883   0.19479   0.71073   0.00000  Uiso   1.00
H665   H     0.54659   0.03508   0.97149   0.00000  Uiso   1.00
O666   O     0.50000   0.16667   0.75000   0.00000  Uiso   1.00
O667   O     0.48784   0.12637   0.65458   0.00000  Uiso   1.00
O668   O     0.46274   0.20391   0.84968   0.00000  Uiso   1.00
O669   O     0.54157   0.17759   0.64606   0.00000  Uiso   1.00
O670   O     0.50785   0.15880   0.84968   0.00000  Uiso   1.00
O671   O     0.51264   0.08019   0.78214   0.00000  Uiso   1.00
O672   O     0.47965   0.26085   0.77013   0.00000  Uiso   1.00
O673   O     0.40745   0.13291   0.73413   0.00000  Uiso   1.00
O674   O     0.60026   0.19272   0.71360   0.00000  Uiso   1.00
O675   O     0.40405   0.18878   0.78213   0.00000  Uiso   1.00
O676   O     0.58824   0.15226   0.77013   0.00000  Uiso   1.00
O677   O     0.47093   0.06944   0.73413   0.00000  Uiso   1.00
O678   O     0.53678   0.25620   0.71360   0.00000  Uiso   1.00
Zn679  Zn    0.52672   0.13994   0.78734   0.00000  Uiso   1.00
Zn680  Zn    0.46713   0.12458   0.71875   0.00000  Uiso   1.00
Zn681  Zn    0.54389   0.19775   0.70657   0.00000  Uiso   1.00
Zn682  Zn    0.46226   0.20439   0.78733   0.00000  Uiso   1.00
Br683  Br    0.77333   0.09913   0.90268   0.00000  Uiso   1.00
C684   C     0.71939   0.15951   0.76004   0.00000  Uiso   1.00
C685   C     0.85123   0.16695   0.55482   0.00000  Uiso   1.00
C686   C     0.86319   0.09736   0.56356   0.00000  Uiso   1.00
C687   C     0.94742   0.17379   0.74007   0.00000  Uiso   1.00
C688   C     0.81420   0.19768   0.91887   0.00000  Uiso   1.00
C689   C     0.99323   0.17659   0.73620   0.00000  Uiso   1.00
C690   C     0.67414   0.15685   0.76383   0.00000  Uiso   1.00
C691   C     0.84710   0.32241   0.73654   0.00000  Uiso   1.00
C692   C     0.81856   0.01172   0.76382   0.00000  Uiso   1.00
C693   C     0.82284   0.05581   0.76014   0.00000  Uiso   1.00
C694   C     0.84324   0.27788   0.74019   0.00000  Uiso   1.00
C695   C     0.83451   0.25501   0.96944   0.00000  Uiso   1.00
C696   C     0.85168   0.14800   0.62930   0.00000  Uiso   1.00
C697   C     0.81576   0.18519   0.87096   0.00000  Uiso   1.00
C698   C     0.85656   0.08372   0.52113   0.00000  Uiso   1.00
C699   C     0.85844   0.13825   0.58110   0.00000  Uiso   1.00
C700   C     0.81574   0.24054   0.93400   0.00000  Uiso   1.00
C701   C     0.85799   0.03832   0.50543   0.00000  Uiso   1.00
C702   C     0.80249   0.27244   0.91017   0.00000  Uiso   1.00
C703   C     0.88482   0.24842   0.51486   0.00000  Uiso   1.00
C704   C     0.85124   0.22824   0.99052   0.00000  Uiso   1.00
C705   C     0.84068   0.18437   0.98298   0.00000  Uiso   1.00
C706   C     0.82227   0.16898   0.94614   0.00000  Uiso   1.00
C707   C     0.84773   0.15526   0.51055   0.00000  Uiso   1.00
C708   C     0.84584   0.11224   0.99570   0.00000  Uiso   1.00
C709   C     0.82882   0.09809   0.95874   0.00000  Uiso   1.00
C710   C     0.81324   0.12525   0.93724   0.00000  Uiso   1.00
H711   H     0.86863   0.07530   0.58460   0.00000  Uiso   1.00
H712   H     0.86972   0.02145   0.52821   0.00000  Uiso   1.00
H713   H     0.82523   0.02338   0.50447   0.00000  Uiso   1.00
H714   H     0.80352   0.30371   0.92878   0.00000  Uiso   1.00
H715   H     0.82447   0.27562   0.87638   0.00000  Uiso   1.00
H716   H     0.76900   0.26309   0.90729   0.00000  Uiso   1.00
H717   H     0.86927   0.26308   0.54811   0.00000  Uiso   1.00
H718   H     0.90620   0.22617   0.51844   0.00000  Uiso   1.00
H719   H     0.90619   0.27322   0.99517   0.00000  Uiso   1.00
H720   H     0.98591   0.13846   0.78954   0.00000  Uiso   1.00
H721   H     0.87346   0.00358   0.71141   0.00000  Uiso   1.00
H722   H     0.79185   0.33133   0.78907   0.00000  Uiso   1.00
H723   H     0.82322   0.06515   0.94908   0.00000  Uiso   1.00
H724   H     0.84392   0.19709   0.57097   0.00000  Uiso   1.00
H725   H     0.84026   0.28814   0.97768   0.00000  Uiso   1.00
H726   H     0.68216   0.19479   0.71073   0.00000  Uiso   1.00
H727   H     0.87992   0.03508   0.97149   0.00000  Uiso   1.00
O728   O     0.83333   0.16667   0.75000   0.00000  Uiso   1.00
O729   O     0.82118   0.12637   0.65458   0.00000  Uiso   1.00
O730   O     0.79607   0.20391   0.84968   0.00000  Uiso   1.00
O731   O     0.87491   0.17759   0.64606   0.00000  Uiso   1.00
O732   O     0.84118   0.15880   0.84968   0.00000  Uiso   1.00
O733   O     0.84597   0.08019   0.78214   0.00000  Uiso   1.00
O734   O     0.81298   0.26085   0.77013   0.00000  Uiso   1.00
O735   O     0.74078   0.13291   0.73413   0.00000  Uiso   1.00
O736   O     0.93360   0.19272   0.71360   0.00000  Uiso   1.00
O737   O     0.73738   0.18878   0.78213   0.00000  Uiso   1.00
O738   O     0.92158   0.15226   0.77013   0.00000  Uiso   1.00
O739   O     0.80426   0.06944   0.73413   0.00000  Uiso   1.00
O740   O     0.87012   0.25620   0.71360   0.00000  Uiso   1.00
Zn741  Zn    0.86005   0.13994   0.78734   0.00000  Uiso   1.00
Zn742  Zn    0.80046   0.12458   0.71875   0.00000  Uiso   1.00
Zn743  Zn    0.87723   0.19775   0.70657   0.00000  Uiso   1.00
Zn744  Zn    0.79560   0.20439   0.78733   0.00000  Uiso   1.00
Br745  Br    0.10666   0.43247   0.90268   0.00000  Uiso   1.00
C746   C     0.05272   0.49284   0.76004   0.00000  Uiso   1.00
C747   C     0.18457   0.50028   0.55482   0.00000  Uiso   1.00
C748   C     0.19652   0.43070   0.56356   0.00000  Uiso   1.00
C749   C     0.28075   0.50712   0.74007   0.00000  Uiso   1.00
C750   C     0.14754   0.53101   0.91887   0.00000  Uiso   1.00
C751   C     0.32656   0.50992   0.73620   0.00000  Uiso   1.00
C752   C     0.00747   0.49018   0.76383   0.00000  Uiso   1.00
C753   C     0.18044   0.65575   0.73654   0.00000  Uiso   1.00
C754   C     0.15190   0.34505   0.76382   0.00000  Uiso   1.00
C755   C     0.15618   0.38914   0.76014   0.00000  Uiso   1.00
C756   C     0.17657   0.61121   0.74019   0.00000  Uiso   1.00
C757   C     0.16784   0.58834   0.96944   0.00000  Uiso   1.00
C758   C     0.18501   0.48134   0.62930   0.00000  Uiso   1.00
C759   C     0.14909   0.51853   0.87096   0.00000  Uiso   1.00
C760   C     0.18989   0.41705   0.52113   0.00000  Uiso   1.00
C761   C     0.19177   0.47158   0.58110   0.00000  Uiso   1.00
C762   C     0.14908   0.57387   0.93400   0.00000  Uiso   1.00
C763   C     0.19132   0.37165   0.50543   0.00000  Uiso   1.00
C764   C     0.13582   0.60577   0.91017   0.00000  Uiso   1.00
C765   C     0.21815   0.58175   0.51486   0.00000  Uiso   1.00
C766   C     0.18457   0.56157   0.99052   0.00000  Uiso   1.00
C767   C     0.17401   0.51770   0.98298   0.00000  Uiso   1.00
C768   C     0.15560   0.50231   0.94614   0.00000  Uiso   1.00
C769   C     0.18106   0.48859   0.51055   0.00000  Uiso   1.00
C770   C     0.17918   0.44557   0.99570   0.00000  Uiso   1.00
C771   C     0.16215   0.43142   0.95874   0.00000  Uiso   1.00
C772   C     0.14657   0.45859   0.93724   0.00000  Uiso   1.00
H773   H     0.20196   0.40864   0.58460   0.00000  Uiso   1.00
H774   H     0.20305   0.35478   0.52821   0.00000  Uiso   1.00
H775   H     0.15857   0.35671   0.50447   0.00000  Uiso   1.00
H776   H     0.13685   0.63704   0.92878   0.00000  Uiso   1.00
H777   H     0.15780   0.60895   0.87638   0.00000  Uiso   1.00
H778   H     0.10233   0.59643   0.90729   0.00000  Uiso   1.00
H779   H     0.20260   0.59642   0.54811   0.00000  Uiso   1.00
H780   H     0.23953   0.55950   0.51844   0.00000  Uiso   1.00
H781   H     0.23953   0.60655   0.99517   0.00000  Uiso   1.00
H782   H     0.31925   0.47180   0.78954   0.00000  Uiso   1.00
H783   H     0.20680   0.33691   0.71141   0.00000  Uiso   1.00
H784   H     0.12519   0.66466   0.78907   0.00000  Uiso   1.00
H785   H     0.15655   0.39849   0.94908   0.00000  Uiso   1.00
H786   H     0.17726   0.53042   0.57097   0.00000  Uiso   1.00
H787   H     0.17359   0.62148   0.97768   0.00000  Uiso   1.00
H788   H     0.01549   0.52812   0.71073   0.00000  Uiso   1.00
H789   H     0.21325   0.36842   0.97149   0.00000  Uiso   1.00
O790   O     0.16667   0.50000   0.75000   0.00000  Uiso   1.00
O791   O     0.15451   0.45970   0.65458   0.00000  Uiso   1.00
O792   O     0.12940   0.53724   0.84968   0.00000  Uiso   1.00
O793   O     0.20824   0.51092   0.64606   0.00000  Uiso   1.00
O794   O     0.17451   0.49213   0.84968   0.00000  Uiso   1.00
O795   O     0.17930   0.41352   0.78214   0.00000  Uiso   1.00
O796   O     0.14632   0.59418   0.77013   0.00000  Uiso   1.00
O797   O     0.07412   0.46625   0.73413   0.00000  Uiso   1.00
O798   O     0.26693   0.52605   0.71360   0.00000  Uiso   1.00
O799   O     0.07071   0.52211   0.78213   0.00000  Uiso   1.00
O800   O     0.25491   0.48559   0.77013   0.00000  Uiso   1.00
O801   O     0.13760   0.40277   0.73413   0.00000  Uiso   1.00
O802   O     0.20345   0.58953   0.71360   0.00000  Uiso   1.00
Zn803  Zn    0.19338   0.47327   0.78734   0.00000  Uiso   1.00
Zn804  Zn    0.13379   0.45791   0.71875   0.00000  Uiso   1.00
Zn805  Zn    0.21056   0.53109   0.70657   0.00000  Uiso   1.00
Zn806  Zn    0.12893   0.53773   0.78733   0.00000  Uiso   1.00
Br807  Br    0.43999   0.43247   0.90268   0.00000  Uiso   1.00
C808   C     0.38606   0.49284   0.76004   0.00000  Uiso   1.00
C809   C     0.51790   0.50028   0.55482   0.00000  Uiso   1.00
C810   C     0.52985   0.43070   0.56356   0.00000  Uiso   1.00
C811   C     0.61409   0.50712   0.74007   0.00000  Uiso   1.00
C812   C     0.48087   0.53101   0.91887   0.00000  Uiso   1.00
C813   C     0.65989   0.50992   0.73620   0.00000  Uiso   1.00
C814   C     0.34080   0.49018   0.76383   0.00000  Uiso   1.00
C815   C     0.51377   0.65575   0.73654   0.00000  Uiso   1.00
C816   C     0.48523   0.34505   0.76382   0.00000  Uiso   1.00
C817   C     0.48951   0.38914   0.76014   0.00000  Uiso   1.00
C818   C     0.50991   0.61121   0.74019   0.00000  Uiso   1.00
C819   C     0.50118   0.58834   0.96944   0.00000  Uiso   1.00
C820   C     0.51835   0.48134   0.62930   0.00000  Uiso   1.00
C821   C     0.48242   0.51853   0.87096   0.00000  Uiso   1.00
C822   C     0.52323   0.41705   0.52113   0.00000  Uiso   1.00
C823   C     0.52510   0.47158   0.58110   0.00000  Uiso   1.00
C824   C     0.48241   0.57387   0.93400   0.00000  Uiso   1.00
C825   C     0.52466   0.37165   0.50543   0.00000  Uiso   1.00
C826   C     0.46915   0.60577   0.91017   0.00000  Uiso   1.00
C827   C     0.55148   0.58175   0.51486   0.00000  Uiso   1.00
C828   C     0.51791   0.56157   0.99052   0.00000  Uiso   1.00
C829   C     0.50734   0.51770   0.98298   0.00000  Uiso   1.00
C830   C     0.48894   0.50231   0.94614   0.00000  Uiso   1.00
C831   C     0.51439   0.48859   0.51055   0.00000  Uiso   1.00
C832   C     0.51251   0.44557   0.99570   0.00000  Uiso   1.00
C833   C     0.49549   0.43142   0.95874   0.00000  Uiso   1.00
C834   C     0.47991   0.45859   0.93724   0.00000  Uiso   1.00
H835   H     0.53529   0.40864   0.58460   0.00000  Uiso   1.00
H836   H     0.53639   0.35478   0.52821   0.00000  Uiso   1.00
H837   H     0.49190   0.35671   0.50447   0.00000  Uiso   1.00
H838   H     0.47019   0.63704   0.92878   0.00000  Uiso   1.00
H839   H     0.49113   0.60895   0.87638   0.00000  Uiso   1.00
H840   H     0.43566   0.59643   0.90729   0.00000  Uiso   1.00
H841   H     0.53594   0.59642   0.54811   0.00000  Uiso   1.00
H842   H     0.57287   0.55950   0.51844   0.00000  Uiso   1.00
H843   H     0.57286   0.60655   0.99517   0.00000  Uiso   1.00
H844   H     0.65258   0.47180   0.78954   0.00000  Uiso   1.00
H845   H     0.54013   0.33691   0.71141   0.00000  Uiso   1.00
H846   H     0.45852   0.66466   0.78907   0.00000  Uiso   1.00
H847   H     0.48988   0.39849   0.94908   0.00000  Uiso   1.00
H848   H     0.51059   0.53042   0.57097   0.00000  Uiso   1.00
H849   H     0.50692   0.62148   0.97768   0.00000  Uiso   1.00
H850   H     0.34883   0.52812   0.71073   0.00000  Uiso   1.00
H851   H     0.54659   0.36842   0.97149   0.00000  Uiso   1.00
O852   O     0.50000   0.50000   0.75000   0.00000  Uiso   1.00
O853   O     0.48784   0.45970   0.65458   0.00000  Uiso   1.00
O854   O     0.46274   0.53724   0.84968   0.00000  Uiso   1.00
O855   O     0.54157   0.51092   0.64606   0.00000  Uiso   1.00
O856   O     0.50785   0.49213   0.84968   0.00000  Uiso   1.00
O857   O     0.51264   0.41352   0.78214   0.00000  Uiso   1.00
O858   O     0.47965   0.59418   0.77013   0.00000  Uiso   1.00
O859   O     0.40745   0.46625   0.73413   0.00000  Uiso   1.00
O860   O     0.60026   0.52605   0.71360   0.00000  Uiso   1.00
O861   O     0.40405   0.52211   0.78213   0.00000  Uiso   1.00
O862   O     0.58824   0.48559   0.77013   0.00000  Uiso   1.00
O863   O     0.47093   0.40277   0.73413   0.00000  Uiso   1.00
O864   O     0.53678   0.58953   0.71360   0.00000  Uiso   1.00
Zn865  Zn    0.52672   0.47327   0.78734   0.00000  Uiso   1.00
Zn866  Zn    0.46713   0.45791   0.71875   0.00000  Uiso   1.00
Zn867  Zn    0.54389   0.53109   0.70657   0.00000  Uiso   1.00
Zn868  Zn    0.46226   0.53773   0.78733   0.00000  Uiso   1.00
Br869  Br    0.77333   0.43247   0.90268   0.00000  Uiso   1.00
C870   C     0.71939   0.49284   0.76004   0.00000  Uiso   1.00
C871   C     0.85123   0.50028   0.55482   0.00000  Uiso   1.00
C872   C     0.86319   0.43070   0.56356   0.00000  Uiso   1.00
C873   C     0.94742   0.50712   0.74007   0.00000  Uiso   1.00
C874   C     0.81420   0.53101   0.91887   0.00000  Uiso   1.00
C875   C     0.99323   0.50992   0.73620   0.00000  Uiso   1.00
C876   C     0.67414   0.49018   0.76383   0.00000  Uiso   1.00
C877   C     0.84710   0.65575   0.73654   0.00000  Uiso   1.00
C878   C     0.81856   0.34505   0.76382   0.00000  Uiso   1.00
C879   C     0.82284   0.38914   0.76014   0.00000  Uiso   1.00
C880   C     0.84324   0.61121   0.74019   0.00000  Uiso   1.00
C881   C     0.83451   0.58834   0.96944   0.00000  Uiso   1.00
C882   C     0.85168   0.48134   0.62930   0.00000  Uiso   1.00
C883   C     0.81576   0.51853   0.87096   0.00000  Uiso   1.00
C884   C     0.85656   0.41705   0.52113   0.00000  Uiso   1.00
C885   C     0.85844   0.47158   0.58110   0.00000  Uiso   1.00
C886   C     0.81574   0.57387   0.93400   0.00000  Uiso   1.00
C887   C     0.85799   0.37165   0.50543   0.00000  Uiso   1.00
C888   C     0.80249   0.60577   0.91017   0.00000  Uiso   1.00
C889   C     0.88482   0.58175   0.51486   0.00000  Uiso   1.00
C890   C     0.85124   0.56157   0.99052   0.00000  Uiso   1.00
C891   C     0.84068   0.51770   0.98298   0.00000  Uiso   1.00
C892   C     0.82227   0.50231   0.94614   0.00000  Uiso   1.00
C893   C     0.84773   0.48859   0.51055   0.00000  Uiso   1.00
C894   C     0.84584   0.44557   0.99570   0.00000  Uiso   1.00
C895   C     0.82882   0.43142   0.95874   0.00000  Uiso   1.00
C896   C     0.81324   0.45859   0.93724   0.00000  Uiso   1.00
H897   H     0.86863   0.40864   0.58460   0.00000  Uiso   1.00
H898   H     0.86972   0.35478   0.52821   0.00000  Uiso   1.00
H899   H     0.82523   0.35671   0.50447   0.00000  Uiso   1.00
H900   H     0.80352   0.63704   0.92878   0.00000  Uiso   1.00
H901   H     0.82447   0.60895   0.87638   0.00000  Uiso   1.00
H902   H     0.76900   0.59643   0.90729   0.00000  Uiso   1.00
H903   H     0.86927   0.59642   0.54811   0.00000  Uiso   1.00
H904   H     0.90620   0.55950   0.51844   0.00000  Uiso   1.00
H905   H     0.90619   0.60655   0.99517   0.00000  Uiso   1.00
H906   H     0.98591   0.47180   0.78954   0.00000  Uiso   1.00
H907   H     0.87346   0.33691   0.71141   0.00000  Uiso   1.00
H908   H     0.79185   0.66466   0.78907   0.00000  Uiso   1.00
H909   H     0.82322   0.39849   0.94908   0.00000  Uiso   1.00
H910   H     0.84392   0.53042   0.57097   0.00000  Uiso   1.00
H911   H     0.84026   0.62148   0.97768   0.00000  Uiso   1.00
H912   H     0.68216   0.52812   0.71073   0.00000  Uiso   1.00
H913   H     0.87992   0.36842   0.97149   0.00000  Uiso   1.00
O914   O     0.83333   0.50000   0.75000   0.00000  Uiso   1.00
O915   O     0.82118   0.45970   0.65458   0.00000  Uiso   1.00
O916   O     0.79607   0.53724   0.84968   0.00000  Uiso   1.00
O917   O     0.87491   0.51092   0.64606   0.00000  Uiso   1.00
O918   O     0.84118   0.49213   0.84968   0.00000  Uiso   1.00
O919   O     0.84597   0.41352   0.78214   0.00000  Uiso   1.00
O920   O     0.81298   0.59418   0.77013   0.00000  Uiso   1.00
O921   O     0.74078   0.46625   0.73413   0.00000  Uiso   1.00
O922   O     0.93360   0.52605   0.71360   0.00000  Uiso   1.00
O923   O     0.73738   0.52211   0.78213   0.00000  Uiso   1.00
O924   O     0.92158   0.48559   0.77013   0.00000  Uiso   1.00
O925   O     0.80426   0.40277   0.73413   0.00000  Uiso   1.00
O926   O     0.87012   0.58953   0.71360   0.00000  Uiso   1.00
Zn927  Zn    0.86005   0.47327   0.78734   0.00000  Uiso   1.00
Zn928  Zn    0.80046   0.45791   0.71875   0.00000  Uiso   1.00
Zn929  Zn    0.87723   0.53109   0.70657   0.00000  Uiso   1.00
Zn930  Zn    0.79560   0.53773   0.78733   0.00000  Uiso   1.00
Br931  Br    0.10666   0.76580   0.90268   0.00000  Uiso   1.00
C932   C     0.05272   0.82617   0.76004   0.00000  Uiso   1.00
C933   C     0.18457   0.83361   0.55482   0.00000  Uiso   1.00
C934   C     0.19652   0.76403   0.56356   0.00000  Uiso   1.00
C935   C     0.28075   0.84046   0.74007   0.00000  Uiso   1.00
C936   C     0.14754   0.86435   0.91887   0.00000  Uiso   1.00
C937   C     0.32656   0.84325   0.73620   0.00000  Uiso   1.00
C938   C     0.00747   0.82351   0.76383   0.00000  Uiso   1.00
C939   C     0.18044   0.98908   0.73654   0.00000  Uiso   1.00
C940   C     0.15190   0.67838   0.76382   0.00000  Uiso   1.00
C941   C     0.15618   0.72247   0.76014   0.00000  Uiso   1.00
C942   C     0.17657   0.94455   0.74019   0.00000  Uiso   1.00
C943   C     0.16784   0.92168   0.96944   0.00000  Uiso   1.00
C944   C     0.18501   0.81467   0.62930   0.00000  Uiso   1.00
C945   C     0.14909   0.85186   0.87096   0.00000  Uiso   1.00
C946   C     0.18989   0.75039   0.52113   0.00000  Uiso   1.00
C947   C     0.19177   0.80491   0.58110   0.00000  Uiso   1.00
C948   C     0.14908   0.90721   0.93400   0.00000  Uiso   1.00
C949   C     0.19132   0.70499   0.50543   0.00000  Uiso   1.00
C950   C     0.13582   0.93911   0.91017   0.00000  Uiso   1.00
C951   C     0.21815   0.91508   0.51486   0.00000  Uiso   1.00
C952   C     0.18457   0.89491   0.99052   0.00000  Uiso   1.00
C953   C     0.17401   0.85104   0.98298   0.00000  Uiso   1.00
C954   C     0.15560   0.83565   0.94614   0.00000  Uiso   1.00
C955   C     0.18106   0.82193   0.51055   0.00000  Uiso   1.00
C956   C     0.17918   0.77891   0.99570   0.00000  Uiso   1.00
C957   C     0.16215   0.76475   0.95874   0.00000  Uiso   1.00
C958   C     0.14657   0.79192   0.93724   0.00000  Uiso   1.00
H959   H     0.20196   0.74197   0.58460   0.00000  Uiso   1.00
H960   H     0.20305   0.68812   0.52821   0.00000  Uiso   1.00
H961   H     0.15857   0.69005   0.50447   0.00000  Uiso   1.00
H962   H     0.13685   0.97037   0.92878   0.00000  Uiso   1.00
H963   H     0.15780   0.94229   0.87638   0.00000  Uiso   1.00
H964   H     0.10233   0.92976   0.90729   0.00000  Uiso   1.00
H965   H     0.20260   0.92975   0.54811   0.00000  Uiso   1.00
H966   H     0.23953   0.89284   0.51844   0.00000  Uiso   1.00
H967   H     0.23953   0.93989   0.99517   0.00000  Uiso   1.00
H968   H     0.31925   0.80513   0.78954   0.00000  Uiso   1.00
H969   H     0.20680   0.67025   0.71141   0.00000  Uiso   1.00
H970   H     0.12519   0.99799   0.78907   0.00000  Uiso   1.00
H971   H     0.15655   0.73182   0.94908   0.00000  Uiso   1.00
H972   H     0.17726   0.86375   0.57097   0.00000  Uiso   1.00
H973   H     0.17359   0.95481   0.97768   0.00000  Uiso   1.00
H974   H     0.01549   0.86146   0.71073   0.00000  Uiso   1.00
H975   H     0.21325   0.70175   0.97149   0.00000  Uiso   1.00
O976   O     0.16667   0.83333   0.75000   0.00000  Uiso   1.00
O977   O     0.15451   0.79304   0.65458   0.00000  Uiso   1.00
O978   O     0.12940   0.87058   0.84968   0.00000  Uiso   1.00
O979   O     0.20824   0.84425   0.64606   0.00000  Uiso   1.00
O980   O     0.17451   0.82546   0.84968   0.00000  Uiso   1.00
O981   O     0.17930   0.74686   0.78214   0.00000  Uiso   1.00
O982   O     0.14632   0.92751   0.77013   0.00000  Uiso   1.00
O983   O     0.07412   0.79958   0.73413   0.00000  Uiso   1.00
O984   O     0.26693   0.85939   0.71360   0.00000  Uiso   1.00
O985   O     0.07071   0.85544   0.78213   0.00000  Uiso   1.00
O986   O     0.25491   0.81892   0.77013   0.00000  Uiso   1.00
O987   O     0.13760   0.73610   0.73413   0.00000  Uiso   1.00
O988   O     0.20345   0.92286   0.71360   0.00000  Uiso   1.00
Zn989  Zn    0.19338   0.80661   0.78734   0.00000  Uiso   1.00
Zn990  Zn    0.13379   0.79124   0.71875   0.00000  Uiso   1.00
Zn991  Zn    0.21056   0.86442   0.70657   0.00000  Uiso   1.00
Zn992  Zn    0.12893   0.87106   0.78733   0.00000  Uiso   1.00
Br993  Br    0.43999   0.76580   0.90268   0.00000  Uiso   1.00
C994   C     0.38606   0.82617   0.76004   0.00000  Uiso   1.00
C995   C     0.51790   0.83361   0.55482   0.00000  Uiso   1.00
C996   C     0.52985   0.76403   0.56356   0.00000  Uiso   1.00
C997   C     0.61409   0.84046   0.74007   0.00000  Uiso   1.00
C998   C     0.48087   0.86435   0.91887   0.00000  Uiso   1.00
C999   C     0.65989   0.84325   0.73620   0.00000  Uiso   1.00
C1000  C     0.34080   0.82351   0.76383   0.00000  Uiso   1.00
C1001  C     0.51377   0.98908   0.73654   0.00000  Uiso   1.00
C1002  C     0.48523   0.67838   0.76382   0.00000  Uiso   1.00
C1003  C     0.48951   0.72247   0.76014   0.00000  Uiso   1.00
C1004  C     0.50991   0.94455   0.74019   0.00000  Uiso   1.00
C1005  C     0.50118   0.92168   0.96944   0.00000  Uiso   1.00
C1006  C     0.51835   0.81467   0.62930   0.00000  Uiso   1.00
C1007  C     0.48242   0.85186   0.87096   0.00000  Uiso   1.00
C1008  C     0.52323   0.75039   0.52113   0.00000  Uiso   1.00
C1009  C     0.52510   0.80491   0.58110   0.00000  Uiso   1.00
C1010  C     0.48241   0.90721   0.93400   0.00000  Uiso   1.00
C1011  C     0.52466   0.70499   0.50543   0.00000  Uiso   1.00
C1012  C     0.46915   0.93911   0.91017   0.00000  Uiso   1.00
C1013  C     0.55148   0.91508   0.51486   0.00000  Uiso   1.00
C1014  C     0.51791   0.89491   0.99052   0.00000  Uiso   1.00
C1015  C     0.50734   0.85104   0.98298   0.00000  Uiso   1.00
C1016  C     0.48894   0.83565   0.94614   0.00000  Uiso   1.00
C1017  C     0.51439   0.82193   0.51055   0.00000  Uiso   1.00
C1018  C     0.51251   0.77891   0.99570   0.00000  Uiso   1.00
C1019  C     0.49549   0.76475   0.95874   0.00000  Uiso   1.00
C1020  C     0.47991   0.79192   0.93724   0.00000  Uiso   1.00
H1021  H     0.53529   0.74197   0.58460   0.00000  Uiso   1.00
H1022  H     0.53639   0.68812   0.52821   0.00000  Uiso   1.00
H1023  H     0.49190   0.69005   0.50447   0.00000  Uiso   1.00
H1024  H     0.47019   0.97037   0.92878   0.00000  Uiso   1.00
H1025  H     0.49113   0.94229   0.87638   0.00000  Uiso   1.00
H1026  H     0.43566   0.92976   0.90729   0.00000  Uiso   1.00
H1027  H     0.53594   0.92975   0.54811   0.00000  Uiso   1.00
H1028  H     0.57287   0.89284   0.51844   0.00000  Uiso   1.00
H1029  H     0.57286   0.93989   0.99517   0.00000  Uiso   1.00
H1030  H     0.65258   0.80513   0.78954   0.00000  Uiso   1.00
H1031  H     0.54013   0.67025   0.71141   0.00000  Uiso   1.00
H1032  H     0.45852   0.99799   0.78907   0.00000  Uiso   1.00
H1033  H     0.48988   0.73182   0.94908   0.00000  Uiso   1.00
H1034  H     0.51059   0.86375   0.57097   0.00000  Uiso   1.00
H1035  H     0.50692   0.95481   0.97768   0.00000  Uiso   1.00
H1036  H     0.34883   0.86146   0.71073   0.00000  Uiso   1.00
H1037  H     0.54659   0.70175   0.97149   0.00000  Uiso   1.00
O1038  O     0.50000   0.83333   0.75000   0.00000  Uiso   1.00
O1039  O     0.48784   0.79304   0.65458   0.00000  Uiso   1.00
O1040  O     0.46274   0.87058   0.84968   0.00000  Uiso   1.00
O1041  O     0.54157   0.84425   0.64606   0.00000  Uiso   1.00
O1042  O     0.50785   0.82546   0.84968   0.00000  Uiso   1.00
O1043  O     0.51264   0.74686   0.78214   0.00000  Uiso   1.00
O1044  O     0.47965   0.92751   0.77013   0.00000  Uiso   1.00
O1045  O     0.40745   0.79958   0.73413   0.00000  Uiso   1.00
O1046  O     0.60026   0.85939   0.71360   0.00000  Uiso   1.00
O1047  O     0.40405   0.85544   0.78213   0.00000  Uiso   1.00
O1048  O     0.58824   0.81892   0.77013   0.00000  Uiso   1.00
O1049  O     0.47093   0.73610   0.73413   0.00000  Uiso   1.00
O1050  O     0.53678   0.92286   0.71360   0.00000  Uiso   1.00
Zn1051 Zn    0.52672   0.80661   0.78734   0.00000  Uiso   1.00
Zn1052 Zn    0.46713   0.79124   0.71875   0.00000  Uiso   1.00
Zn1053 Zn    0.54389   0.86442   0.70657   0.00000  Uiso   1.00
Zn1054 Zn    0.46226   0.87106   0.78733   0.00000  Uiso   1.00
Br1055 Br    0.77333   0.76580   0.90268   0.00000  Uiso   1.00
C1056  C     0.71939   0.82617   0.76004   0.00000  Uiso   1.00
C1057  C     0.85123   0.83361   0.55482   0.00000  Uiso   1.00
C1058  C     0.86319   0.76403   0.56356   0.00000  Uiso   1.00
C1059  C     0.94742   0.84046   0.74007   0.00000  Uiso   1.00
C1060  C     0.81420   0.86435   0.91887   0.00000  Uiso   1.00
C1061  C     0.99323   0.84325   0.73620   0.00000  Uiso   1.00
C1062  C     0.67414   0.82351   0.76383   0.00000  Uiso   1.00
C1063  C     0.84710   0.98908   0.73654   0.00000  Uiso   1.00
C1064  C     0.81856   0.67838   0.76382   0.00000  Uiso   1.00
C1065  C     0.82284   0.72247   0.76014   0.00000  Uiso   1.00
C1066  C     0.84324   0.94455   0.74019   0.00000  Uiso   1.00
C1067  C     0.83451   0.92168   0.96944   0.00000  Uiso   1.00
C1068  C     0.85168   0.81467   0.62930   0.00000  Uiso   1.00
C1069  C     0.81576   0.85186   0.87096   0.00000  Uiso   1.00
C1070  C     0.85656   0.75039   0.52113   0.00000  Uiso   1.00
C1071  C     0.85844   0.80491   0.58110   0.00000  Uiso   1.00
C1072  C     0.81574   0.90721   0.93400   0.00000  Uiso   1.00
C1073  C     0.85799   0.70499   0.50543   0.00000  Uiso   1.00
C1074  C     0.80249   0.93911   0.91017   0.00000  Uiso   1.00
C1075  C     0.88482   0.91508   0.51486   0.00000  Uiso   1.00
C1076  C     0.85124   0.89491   0.99052   0.00000  Uiso   1.00
C1077  C     0.84068   0.85104   0.98298   0.00000  Uiso   1.00
C1078  C     0.82227   0.83565   0.94614   0.00000  Uiso   1.00
C1079  C     0.84773   0.82193   0.51055   0.00000  Uiso   1.00
C1080  C     0.84584   0.77891   0.99570   0.00000  Uiso   1.00
C1081  C     0.82882   0.76475   0.95874   0.00000  Uiso   1.00
C1082  C     0.81324   0.79192   0.93724   0.00000  Uiso   1.00
H1083  H     0.86863   0.74197   0.58460   0.00000  Uiso   1.00
H1084  H     0.86972   0.68812   0.52821   0.00000  Uiso   1.00
H1085  H     0.82523   0.69005   0.50447   0.00000  Uiso   1.00
H1086  H     0.80352   0.97037   0.92878   0.00000  Uiso   1.00
H1087  H     0.82447   0.94229   0.87638   0.00000  Uiso   1.00
H1088  H     0.76900   0.92976   0.90729   0.00000  Uiso   1.00
H1089  H     0.86927   0.92975   0.54811   0.00000  Uiso   1.00
H1090  H     0.90620   0.89284   0.51844   0.00000  Uiso   1.00
H1091  H     0.90619   0.93989   0.99517   0.00000  Uiso   1.00
H1092  H     0.98591   0.80513   0.78954   0.00000  Uiso   1.00
H1093  H     0.87346   0.67025   0.71141   0.00000  Uiso   1.00
H1094  H     0.79185   0.99799   0.78907   0.00000  Uiso   1.00
H1095  H     0.82322   0.73182   0.94908   0.00000  Uiso   1.00
H1096  H     0.84392   0.86375   0.57097   0.00000  Uiso   1.00
H1097  H     0.84026   0.95481   0.97768   0.00000  Uiso   1.00
H1098  H     0.68216   0.86146   0.71073   0.00000  Uiso   1.00
H1099  H     0.87992   0.70175   0.97149   0.00000  Uiso   1.00
O1100  O     0.83333   0.83333   0.75000   0.00000  Uiso   1.00
O1101  O     0.82118   0.79304   0.65458   0.00000  Uiso   1.00
O1102  O     0.79607   0.87058   0.84968   0.00000  Uiso   1.00
O1103  O     0.87491   0.84425   0.64606   0.00000  Uiso   1.00
O1104  O     0.84118   0.82546   0.84968   0.00000  Uiso   1.00
O1105  O     0.84597   0.74686   0.78214   0.00000  Uiso   1.00
O1106  O     0.81298   0.92751   0.77013   0.00000  Uiso   1.00
O1107  O     0.74078   0.79958   0.73413   0.00000  Uiso   1.00
O1108  O     0.93360   0.85939   0.71360   0.00000  Uiso   1.00
O1109  O     0.73738   0.85544   0.78213   0.00000  Uiso   1.00
O1110  O     0.92158   0.81892   0.77013   0.00000  Uiso   1.00
O1111  O     0.80426   0.73610   0.73413   0.00000  Uiso   1.00
O1112  O     0.87012   0.92286   0.71360   0.00000  Uiso   1.00
Zn1113 Zn    0.86005   0.80661   0.78734   0.00000  Uiso   1.00
Zn1114 Zn    0.80046   0.79124   0.71875   0.00000  Uiso   1.00
Zn1115 Zn    0.87723   0.86442   0.70657   0.00000  Uiso   1.00
Zn1116 Zn    0.79560   0.87106   0.78733   0.00000  Uiso   1.00
loop_
_geom_bond_atom_site_label_1
_geom_bond_atom_site_label_2
_geom_bond_distance
_geom_bond_site_symmetry_2
_ccdc_geom_bond_type
Br1    C28     1.932   .     S
C2     O55     1.269   .     A
C2     C8      1.436   .     S
C2     O53     1.269   .     A
C3     H42     1.080   .     S
C3     C17     1.389   .     A
C3     C25     1.408   .     A
C4     C16     1.397   .     A
C4     H29     1.085   .     S
C4     C17     1.394   .     A
C5     O56     1.279   .     A
C5     O54     1.281   .     A
C5     C7      1.454   .     S
C6     C15     1.481   .     S
C6     C24     1.423   .     A
C6     C18     1.419   .     A
C7     C70     1.334   .     S
C7     H106    1.088   .     S
C8     C131    1.334   1_455 S
C8     H162    1.086   1_455 S
C9     C12     1.453   .     S
C9     C196    1.332   .     S
C9     H225    1.088   .     S
C10    C11     1.437   .     S
C10    C381    1.332   1_545 S
C10    H412    1.086   1_545 S
C11    O51     1.274   .     A
C11    O57     1.274   .     A
C12    O58     1.273   .     A
C12    O52     1.273   .     A
C13    C18     1.392   .     A
C13    C22     1.392   .     A
C13    H43     1.080   .     S
C14    O47     1.270   .     A
C14    C17     1.455   .     S
C14    O49     1.280   .     A
C15    O48     1.281   .     A
C15    O50     1.288   .     A
C16    C19     1.507   .     S
C16    C584    1.418   1_554 S
C18    C20     1.511   .     S
C19    H31     1.110   .     S
C19    H30     1.111   .     S
C19    H603    1.110   1_554 S
C20    H34     1.110   .     S
C20    H33     1.110   .     S
C20    H32     1.111   .     S
C21    H35     1.110   .     S
C21    H36     1.109   .     S
C21    C580    1.513   1_554 S
C21    H595    1.112   1_554 S
C22    C23     1.426   .     A
C22    C579    1.513   .     S
C23    C24     1.428   .     A
C23    C583    1.425   .     S
C24    C28     1.421   .     A
C25    C581    1.425   1_554 S
C25    C584    1.421   1_554 S
C26    C27     1.399   .     A
C26    C583    1.421   .     S
C26    C574    1.418   .     S
C27    H41     1.082   .     S
C27    C28     1.388   .     A
H37    C579    1.112   .     S
H38    C70     1.086   .     S
H39    C381    1.088   1_545 S
H40    C196    1.086   .     S
H44    C131    1.088   1_455 S
H45    C577    1.110   .     S
O46    Zn59    1.955   .     S
O46    Zn62    1.935   .     S
O46    Zn61    1.940   .     S
O46    Zn60    1.937   .     S
O47    Zn60    1.930   .     S
O48    Zn62    1.935   .     S
O49    Zn61    1.928   .     S
O50    Zn59    1.924   .     S
O51    Zn59    1.930   .     S
O52    Zn62    1.936   .     S
O53    Zn60    1.928   .     S
O54    Zn61    1.934   .     S
O55    Zn62    1.929   .     S
O56    Zn59    1.926   .     S
O57    Zn60    1.940   .     S
O58    Zn61    1.933   .     S
Br63   C90     1.932   .     S
C64    O117    1.269   .     A
C64    C70     1.436   .     S
C64    O115    1.269   .     A
C65    H104    1.080   .     S
C65    C79     1.389   .     A
C65    C87     1.408   .     A
C66    C78     1.397   .     A
C66    H91     1.085   .     S
C66    C79     1.394   .     A
C67    O118    1.279   .     A
C67    O116    1.281   .     A
C67    C69     1.454   .     S
C68    C77     1.481   .     S
C68    C86     1.423   .     A
C68    C80     1.419   .     A
C69    C132    1.334   .     S
C69    H168    1.088   .     S
C71    C74     1.453   .     S
C71    C258    1.332   .     S
C71    H287    1.088   .     S
C72    C73     1.437   .     S
C72    C443    1.332   1_545 S
C72    H474    1.086   1_545 S
C73    O113    1.274   .     A
C73    O119    1.274   .     A
C74    O120    1.273   .     A
C74    O114    1.273   .     A
C75    C80     1.392   .     A
C75    C84     1.392   .     A
C75    H105    1.080   .     S
C76    O109    1.270   .     A
C76    C79     1.455   .     S
C76    O111    1.280   .     A
C77    O110    1.281   .     A
C77    O112    1.288   .     A
C78    C81     1.507   .     S
C78    C646    1.418   1_554 S
C80    C82     1.511   .     S
C81    H93     1.110   .     S
C81    H92     1.111   .     S
C81    H665    1.110   1_554 S
C82    H96     1.110   .     S
C82    H95     1.110   .     S
C82    H94     1.111   .     S
C83    H97     1.110   .     S
C83    H98     1.109   .     S
C83    C642    1.513   1_554 S
C83    H657    1.112   1_554 S
C84    C85     1.426   .     A
C84    C641    1.513   .     S
C85    C86     1.428   .     A
C85    C645    1.425   .     S
C86    C90     1.421   .     A
C87    C643    1.425   1_554 S
C87    C646    1.421   1_554 S
C88    C89     1.399   .     A
C88    C645    1.421   .     S
C88    C636    1.418   .     S
C89    H103    1.082   .     S
C89    C90     1.388   .     A
H99    C641    1.112   .     S
H100   C132    1.086   .     S
H101   C443    1.088   1_545 S
H102   C258    1.086   .     S
H107   C639    1.110   .     S
O108   Zn121   1.955   .     S
O108   Zn124   1.935   .     S
O108   Zn123   1.940   .     S
O108   Zn122   1.937   .     S
O109   Zn122   1.930   .     S
O110   Zn124   1.935   .     S
O111   Zn123   1.928   .     S
O112   Zn121   1.924   .     S
O113   Zn121   1.930   .     S
O114   Zn124   1.936   .     S
O115   Zn122   1.928   .     S
O116   Zn123   1.934   .     S
O117   Zn124   1.929   .     S
O118   Zn121   1.926   .     S
O119   Zn122   1.940   .     S
O120   Zn123   1.933   .     S
Br125  C152    1.932   .     S
C126   O179    1.269   .     A
C126   C132    1.436   .     S
C126   O177    1.269   .     A
C127   H166    1.080   .     S
C127   C141    1.389   .     A
C127   C149    1.408   .     A
C128   C140    1.397   .     A
C128   H153    1.085   .     S
C128   C141    1.394   .     A
C129   O180    1.279   .     A
C129   O178    1.281   .     A
C129   C131    1.454   .     S
C130   C139    1.481   .     S
C130   C148    1.423   .     A
C130   C142    1.419   .     A
C131   C8      1.334   1_655 S
C131   H44     1.088   1_655 S
C133   C136    1.453   .     S
C133   C320    1.332   .     S
C133   H349    1.088   .     S
C134   C135    1.437   .     S
C134   C505    1.332   1_545 S
C134   H536    1.086   1_545 S
C135   O175    1.274   .     A
C135   O181    1.274   .     A
C136   O182    1.273   .     A
C136   O176    1.273   .     A
C137   C142    1.392   .     A
C137   C146    1.392   .     A
C137   H167    1.080   .     S
C138   O171    1.270   .     A
C138   C141    1.455   .     S
C138   O173    1.280   .     A
C139   O172    1.281   .     A
C139   O174    1.288   .     A
C140   C143    1.507   .     S
C140   C708    1.418   1_554 S
C142   C144    1.511   .     S
C143   H155    1.110   .     S
C143   H154    1.111   .     S
C143   H727    1.110   1_554 S
C144   H158    1.110   .     S
C144   H157    1.110   .     S
C144   H156    1.111   .     S
C145   H159    1.110   .     S
C145   H160    1.109   .     S
C145   C704    1.513   1_554 S
C145   H719    1.112   1_554 S
C146   C147    1.426   .     A
C146   C703    1.513   .     S
C147   C148    1.428   .     A
C147   C707    1.425   .     S
C148   C152    1.421   .     A
C149   C705    1.425   1_554 S
C149   C708    1.421   1_554 S
C150   C151    1.399   .     A
C150   C707    1.421   .     S
C150   C698    1.418   .     S
C151   H165    1.082   .     S
C151   C152    1.388   .     A
H161   C703    1.112   .     S
H162   C8      1.086   1_655 S
H163   C505    1.088   1_545 S
H164   C320    1.086   .     S
H169   C701    1.110   .     S
O170   Zn183   1.955   .     S
O170   Zn186   1.935   .     S
O170   Zn185   1.940   .     S
O170   Zn184   1.937   .     S
O171   Zn184   1.930   .     S
O172   Zn186   1.935   .     S
O173   Zn185   1.928   .     S
O174   Zn183   1.924   .     S
O175   Zn183   1.930   .     S
O176   Zn186   1.936   .     S
O177   Zn184   1.928   .     S
O178   Zn185   1.934   .     S
O179   Zn186   1.929   .     S
O180   Zn183   1.926   .     S
O181   Zn184   1.940   .     S
O182   Zn185   1.933   .     S
Br187  C214    1.932   .     S
C188   O241    1.269   .     A
C188   C194    1.436   .     S
C188   O239    1.269   .     A
C189   H228    1.080   .     S
C189   C203    1.389   .     A
C189   C211    1.408   .     A
C190   C202    1.397   .     A
C190   H215    1.085   .     S
C190   C203    1.394   .     A
C191   O242    1.279   .     A
C191   O240    1.281   .     A
C191   C193    1.454   .     S
C192   C201    1.481   .     S
C192   C210    1.423   .     A
C192   C204    1.419   .     A
C193   C256    1.334   .     S
C193   H292    1.088   .     S
C194   C317    1.334   1_455 S
C194   H348    1.086   1_455 S
C195   C198    1.453   .     S
C195   C382    1.332   .     S
C195   H411    1.088   .     S
C196   C197    1.437   .     S
C197   O237    1.274   .     A
C197   O243    1.274   .     A
C198   O244    1.273   .     A
C198   O238    1.273   .     A
C199   C204    1.392   .     A
C199   C208    1.392   .     A
C199   H229    1.080   .     S
C200   O233    1.270   .     A
C200   C203    1.455   .     S
C200   O235    1.280   .     A
C201   O234    1.281   .     A
C201   O236    1.288   .     A
C202   C205    1.507   .     S
C202   C770    1.418   1_554 S
C204   C206    1.511   .     S
C205   H217    1.110   .     S
C205   H216    1.111   .     S
C205   H789    1.110   1_554 S
C206   H220    1.110   .     S
C206   H219    1.110   .     S
C206   H218    1.111   .     S
C207   H221    1.110   .     S
C207   H222    1.109   .     S
C207   C766    1.513   1_554 S
C207   H781    1.112   1_554 S
C208   C209    1.426   .     A
C208   C765    1.513   .     S
C209   C210    1.428   .     A
C209   C769    1.425   .     S
C210   C214    1.421   .     A
C211   C767    1.425   1_554 S
C211   C770    1.421   1_554 S
C212   C213    1.399   .     A
C212   C769    1.421   .     S
C212   C760    1.418   .     S
C213   H227    1.082   .     S
C213   C214    1.388   .     A
H223   C765    1.112   .     S
H224   C256    1.086   .     S
H226   C382    1.086   .     S
H230   C317    1.088   1_455 S
H231   C763    1.110   .     S
O232   Zn245   1.955   .     S
O232   Zn248   1.935   .     S
O232   Zn247   1.940   .     S
O232   Zn246   1.937   .     S
O233   Zn246   1.930   .     S
O234   Zn248   1.935   .     S
O235   Zn247   1.928   .     S
O236   Zn245   1.924   .     S
O237   Zn245   1.930   .     S
O238   Zn248   1.936   .     S
O239   Zn246   1.928   .     S
O240   Zn247   1.934   .     S
O241   Zn248   1.929   .     S
O242   Zn245   1.926   .     S
O243   Zn246   1.940   .     S
O244   Zn247   1.933   .     S
Br249  C276    1.932   .     S
C250   O303    1.269   .     A
C250   C256    1.436   .     S
C250   O301    1.269   .     A
C251   H290    1.080   .     S
C251   C265    1.389   .     A
C251   C273    1.408   .     A
C252   C264    1.397   .     A
C252   H277    1.085   .     S
C252   C265    1.394   .     A
C253   O304    1.279   .     A
C253   O302    1.281   .     A
C253   C255    1.454   .     S
C254   C263    1.481   .     S
C254   C272    1.423   .     A
C254   C266    1.419   .     A
C255   C318    1.334   .     S
C255   H354    1.088   .     S
C257   C260    1.453   .     S
C257   C444    1.332   .     S
C257   H473    1.088   .     S
C258   C259    1.437   .     S
C259   O299    1.274   .     A
C259   O305    1.274   .     A
C260   O306    1.273   .     A
C260   O300    1.273   .     A
C261   C266    1.392   .     A
C261   C270    1.392   .     A
C261   H291    1.080   .     S
C262   O295    1.270   .     A
C262   C265    1.455   .     S
C262   O297    1.280   .     A
C263   O296    1.281   .     A
C263   O298    1.288   .     A
C264   C267    1.507   .     S
C264   C832    1.418   1_554 S
C266   C268    1.511   .     S
C267   H279    1.110   .     S
C267   H278    1.111   .     S
C267   H851    1.110   1_554 S
C268   H282    1.110   .     S
C268   H281    1.110   .     S
C268   H280    1.111   .     S
C269   H283    1.110   .     S
C269   H284    1.109   .     S
C269   C828    1.513   1_554 S
C269   H843    1.112   1_554 S
C270   C271    1.426   .     A
C270   C827    1.513   .     S
C271   C272    1.428   .     A
C271   C831    1.425   .     S
C272   C276    1.421   .     A
C273   C829    1.425   1_554 S
C273   C832    1.421   1_554 S
C274   C275    1.399   .     A
C274   C831    1.421   .     S
C274   C822    1.418   .     S
C275   H289    1.082   .     S
C275   C276    1.388   .     A
H285   C827    1.112   .     S
H286   C318    1.086   .     S
H288   C444    1.086   .     S
H293   C825    1.110   .     S
O294   Zn307   1.955   .     S
O294   Zn310   1.935   .     S
O294   Zn309   1.940   .     S
O294   Zn308   1.937   .     S
O295   Zn308   1.930   .     S
O296   Zn310   1.935   .     S
O297   Zn309   1.928   .     S
O298   Zn307   1.924   .     S
O299   Zn307   1.930   .     S
O300   Zn310   1.936   .     S
O301   Zn308   1.928   .     S
O302   Zn309   1.934   .     S
O303   Zn310   1.929   .     S
O304   Zn307   1.926   .     S
O305   Zn308   1.940   .     S
O306   Zn309   1.933   .     S
Br311  C338    1.932   .     S
C312   O365    1.269   .     A
C312   C318    1.436   .     S
C312   O363    1.269   .     A
C313   H352    1.080   .     S
C313   C327    1.389   .     A
C313   C335    1.408   .     A
C314   C326    1.397   .     A
C314   H339    1.085   .     S
C314   C327    1.394   .     A
C315   O366    1.279   .     A
C315   O364    1.281   .     A
C315   C317    1.454   .     S
C316   C325    1.481   .     S
C316   C334    1.423   .     A
C316   C328    1.419   .     A
C317   C194    1.334   1_655 S
C317   H230    1.088   1_655 S
C319   C322    1.453   .     S
C319   C506    1.332   .     S
C319   H535    1.088   .     S
C320   C321    1.437   .     S
C321   O361    1.274   .     A
C321   O367    1.274   .     A
C322   O368    1.273   .     A
C322   O362    1.273   .     A
C323   C328    1.392   .     A
C323   C332    1.392   .     A
C323   H353    1.080   .     S
C324   O357    1.270   .     A
C324   C327    1.455   .     S
C324   O359    1.280   .     A
C325   O358    1.281   .     A
C325   O360    1.288   .     A
C326   C329    1.507   .     S
C326   C894    1.418   1_554 S
C328   C330    1.511   .     S
C329   H341    1.110   .     S
C329   H340    1.111   .     S
C329   H913    1.110   1_554 S
C330   H344    1.110   .     S
C330   H343    1.110   .     S
C330   H342    1.111   .     S
C331   H345    1.110   .     S
C331   H346    1.109   .     S
C331   C890    1.513   1_554 S
C331   H905    1.112   1_554 S
C332   C333    1.426   .     A
C332   C889    1.513   .     S
C333   C334    1.428   .     A
C333   C893    1.425   .     S
C334   C338    1.421   .     A
C335   C891    1.425   1_554 S
C335   C894    1.421   1_554 S
C336   C337    1.399   .     A
C336   C893    1.421   .     S
C336   C884    1.418   .     S
C337   H351    1.082   .     S
C337   C338    1.388   .     A
H347   C889    1.112   .     S
H348   C194    1.086   1_655 S
H350   C506    1.086   .     S
H355   C887    1.110   .     S
O356   Zn369   1.955   .     S
O356   Zn372   1.935   .     S
O356   Zn371   1.940   .     S
O356   Zn370   1.937   .     S
O357   Zn370   1.930   .     S
O358   Zn372   1.935   .     S
O359   Zn371   1.928   .     S
O360   Zn369   1.924   .     S
O361   Zn369   1.930   .     S
O362   Zn372   1.936   .     S
O363   Zn370   1.928   .     S
O364   Zn371   1.934   .     S
O365   Zn372   1.929   .     S
O366   Zn369   1.926   .     S
O367   Zn370   1.940   .     S
O368   Zn371   1.933   .     S
Br373  C400    1.932   .     S
C374   O427    1.269   .     A
C374   C380    1.436   .     S
C374   O425    1.269   .     A
C375   H414    1.080   .     S
C375   C389    1.389   .     A
C375   C397    1.408   .     A
C376   C388    1.397   .     A
C376   H401    1.085   .     S
C376   C389    1.394   .     A
C377   O428    1.279   .     A
C377   O426    1.281   .     A
C377   C379    1.454   .     S
C378   C387    1.481   .     S
C378   C396    1.423   .     A
C378   C390    1.419   .     A
C379   C442    1.334   .     S
C379   H478    1.088   .     S
C380   C503    1.334   1_455 S
C380   H534    1.086   1_455 S
C381   C384    1.453   .     S
C381   C10     1.332   1_565 S
C381   H39     1.088   1_565 S
C382   C383    1.437   .     S
C383   O423    1.274   .     A
C383   O429    1.274   .     A
C384   O430    1.273   .     A
C384   O424    1.273   .     A
C385   C390    1.392   .     A
C385   C394    1.392   .     A
C385   H415    1.080   .     S
C386   O419    1.270   .     A
C386   C389    1.455   .     S
C386   O421    1.280   .     A
C387   O420    1.281   .     A
C387   O422    1.288   .     A
C388   C391    1.507   .     S
C388   C956    1.418   1_554 S
C390   C392    1.511   .     S
C391   H403    1.110   .     S
C391   H402    1.111   .     S
C391   H975    1.110   1_554 S
C392   H406    1.110   .     S
C392   H405    1.110   .     S
C392   H404    1.111   .     S
C393   H407    1.110   .     S
C393   H408    1.109   .     S
C393   C952    1.513   1_554 S
C393   H967    1.112   1_554 S
C394   C395    1.426   .     A
C394   C951    1.513   .     S
C395   C396    1.428   .     A
C395   C955    1.425   .     S
C396   C400    1.421   .     A
C397   C953    1.425   1_554 S
C397   C956    1.421   1_554 S
C398   C399    1.399   .     A
C398   C955    1.421   .     S
C398   C946    1.418   .     S
C399   H413    1.082   .     S
C399   C400    1.388   .     A
H409   C951    1.112   .     S
H410   C442    1.086   .     S
H412   C10     1.086   1_565 S
H416   C503    1.088   1_455 S
H417   C949    1.110   .     S
O418   Zn431   1.955   .     S
O418   Zn434   1.935   .     S
O418   Zn433   1.940   .     S
O418   Zn432   1.937   .     S
O419   Zn432   1.930   .     S
O420   Zn434   1.935   .     S
O421   Zn433   1.928   .     S
O422   Zn431   1.924   .     S
O423   Zn431   1.930   .     S
O424   Zn434   1.936   .     S
O425   Zn432   1.928   .     S
O426   Zn433   1.934   .     S
O427   Zn434   1.929   .     S
O428   Zn431   1.926   .     S
O429   Zn432   1.940   .     S
O430   Zn433   1.933   .     S
Br435  C462    1.932   .     S
C436   O489    1.269   .     A
C436   C442    1.436   .     S
C436   O487    1.269   .     A
C437   H476    1.080   .     S
C437   C451    1.389   .     A
C437   C459    1.408   .     A
C438   C450    1.397   .     A
C438   H463    1.085   .     S
C438   C451    1.394   .     A
C439   O490    1.279   .     A
C439   O488    1.281   .     A
C439   C441    1.454   .     S
C440   C449    1.481   .     S
C440   C458    1.423   .     A
C440   C452    1.419   .     A
C441   C504    1.334   .     S
C441   H540    1.088   .     S
C443   C446    1.453   .     S
C443   C72     1.332   1_565 S
C443   H101    1.088   1_565 S
C444   C445    1.437   .     S
C445   O485    1.274   .     A
C445   O491    1.274   .     A
C446   O492    1.273   .     A
C446   O486    1.273   .     A
C447   C452    1.392   .     A
C447   C456    1.392   .     A
C447   H477    1.080   .     S
C448   O481    1.270   .     A
C448   C451    1.455   .     S
C448   O483    1.280   .     A
C449   O482    1.281   .     A
C449   O484    1.288   .     A
C450   C453    1.507   .     S
C450   C1018   1.418   1_554 S
C452   C454    1.511   .     S
C453   H465    1.110   .     S
C453   H464    1.111   .     S
C453   H1037   1.110   1_554 S
C454   H468    1.110   .     S
C454   H467    1.110   .     S
C454   H466    1.111   .     S
C455   H469    1.110   .     S
C455   H470    1.109   .     S
C455   C1014   1.513   1_554 S
C455   H1029   1.112   1_554 S
C456   C457    1.426   .     A
C456   C1013   1.513   .     S
C457   C458    1.428   .     A
C457   C1017   1.425   .     S
C458   C462    1.421   .     A
C459   C1015   1.425   1_554 S
C459   C1018   1.421   1_554 S
C460   C461    1.399   .     A
C460   C1017   1.421   .     S
C460   C1008   1.418   .     S
C461   H475    1.082   .     S
C461   C462    1.388   .     A
H471   C1013   1.112   .     S
H472   C504    1.086   .     S
H474   C72     1.086   1_565 S
H479   C1011   1.110   .     S
O480   Zn493   1.955   .     S
O480   Zn496   1.935   .     S
O480   Zn495   1.940   .     S
O480   Zn494   1.937   .     S
O481   Zn494   1.930   .     S
O482   Zn496   1.935   .     S
O483   Zn495   1.928   .     S
O484   Zn493   1.924   .     S
O485   Zn493   1.930   .     S
O486   Zn496   1.936   .     S
O487   Zn494   1.928   .     S
O488   Zn495   1.934   .     S
O489   Zn496   1.929   .     S
O490   Zn493   1.926   .     S
O491   Zn494   1.940   .     S
O492   Zn495   1.933   .     S
Br497  C524    1.932   .     S
C498   O551    1.269   .     A
C498   C504    1.436   .     S
C498   O549    1.269   .     A
C499   H538    1.080   .     S
C499   C513    1.389   .     A
C499   C521    1.408   .     A
C500   C512    1.397   .     A
C500   H525    1.085   .     S
C500   C513    1.394   .     A
C501   O552    1.279   .     A
C501   O550    1.281   .     A
C501   C503    1.454   .     S
C502   C511    1.481   .     S
C502   C520    1.423   .     A
C502   C514    1.419   .     A
C503   C380    1.334   1_655 S
C503   H416    1.088   1_655 S
C505   C508    1.453   .     S
C505   C134    1.332   1_565 S
C505   H163    1.088   1_565 S
C506   C507    1.437   .     S
C507   O547    1.274   .     A
C507   O553    1.274   .     A
C508   O554    1.273   .     A
C508   O548    1.273   .     A
C509   C514    1.392   .     A
C509   C518    1.392   .     A
C509   H539    1.080   .     S
C510   O543    1.270   .     A
C510   C513    1.455   .     S
C510   O545    1.280   .     A
C511   O544    1.281   .     A
C511   O546    1.288   .     A
C512   C515    1.507   .     S
C512   C1080   1.418   1_554 S
C514   C516    1.511   .     S
C515   H527    1.110   .     S
C515   H526    1.111   .     S
C515   H1099   1.110   1_554 S
C516   H530    1.110   .     S
C516   H529    1.110   .     S
C516   H528    1.111   .     S
C517   H531    1.110   .     S
C517   H532    1.109   .     S
C517   C1076   1.513   1_554 S
C517   H1091   1.112   1_554 S
C518   C519    1.426   .     A
C518   C1075   1.513   .     S
C519   C520    1.428   .     A
C519   C1079   1.425   .     S
C520   C524    1.421   .     A
C521   C1077   1.425   1_554 S
C521   C1080   1.421   1_554 S
C522   C523    1.399   .     A
C522   C1079   1.421   .     S
C522   C1070   1.418   .     S
C523   H537    1.082   .     S
C523   C524    1.388   .     A
H533   C1075   1.112   .     S
H534   C380    1.086   1_655 S
H536   C134    1.086   1_565 S
H541   C1073   1.110   .     S
O542   Zn555   1.955   .     S
O542   Zn558   1.935   .     S
O542   Zn557   1.940   .     S
O542   Zn556   1.937   .     S
O543   Zn556   1.930   .     S
O544   Zn558   1.935   .     S
O545   Zn557   1.928   .     S
O546   Zn555   1.924   .     S
O547   Zn555   1.930   .     S
O548   Zn558   1.936   .     S
O549   Zn556   1.928   .     S
O550   Zn557   1.934   .     S
O551   Zn558   1.929   .     S
O552   Zn555   1.926   .     S
O553   Zn556   1.940   .     S
O554   Zn557   1.933   .     S
Br559  C586    1.932   .     S
C560   O613    1.269   .     A
C560   C566    1.436   .     S
C560   O611    1.269   .     A
C561   H600    1.080   .     S
C561   C575    1.389   .     A
C561   C583    1.408   .     A
C562   C574    1.397   .     A
C562   H587    1.085   .     S
C562   C575    1.394   .     A
C563   O614    1.279   .     A
C563   O612    1.281   .     A
C563   C565    1.454   .     S
C564   C573    1.481   .     S
C564   C582    1.423   .     A
C564   C576    1.419   .     A
C565   C628    1.334   .     S
C565   H664    1.088   .     S
C566   C689    1.334   1_455 S
C566   H720    1.086   1_455 S
C567   C570    1.453   .     S
C567   C754    1.332   .     S
C567   H783    1.088   .     S
C568   C569    1.437   .     S
C568   C939    1.332   1_545 S
C568   H970    1.086   1_545 S
C569   O609    1.274   .     A
C569   O615    1.274   .     A
C570   O616    1.273   .     A
C570   O610    1.273   .     A
C571   C576    1.392   .     A
C571   C580    1.392   .     A
C571   H601    1.080   .     S
C572   O605    1.270   .     A
C572   C575    1.455   .     S
C572   O607    1.280   .     A
C573   O606    1.281   .     A
C573   O608    1.288   .     A
C574   C577    1.507   .     S
C576   C578    1.511   .     S
C577   H589    1.110   .     S
C577   H588    1.111   .     S
C578   H592    1.110   .     S
C578   H591    1.110   .     S
C578   H590    1.111   .     S
C579   H593    1.110   .     S
C579   H594    1.109   .     S
C580   C581    1.426   .     A
C580   C21     1.513   1_556 S
C581   C582    1.428   .     A
C581   C25     1.425   1_556 S
C582   C586    1.421   .     A
C584   C585    1.399   .     A
C584   C25     1.421   1_556 S
C584   C16     1.418   1_556 S
C585   H599    1.082   .     S
C585   C586    1.388   .     A
H595   C21     1.112   1_556 S
H596   C628    1.086   .     S
H597   C939    1.088   1_545 S
H598   C754    1.086   .     S
H602   C689    1.088   1_455 S
H603   C19     1.110   1_556 S
O604   Zn617   1.955   .     S
O604   Zn620   1.935   .     S
O604   Zn619   1.940   .     S
O604   Zn618   1.937   .     S
O605   Zn618   1.930   .     S
O606   Zn620   1.935   .     S
O607   Zn619   1.928   .     S
O608   Zn617   1.924   .     S
O609   Zn617   1.930   .     S
O610   Zn620   1.936   .     S
O611   Zn618   1.928   .     S
O612   Zn619   1.934   .     S
O613   Zn620   1.929   .     S
O614   Zn617   1.926   .     S
O615   Zn618   1.940   .     S
O616   Zn619   1.933   .     S
Br621  C648    1.932   .     S
C622   O675    1.269   .     A
C622   C628    1.436   .     S
C622   O673    1.269   .     A
C623   H662    1.080   .     S
C623   C637    1.389   .     A
C623   C645    1.408   .     A
C624   C636    1.397   .     A
C624   H649    1.085   .     S
C624   C637    1.394   .     A
C625   O676    1.279   .     A
C625   O674    1.281   .     A
C625   C627    1.454   .     S
C626   C635    1.481   .     S
C626   C644    1.423   .     A
C626   C638    1.419   .     A
C627   C690    1.334   .     S
C627   H726    1.088   .     S
C629   C632    1.453   .     S
C629   C816    1.332   .     S
C629   H845    1.088   .     S
C630   C631    1.437   .     S
C630   C1001   1.332   1_545 S
C630   H1032   1.086   1_545 S
C631   O671    1.274   .     A
C631   O677    1.274   .     A
C632   O678    1.273   .     A
C632   O672    1.273   .     A
C633   C638    1.392   .     A
C633   C642    1.392   .     A
C633   H663    1.080   .     S
C634   O667    1.270   .     A
C634   C637    1.455   .     S
C634   O669    1.280   .     A
C635   O668    1.281   .     A
C635   O670    1.288   .     A
C636   C639    1.507   .     S
C638   C640    1.511   .     S
C639   H651    1.110   .     S
C639   H650    1.111   .     S
C640   H654    1.110   .     S
C640   H653    1.110   .     S
C640   H652    1.111   .     S
C641   H655    1.110   .     S
C641   H656    1.109   .     S
C642   C643    1.426   .     A
C642   C83     1.513   1_556 S
C643   C644    1.428   .     A
C643   C87     1.425   1_556 S
C644   C648    1.421   .     A
C646   C647    1.399   .     A
C646   C87     1.421   1_556 S
C646   C78     1.418   1_556 S
C647   H661    1.082   .     S
C647   C648    1.388   .     A
H657   C83     1.112   1_556 S
H658   C690    1.086   .     S
H659   C1001   1.088   1_545 S
H660   C816    1.086   .     S
H665   C81     1.110   1_556 S
O666   Zn679   1.955   .     S
O666   Zn682   1.935   .     S
O666   Zn681   1.940   .     S
O666   Zn680   1.937   .     S
O667   Zn680   1.930   .     S
O668   Zn682   1.935   .     S
O669   Zn681   1.928   .     S
O670   Zn679   1.924   .     S
O671   Zn679   1.930   .     S
O672   Zn682   1.936   .     S
O673   Zn680   1.928   .     S
O674   Zn681   1.934   .     S
O675   Zn682   1.929   .     S
O676   Zn679   1.926   .     S
O677   Zn680   1.940   .     S
O678   Zn681   1.933   .     S
Br683  C710    1.932   .     S
C684   O737    1.269   .     A
C684   C690    1.436   .     S
C684   O735    1.269   .     A
C685   H724    1.080   .     S
C685   C699    1.389   .     A
C685   C707    1.408   .     A
C686   C698    1.397   .     A
C686   H711    1.085   .     S
C686   C699    1.394   .     A
C687   O738    1.279   .     A
C687   O736    1.281   .     A
C687   C689    1.454   .     S
C688   C697    1.481   .     S
C688   C706    1.423   .     A
C688   C700    1.419   .     A
C689   C566    1.334   1_655 S
C689   H602    1.088   1_655 S
C691   C694    1.453   .     S
C691   C878    1.332   .     S
C691   H907    1.088   .     S
C692   C693    1.437   .     S
C692   C1063   1.332   1_545 S
C692   H1094   1.086   1_545 S
C693   O733    1.274   .     A
C693   O739    1.274   .     A
C694   O740    1.273   .     A
C694   O734    1.273   .     A
C695   C700    1.392   .     A
C695   C704    1.392   .     A
C695   H725    1.080   .     S
C696   O729    1.270   .     A
C696   C699    1.455   .     S
C696   O731    1.280   .     A
C697   O730    1.281   .     A
C697   O732    1.288   .     A
C698   C701    1.507   .     S
C700   C702    1.511   .     S
C701   H713    1.110   .     S
C701   H712    1.111   .     S
C702   H716    1.110   .     S
C702   H715    1.110   .     S
C702   H714    1.111   .     S
C703   H717    1.110   .     S
C703   H718    1.109   .     S
C704   C705    1.426   .     A
C704   C145    1.513   1_556 S
C705   C706    1.428   .     A
C705   C149    1.425   1_556 S
C706   C710    1.421   .     A
C708   C709    1.399   .     A
C708   C149    1.421   1_556 S
C708   C140    1.418   1_556 S
C709   H723    1.082   .     S
C709   C710    1.388   .     A
H719   C145    1.112   1_556 S
H720   C566    1.086   1_655 S
H721   C1063   1.088   1_545 S
H722   C878    1.086   .     S
H727   C143    1.110   1_556 S
O728   Zn741   1.955   .     S
O728   Zn744   1.935   .     S
O728   Zn743   1.940   .     S
O728   Zn742   1.937   .     S
O729   Zn742   1.930   .     S
O730   Zn744   1.935   .     S
O731   Zn743   1.928   .     S
O732   Zn741   1.924   .     S
O733   Zn741   1.930   .     S
O734   Zn744   1.936   .     S
O735   Zn742   1.928   .     S
O736   Zn743   1.934   .     S
O737   Zn744   1.929   .     S
O738   Zn741   1.926   .     S
O739   Zn742   1.940   .     S
O740   Zn743   1.933   .     S
Br745  C772    1.932   .     S
C746   O799    1.269   .     A
C746   C752    1.436   .     S
C746   O797    1.269   .     A
C747   H786    1.080   .     S
C747   C761    1.389   .     A
C747   C769    1.408   .     A
C748   C760    1.397   .     A
C748   H773    1.085   .     S
C748   C761    1.394   .     A
C749   O800    1.279   .     A
C749   O798    1.281   .     A
C749   C751    1.454   .     S
C750   C759    1.481   .     S
C750   C768    1.423   .     A
C750   C762    1.419   .     A
C751   C814    1.334   .     S
C751   H850    1.088   .     S
C752   C875    1.334   1_455 S
C752   H906    1.086   1_455 S
C753   C756    1.453   .     S
C753   C940    1.332   .     S
C753   H969    1.088   .     S
C754   C755    1.437   .     S
C755   O795    1.274   .     A
C755   O801    1.274   .     A
C756   O802    1.273   .     A
C756   O796    1.273   .     A
C757   C762    1.392   .     A
C757   C766    1.392   .     A
C757   H787    1.080   .     S
C758   O791    1.270   .     A
C758   C761    1.455   .     S
C758   O793    1.280   .     A
C759   O792    1.281   .     A
C759   O794    1.288   .     A
C760   C763    1.507   .     S
C762   C764    1.511   .     S
C763   H775    1.110   .     S
C763   H774    1.111   .     S
C764   H778    1.110   .     S
C764   H777    1.110   .     S
C764   H776    1.111   .     S
C765   H779    1.110   .     S
C765   H780    1.109   .     S
C766   C767    1.426   .     A
C766   C207    1.513   1_556 S
C767   C768    1.428   .     A
C767   C211    1.425   1_556 S
C768   C772    1.421   .     A
C770   C771    1.399   .     A
C770   C211    1.421   1_556 S
C770   C202    1.418   1_556 S
C771   H785    1.082   .     S
C771   C772    1.388   .     A
H781   C207    1.112   1_556 S
H782   C814    1.086   .     S
H784   C940    1.086   .     S
H788   C875    1.088   1_455 S
H789   C205    1.110   1_556 S
O790   Zn803   1.955   .     S
O790   Zn806   1.935   .     S
O790   Zn805   1.940   .     S
O790   Zn804   1.937   .     S
O791   Zn804   1.930   .     S
O792   Zn806   1.935   .     S
O793   Zn805   1.928   .     S
O794   Zn803   1.924   .     S
O795   Zn803   1.930   .     S
O796   Zn806   1.936   .     S
O797   Zn804   1.928   .     S
O798   Zn805   1.934   .     S
O799   Zn806   1.929   .     S
O800   Zn803   1.926   .     S
O801   Zn804   1.940   .     S
O802   Zn805   1.933   .     S
Br807  C834    1.932   .     S
C808   O861    1.269   .     A
C808   C814    1.436   .     S
C808   O859    1.269   .     A
C809   H848    1.080   .     S
C809   C823    1.389   .     A
C809   C831    1.408   .     A
C810   C822    1.397   .     A
C810   H835    1.085   .     S
C810   C823    1.394   .     A
C811   O862    1.279   .     A
C811   O860    1.281   .     A
C811   C813    1.454   .     S
C812   C821    1.481   .     S
C812   C830    1.423   .     A
C812   C824    1.419   .     A
C813   C876    1.334   .     S
C813   H912    1.088   .     S
C815   C818    1.453   .     S
C815   C1002   1.332   .     S
C815   H1031   1.088   .     S
C816   C817    1.437   .     S
C817   O857    1.274   .     A
C817   O863    1.274   .     A
C818   O864    1.273   .     A
C818   O858    1.273   .     A
C819   C824    1.392   .     A
C819   C828    1.392   .     A
C819   H849    1.080   .     S
C820   O853    1.270   .     A
C820   C823    1.455   .     S
C820   O855    1.280   .     A
C821   O854    1.281   .     A
C821   O856    1.288   .     A
C822   C825    1.507   .     S
C824   C826    1.511   .     S
C825   H837    1.110   .     S
C825   H836    1.111   .     S
C826   H840    1.110   .     S
C826   H839    1.110   .     S
C826   H838    1.111   .     S
C827   H841    1.110   .     S
C827   H842    1.109   .     S
C828   C829    1.426   .     A
C828   C269    1.513   1_556 S
C829   C830    1.428   .     A
C829   C273    1.425   1_556 S
C830   C834    1.421   .     A
C832   C833    1.399   .     A
C832   C273    1.421   1_556 S
C832   C264    1.418   1_556 S
C833   H847    1.082   .     S
C833   C834    1.388   .     A
H843   C269    1.112   1_556 S
H844   C876    1.086   .     S
H846   C1002   1.086   .     S
H851   C267    1.110   1_556 S
O852   Zn865   1.955   .     S
O852   Zn868   1.935   .     S
O852   Zn867   1.940   .     S
O852   Zn866   1.937   .     S
O853   Zn866   1.930   .     S
O854   Zn868   1.935   .     S
O855   Zn867   1.928   .     S
O856   Zn865   1.924   .     S
O857   Zn865   1.930   .     S
O858   Zn868   1.936   .     S
O859   Zn866   1.928   .     S
O860   Zn867   1.934   .     S
O861   Zn868   1.929   .     S
O862   Zn865   1.926   .     S
O863   Zn866   1.940   .     S
O864   Zn867   1.933   .     S
Br869  C896    1.932   .     S
C870   O923    1.269   .     A
C870   C876    1.436   .     S
C870   O921    1.269   .     A
C871   H910    1.080   .     S
C871   C885    1.389   .     A
C871   C893    1.408   .     A
C872   C884    1.397   .     A
C872   H897    1.085   .     S
C872   C885    1.394   .     A
C873   O924    1.279   .     A
C873   O922    1.281   .     A
C873   C875    1.454   .     S
C874   C883    1.481   .     S
C874   C892    1.423   .     A
C874   C886    1.419   .     A
C875   C752    1.334   1_655 S
C875   H788    1.088   1_655 S
C877   C880    1.453   .     S
C877   C1064   1.332   .     S
C877   H1093   1.088   .     S
C878   C879    1.437   .     S
C879   O919    1.274   .     A
C879   O925    1.274   .     A
C880   O926    1.273   .     A
C880   O920    1.273   .     A
C881   C886    1.392   .     A
C881   C890    1.392   .     A
C881   H911    1.080   .     S
C882   O915    1.270   .     A
C882   C885    1.455   .     S
C882   O917    1.280   .     A
C883   O916    1.281   .     A
C883   O918    1.288   .     A
C884   C887    1.507   .     S
C886   C888    1.511   .     S
C887   H899    1.110   .     S
C887   H898    1.111   .     S
C888   H902    1.110   .     S
C888   H901    1.110   .     S
C888   H900    1.111   .     S
C889   H903    1.110   .     S
C889   H904    1.109   .     S
C890   C891    1.426   .     A
C890   C331    1.513   1_556 S
C891   C892    1.428   .     A
C891   C335    1.425   1_556 S
C892   C896    1.421   .     A
C894   C895    1.399   .     A
C894   C335    1.421   1_556 S
C894   C326    1.418   1_556 S
C895   H909    1.082   .     S
C895   C896    1.388   .     A
H905   C331    1.112   1_556 S
H906   C752    1.086   1_655 S
H908   C1064   1.086   .     S
H913   C329    1.110   1_556 S
O914   Zn927   1.955   .     S
O914   Zn930   1.935   .     S
O914   Zn929   1.940   .     S
O914   Zn928   1.937   .     S
O915   Zn928   1.930   .     S
O916   Zn930   1.935   .     S
O917   Zn929   1.928   .     S
O918   Zn927   1.924   .     S
O919   Zn927   1.930   .     S
O920   Zn930   1.936   .     S
O921   Zn928   1.928   .     S
O922   Zn929   1.934   .     S
O923   Zn930   1.929   .     S
O924   Zn927   1.926   .     S
O925   Zn928   1.940   .     S
O926   Zn929   1.933   .     S
Br931  C958    1.932   .     S
C932   O985    1.269   .     A
C932   C938    1.436   .     S
C932   O983    1.269   .     A
C933   H972    1.080   .     S
C933   C947    1.389   .     A
C933   C955    1.408   .     A
C934   C946    1.397   .     A
C934   H959    1.085   .     S
C934   C947    1.394   .     A
C935   O986    1.279   .     A
C935   O984    1.281   .     A
C935   C937    1.454   .     S
C936   C945    1.481   .     S
C936   C954    1.423   .     A
C936   C948    1.419   .     A
C937   C1000   1.334   .     S
C937   H1036   1.088   .     S
C938   C1061   1.334   1_455 S
C938   H1092   1.086   1_455 S
C939   C942    1.453   .     S
C939   C568    1.332   1_565 S
C939   H597    1.088   1_565 S
C940   C941    1.437   .     S
C941   O981    1.274   .     A
C941   O987    1.274   .     A
C942   O988    1.273   .     A
C942   O982    1.273   .     A
C943   C948    1.392   .     A
C943   C952    1.392   .     A
C943   H973    1.080   .     S
C944   O977    1.270   .     A
C944   C947    1.455   .     S
C944   O979    1.280   .     A
C945   O978    1.281   .     A
C945   O980    1.288   .     A
C946   C949    1.507   .     S
C948   C950    1.511   .     S
C949   H961    1.110   .     S
C949   H960    1.111   .     S
C950   H964    1.110   .     S
C950   H963    1.110   .     S
C950   H962    1.111   .     S
C951   H965    1.110   .     S
C951   H966    1.109   .     S
C952   C953    1.426   .     A
C952   C393    1.513   1_556 S
C953   C954    1.428   .     A
C953   C397    1.425   1_556 S
C954   C958    1.421   .     A
C956   C957    1.399   .     A
C956   C397    1.421   1_556 S
C956   C388    1.418   1_556 S
C957   H971    1.082   .     S
C957   C958    1.388   .     A
H967   C393    1.112   1_556 S
H968   C1000   1.086   .     S
H970   C568    1.086   1_565 S
H974   C1061   1.088   1_455 S
H975   C391    1.110   1_556 S
O976   Zn989   1.955   .     S
O976   Zn992   1.935   .     S
O976   Zn991   1.940   .     S
O976   Zn990   1.937   .     S
O977   Zn990   1.930   .     S
O978   Zn992   1.935   .     S
O979   Zn991   1.928   .     S
O980   Zn989   1.924   .     S
O981   Zn989   1.930   .     S
O982   Zn992   1.936   .     S
O983   Zn990   1.928   .     S
O984   Zn991   1.934   .     S
O985   Zn992   1.929   .     S
O986   Zn989   1.926   .     S
O987   Zn990   1.940   .     S
O988   Zn991   1.933   .     S
Br993  C1020   1.932   .     S
C994   O1047   1.269   .     A
C994   C1000   1.436   .     S
C994   O1045   1.269   .     A
C995   H1034   1.080   .     S
C995   C1009   1.389   .     A
C995   C1017   1.408   .     A
C996   C1008   1.397   .     A
C996   H1021   1.085   .     S
C996   C1009   1.394   .     A
C997   O1048   1.279   .     A
C997   O1046   1.281   .     A
C997   C999    1.454   .     S
C998   C1007   1.481   .     S
C998   C1016   1.423   .     A
C998   C1010   1.419   .     A
C999   C1062   1.334   .     S
C999   H1098   1.088   .     S
C1001  C1004   1.453   .     S
C1001  C630    1.332   1_565 S
C1001  H659    1.088   1_565 S
C1002  C1003   1.437   .     S
C1003  O1043   1.274   .     A
C1003  O1049   1.274   .     A
C1004  O1050   1.273   .     A
C1004  O1044   1.273   .     A
C1005  C1010   1.392   .     A
C1005  C1014   1.392   .     A
C1005  H1035   1.080   .     S
C1006  O1039   1.270   .     A
C1006  C1009   1.455   .     S
C1006  O1041   1.280   .     A
C1007  O1040   1.281   .     A
C1007  O1042   1.288   .     A
C1008  C1011   1.507   .     S
C1010  C1012   1.511   .     S
C1011  H1023   1.110   .     S
C1011  H1022   1.111   .     S
C1012  H1026   1.110   .     S
C1012  H1025   1.110   .     S
C1012  H1024   1.111   .     S
C1013  H1027   1.110   .     S
C1013  H1028   1.109   .     S
C1014  C1015   1.426   .     A
C1014  C455    1.513   1_556 S
C1015  C1016   1.428   .     A
C1015  C459    1.425   1_556 S
C1016  C1020   1.421   .     A
C1018  C1019   1.399   .     A
C1018  C459    1.421   1_556 S
C1018  C450    1.418   1_556 S
C1019  H1033   1.082   .     S
C1019  C1020   1.388   .     A
H1029  C455    1.112   1_556 S
H1030  C1062   1.086   .     S
H1032  C630    1.086   1_565 S
H1037  C453    1.110   1_556 S
O1038  Zn1051  1.955   .     S
O1038  Zn1054  1.935   .     S
O1038  Zn1053  1.940   .     S
O1038  Zn1052  1.937   .     S
O1039  Zn1052  1.930   .     S
O1040  Zn1054  1.935   .     S
O1041  Zn1053  1.928   .     S
O1042  Zn1051  1.924   .     S
O1043  Zn1051  1.930   .     S
O1044  Zn1054  1.936   .     S
O1045  Zn1052  1.928   .     S
O1046  Zn1053  1.934   .     S
O1047  Zn1054  1.929   .     S
O1048  Zn1051  1.926   .     S
O1049  Zn1052  1.940   .     S
O1050  Zn1053  1.933   .     S
Br1055 C1082   1.932   .     S
C1056  O1109   1.269   .     A
C1056  C1062   1.436   .     S
C1056  O1107   1.269   .     A
C1057  H1096   1.080   .     S
C1057  C1071   1.389   .     A
C1057  C1079   1.408   .     A
C1058  C1070   1.397   .     A
C1058  H1083   1.085   .     S
C1058  C1071   1.394   .     A
C1059  O1110   1.279   .     A
C1059  O1108   1.281   .     A
C1059  C1061   1.454   .     S
C1060  C1069   1.481   .     S
C1060  C1078   1.423   .     A
C1060  C1072   1.419   .     A
C1061  C938    1.334   1_655 S
C1061  H974    1.088   1_655 S
C1063  C1066   1.453   .     S
C1063  C692    1.332   1_565 S
C1063  H721    1.088   1_565 S
C1064  C1065   1.437   .     S
C1065  O1105   1.274   .     A
C1065  O1111   1.274   .     A
C1066  O1112   1.273   .     A
C1066  O1106   1.273   .     A
C1067  C1072   1.392   .     A
C1067  C1076   1.392   .     A
C1067  H1097   1.080   .     S
C1068  O1101   1.270   .     A
C1068  C1071   1.455   .     S
C1068  O1103   1.280   .     A
C1069  O1102   1.281   .     A
C1069  O1104   1.288   .     A
C1070  C1073   1.507   .     S
C1072  C1074   1.511   .     S
C1073  H1085   1.110   .     S
C1073  H1084   1.111   .     S
C1074  H1088   1.110   .     S
C1074  H1087   1.110   .     S
C1074  H1086   1.111   .     S
C1075  H1089   1.110   .     S
C1075  H1090   1.109   .     S
C1076  C1077   1.426   .     A
C1076  C517    1.513   1_556 S
C1077  C1078   1.428   .     A
C1077  C521    1.425   1_556 S
C1078  C1082   1.421   .     A
C1080  C1081   1.399   .     A
C1080  C521    1.421   1_556 S
C1080  C512    1.418   1_556 S
C1081  H1095   1.082   .     S
C1081  C1082   1.388   .     A
H1091  C517    1.112   1_556 S
H1092  C938    1.086   1_655 S
H1094  C692    1.086   1_565 S
H1099  C515    1.110   1_556 S
O1100  Zn1113  1.955   .     S
O1100  Zn1116  1.935   .     S
O1100  Zn1115  1.940   .     S
O1100  Zn1114  1.937   .     S
O1101  Zn1114  1.930   .     S
O1102  Zn1116  1.935   .     S
O1103  Zn1115  1.928   .     S
O1104  Zn1113  1.924   .     S
O1105  Zn1113  1.930   .     S
O1106  Zn1116  1.936   .     S
O1107  Zn1114  1.928   .     S
O1108  Zn1115  1.934   .     S
O1109  Zn1116  1.929   .     S
O1110  Zn1113  1.926   .     S
O1111  Zn1114  1.940   .     S
O1112  Zn1115  1.933   .     S
