data_str_m1_o10_o16_pcu_sym.213
_audit_creation_date              2020-01-03
_audit_creation_method            'Materials Studio'
_symmetry_space_group_name_H-M    'P1'
_symmetry_Int_Tables_number       1
_symmetry_cell_setting            triclinic
loop_
_symmetry_equiv_pos_as_xyz
  x,y,z
_cell_length_a                    32.5321
_cell_length_b                    32.5240
_cell_length_c                    31.0034
_cell_angle_alpha                 96.8052
_cell_angle_beta                  75.1471
_cell_angle_gamma                 98.6233
loop_
_atom_site_label
_atom_site_type_symbol
_atom_site_fract_x
_atom_site_fract_y
_atom_site_fract_z
_atom_site_U_iso_or_equiv
_atom_site_adp_type
_atom_site_occupancy
C1     C     0.05270   0.15949   0.26000   0.00000  Uiso   1.00
C2     C     0.18222   0.16605   0.05550   0.00000  Uiso   1.00
C3     C     0.19381   0.09605   0.06440   0.00000  Uiso   1.00
C4     C     0.28072   0.17377   0.24007   0.00000  Uiso   1.00
C5     C     0.14152   0.19311   0.42026   0.00000  Uiso   1.00
C6     C     0.32652   0.17653   0.23620   0.00000  Uiso   1.00
C7     C     0.00746   0.15678   0.26373   0.00000  Uiso   1.00
C8     C     0.18041   0.32244   0.23669   0.00000  Uiso   1.00
C9     C     0.15168   0.01168   0.26368   0.00000  Uiso   1.00
C10    C     0.15605   0.05581   0.26016   0.00000  Uiso   1.00
C11    C     0.17654   0.27786   0.24022   0.00000  Uiso   1.00
C12    C     0.12447   0.24180   0.48594   0.00000  Uiso   1.00
C13    C     0.18505   0.14777   0.12933   0.00000  Uiso   1.00
C14    C     0.14822   0.18434   0.37112   0.00000  Uiso   1.00
C15    C     0.18714   0.08268   0.02231   0.00000  Uiso   1.00
C16    C     0.19086   0.13759   0.08129   0.00000  Uiso   1.00
C17    C     0.12911   0.23196   0.44030   0.00000  Uiso   1.00
C18    C     0.13541   0.21509   0.01188   0.00000  Uiso   1.00
C19    C     0.15252   0.17778   0.49192   0.00000  Uiso   1.00
C20    C     0.14993   0.16450   0.44727   0.00000  Uiso   1.00
C21    C     0.16931   0.15179   0.01542   0.00000  Uiso   1.00
C22    C     0.17411   0.10978   0.49778   0.00000  Uiso   1.00
C23    C     0.16508   0.09497   0.45645   0.00000  Uiso   1.00
C24    C     0.15352   0.12244   0.43152   0.00000  Uiso   1.00
F25    F     0.20216   0.06812   0.08933   0.00000  Uiso   1.00
F26    F     0.18806   0.20719   0.06939   0.00000  Uiso   1.00
F27    F     0.12067   0.26039   0.41602   0.00000  Uiso   1.00
F28    F     0.12381   0.22368   0.05690   0.00000  Uiso   1.00
H29    H     0.31926   0.13840   0.28934   0.00000  Uiso   1.00
H30    H     0.20694   0.00369   0.21192   0.00000  Uiso   1.00
H31    H     0.12471   0.33120   0.28847   0.00000  Uiso   1.00
H32    H     0.19036   0.05046   0.00997   0.00000  Uiso   1.00
H33    H     0.11209   0.27051   0.00150   0.00000  Uiso   1.00
H34    H     0.14517   0.10970   0.40068   0.00000  Uiso   1.00
H35    H     0.01543   0.19473   0.21083   0.00000  Uiso   1.00
H36    H     0.16110   0.04837   0.41116   0.00000  Uiso   1.00
O37    O     0.16667   0.16667   0.25000   0.00000  Uiso   1.00
O38    O     0.15451   0.12637   0.15459   0.00000  Uiso   1.00
O39    O     0.12940   0.20391   0.34968   0.00000  Uiso   1.00
O40    O     0.20824   0.17759   0.14606   0.00000  Uiso   1.00
O41    O     0.17451   0.15880   0.34968   0.00000  Uiso   1.00
O42    O     0.16810   0.05361   0.44080   0.00000  Uiso   1.00
O43    O     0.17930   0.08019   0.28213   0.00000  Uiso   1.00
O44    O     0.14632   0.26085   0.27014   0.00000  Uiso   1.00
O45    O     0.07412   0.13291   0.23413   0.00000  Uiso   1.00
O46    O     0.26693   0.19272   0.21361   0.00000  Uiso   1.00
O47    O     0.07071   0.18878   0.28213   0.00000  Uiso   1.00
O48    O     0.25491   0.15226   0.27013   0.00000  Uiso   1.00
O49    O     0.13760   0.06944   0.23413   0.00000  Uiso   1.00
O50    O     0.20345   0.25620   0.21361   0.00000  Uiso   1.00
Zn51   Zn    0.19338   0.13994   0.28734   0.00000  Uiso   1.00
Zn52   Zn    0.13379   0.12458   0.21876   0.00000  Uiso   1.00
Zn53   Zn    0.21056   0.19775   0.20657   0.00000  Uiso   1.00
Zn54   Zn    0.12893   0.20439   0.28734   0.00000  Uiso   1.00
C55    C     0.38603   0.15949   0.26000   0.00000  Uiso   1.00
C56    C     0.51555   0.16605   0.05550   0.00000  Uiso   1.00
C57    C     0.52715   0.09605   0.06440   0.00000  Uiso   1.00
C58    C     0.61405   0.17377   0.24007   0.00000  Uiso   1.00
C59    C     0.47485   0.19311   0.42026   0.00000  Uiso   1.00
C60    C     0.65986   0.17653   0.23620   0.00000  Uiso   1.00
C61    C     0.34079   0.15678   0.26373   0.00000  Uiso   1.00
C62    C     0.51374   0.32244   0.23669   0.00000  Uiso   1.00
C63    C     0.48501   0.01168   0.26368   0.00000  Uiso   1.00
C64    C     0.48938   0.05581   0.26016   0.00000  Uiso   1.00
C65    C     0.50987   0.27786   0.24022   0.00000  Uiso   1.00
C66    C     0.45780   0.24180   0.48594   0.00000  Uiso   1.00
C67    C     0.51838   0.14777   0.12933   0.00000  Uiso   1.00
C68    C     0.48155   0.18434   0.37112   0.00000  Uiso   1.00
C69    C     0.52048   0.08268   0.02231   0.00000  Uiso   1.00
C70    C     0.52419   0.13759   0.08129   0.00000  Uiso   1.00
C71    C     0.46244   0.23196   0.44030   0.00000  Uiso   1.00
C72    C     0.46874   0.21509   0.01188   0.00000  Uiso   1.00
C73    C     0.48585   0.17778   0.49192   0.00000  Uiso   1.00
C74    C     0.48326   0.16450   0.44727   0.00000  Uiso   1.00
C75    C     0.50264   0.15179   0.01542   0.00000  Uiso   1.00
C76    C     0.50745   0.10978   0.49778   0.00000  Uiso   1.00
C77    C     0.49841   0.09497   0.45645   0.00000  Uiso   1.00
C78    C     0.48685   0.12244   0.43152   0.00000  Uiso   1.00
F79    F     0.53549   0.06812   0.08933   0.00000  Uiso   1.00
F80    F     0.52139   0.20719   0.06939   0.00000  Uiso   1.00
F81    F     0.45400   0.26039   0.41602   0.00000  Uiso   1.00
F82    F     0.45714   0.22368   0.05690   0.00000  Uiso   1.00
H83    H     0.65260   0.13840   0.28934   0.00000  Uiso   1.00
H84    H     0.54027   0.00369   0.21192   0.00000  Uiso   1.00
H85    H     0.45804   0.33120   0.28847   0.00000  Uiso   1.00
H86    H     0.52369   0.05046   0.00997   0.00000  Uiso   1.00
H87    H     0.44542   0.27051   0.00150   0.00000  Uiso   1.00
H88    H     0.47850   0.10970   0.40068   0.00000  Uiso   1.00
H89    H     0.34877   0.19473   0.21083   0.00000  Uiso   1.00
H90    H     0.49443   0.04837   0.41116   0.00000  Uiso   1.00
O91    O     0.50000   0.16667   0.25000   0.00000  Uiso   1.00
O92    O     0.48784   0.12637   0.15459   0.00000  Uiso   1.00
O93    O     0.46274   0.20391   0.34968   0.00000  Uiso   1.00
O94    O     0.54157   0.17759   0.14606   0.00000  Uiso   1.00
O95    O     0.50785   0.15880   0.34968   0.00000  Uiso   1.00
O96    O     0.50144   0.05361   0.44080   0.00000  Uiso   1.00
O97    O     0.51264   0.08019   0.28213   0.00000  Uiso   1.00
O98    O     0.47965   0.26085   0.27014   0.00000  Uiso   1.00
O99    O     0.40745   0.13291   0.23413   0.00000  Uiso   1.00
O100   O     0.60026   0.19272   0.21361   0.00000  Uiso   1.00
O101   O     0.40405   0.18878   0.28213   0.00000  Uiso   1.00
O102   O     0.58824   0.15226   0.27013   0.00000  Uiso   1.00
O103   O     0.47093   0.06944   0.23413   0.00000  Uiso   1.00
O104   O     0.53678   0.25620   0.21361   0.00000  Uiso   1.00
Zn105  Zn    0.52672   0.13994   0.28734   0.00000  Uiso   1.00
Zn106  Zn    0.46713   0.12458   0.21876   0.00000  Uiso   1.00
Zn107  Zn    0.54389   0.19775   0.20657   0.00000  Uiso   1.00
Zn108  Zn    0.46226   0.20439   0.28734   0.00000  Uiso   1.00
C109   C     0.71937   0.15949   0.26000   0.00000  Uiso   1.00
C110   C     0.84888   0.16605   0.05550   0.00000  Uiso   1.00
C111   C     0.86048   0.09605   0.06440   0.00000  Uiso   1.00
C112   C     0.94739   0.17377   0.24007   0.00000  Uiso   1.00
C113   C     0.80818   0.19311   0.42026   0.00000  Uiso   1.00
C114   C     0.99319   0.17653   0.23620   0.00000  Uiso   1.00
C115   C     0.67412   0.15678   0.26373   0.00000  Uiso   1.00
C116   C     0.84708   0.32244   0.23669   0.00000  Uiso   1.00
C117   C     0.81834   0.01168   0.26368   0.00000  Uiso   1.00
C118   C     0.82272   0.05581   0.26016   0.00000  Uiso   1.00
C119   C     0.84320   0.27786   0.24022   0.00000  Uiso   1.00
C120   C     0.79113   0.24180   0.48594   0.00000  Uiso   1.00
C121   C     0.85171   0.14777   0.12933   0.00000  Uiso   1.00
C122   C     0.81489   0.18434   0.37112   0.00000  Uiso   1.00
C123   C     0.85381   0.08268   0.02231   0.00000  Uiso   1.00
C124   C     0.85752   0.13759   0.08129   0.00000  Uiso   1.00
C125   C     0.79577   0.23196   0.44030   0.00000  Uiso   1.00
C126   C     0.80207   0.21509   0.01188   0.00000  Uiso   1.00
C127   C     0.81918   0.17778   0.49192   0.00000  Uiso   1.00
C128   C     0.81659   0.16450   0.44727   0.00000  Uiso   1.00
C129   C     0.83597   0.15179   0.01542   0.00000  Uiso   1.00
C130   C     0.84078   0.10978   0.49778   0.00000  Uiso   1.00
C131   C     0.83174   0.09497   0.45645   0.00000  Uiso   1.00
C132   C     0.82019   0.12244   0.43152   0.00000  Uiso   1.00
F133   F     0.86882   0.06812   0.08933   0.00000  Uiso   1.00
F134   F     0.85473   0.20719   0.06939   0.00000  Uiso   1.00
F135   F     0.78734   0.26039   0.41602   0.00000  Uiso   1.00
F136   F     0.79048   0.22368   0.05690   0.00000  Uiso   1.00
H137   H     0.98593   0.13840   0.28934   0.00000  Uiso   1.00
H138   H     0.87361   0.00369   0.21192   0.00000  Uiso   1.00
H139   H     0.79137   0.33120   0.28847   0.00000  Uiso   1.00
H140   H     0.85702   0.05046   0.00997   0.00000  Uiso   1.00
H141   H     0.77876   0.27051   0.00150   0.00000  Uiso   1.00
H142   H     0.81183   0.10970   0.40068   0.00000  Uiso   1.00
H143   H     0.68210   0.19473   0.21083   0.00000  Uiso   1.00
H144   H     0.82776   0.04837   0.41116   0.00000  Uiso   1.00
O145   O     0.83333   0.16667   0.25000   0.00000  Uiso   1.00
O146   O     0.82118   0.12637   0.15459   0.00000  Uiso   1.00
O147   O     0.79607   0.20391   0.34968   0.00000  Uiso   1.00
O148   O     0.87491   0.17759   0.14606   0.00000  Uiso   1.00
O149   O     0.84118   0.15880   0.34968   0.00000  Uiso   1.00
O150   O     0.83477   0.05361   0.44080   0.00000  Uiso   1.00
O151   O     0.84597   0.08019   0.28213   0.00000  Uiso   1.00
O152   O     0.81298   0.26085   0.27014   0.00000  Uiso   1.00
O153   O     0.74078   0.13291   0.23413   0.00000  Uiso   1.00
O154   O     0.93360   0.19272   0.21361   0.00000  Uiso   1.00
O155   O     0.73738   0.18878   0.28213   0.00000  Uiso   1.00
O156   O     0.92158   0.15226   0.27013   0.00000  Uiso   1.00
O157   O     0.80426   0.06944   0.23413   0.00000  Uiso   1.00
O158   O     0.87012   0.25620   0.21361   0.00000  Uiso   1.00
Zn159  Zn    0.86005   0.13994   0.28734   0.00000  Uiso   1.00
Zn160  Zn    0.80046   0.12458   0.21876   0.00000  Uiso   1.00
Zn161  Zn    0.87723   0.19775   0.20657   0.00000  Uiso   1.00
Zn162  Zn    0.79560   0.20439   0.28734   0.00000  Uiso   1.00
C163   C     0.05270   0.49282   0.26000   0.00000  Uiso   1.00
C164   C     0.18222   0.49938   0.05550   0.00000  Uiso   1.00
C165   C     0.19381   0.42938   0.06440   0.00000  Uiso   1.00
C166   C     0.28072   0.50710   0.24007   0.00000  Uiso   1.00
C167   C     0.14152   0.52645   0.42026   0.00000  Uiso   1.00
C168   C     0.32652   0.50986   0.23620   0.00000  Uiso   1.00
C169   C     0.00746   0.49011   0.26373   0.00000  Uiso   1.00
C170   C     0.18041   0.65577   0.23669   0.00000  Uiso   1.00
C171   C     0.15168   0.34501   0.26368   0.00000  Uiso   1.00
C172   C     0.15605   0.38914   0.26016   0.00000  Uiso   1.00
C173   C     0.17654   0.61120   0.24022   0.00000  Uiso   1.00
C174   C     0.12447   0.57514   0.48594   0.00000  Uiso   1.00
C175   C     0.18505   0.48111   0.12933   0.00000  Uiso   1.00
C176   C     0.14822   0.51767   0.37112   0.00000  Uiso   1.00
C177   C     0.18714   0.41602   0.02231   0.00000  Uiso   1.00
C178   C     0.19086   0.47092   0.08129   0.00000  Uiso   1.00
C179   C     0.12911   0.56529   0.44030   0.00000  Uiso   1.00
C180   C     0.13541   0.54842   0.01188   0.00000  Uiso   1.00
C181   C     0.15252   0.51111   0.49192   0.00000  Uiso   1.00
C182   C     0.14993   0.49783   0.44727   0.00000  Uiso   1.00
C183   C     0.16931   0.48513   0.01542   0.00000  Uiso   1.00
C184   C     0.17411   0.44311   0.49778   0.00000  Uiso   1.00
C185   C     0.16508   0.42830   0.45645   0.00000  Uiso   1.00
C186   C     0.15352   0.45577   0.43152   0.00000  Uiso   1.00
F187   F     0.20216   0.40145   0.08933   0.00000  Uiso   1.00
F188   F     0.18806   0.54052   0.06939   0.00000  Uiso   1.00
F189   F     0.12067   0.59372   0.41602   0.00000  Uiso   1.00
F190   F     0.12381   0.55701   0.05690   0.00000  Uiso   1.00
H191   H     0.31926   0.47173   0.28934   0.00000  Uiso   1.00
H192   H     0.20694   0.33702   0.21192   0.00000  Uiso   1.00
H193   H     0.12471   0.66453   0.28847   0.00000  Uiso   1.00
H194   H     0.19036   0.38379   0.00997   0.00000  Uiso   1.00
H195   H     0.11209   0.60384   0.00150   0.00000  Uiso   1.00
H196   H     0.14517   0.44303   0.40068   0.00000  Uiso   1.00
H197   H     0.01543   0.52807   0.21083   0.00000  Uiso   1.00
H198   H     0.16110   0.38170   0.41116   0.00000  Uiso   1.00
O199   O     0.16667   0.50000   0.25000   0.00000  Uiso   1.00
O200   O     0.15451   0.45970   0.15459   0.00000  Uiso   1.00
O201   O     0.12940   0.53724   0.34968   0.00000  Uiso   1.00
O202   O     0.20824   0.51092   0.14606   0.00000  Uiso   1.00
O203   O     0.17451   0.49213   0.34968   0.00000  Uiso   1.00
O204   O     0.16810   0.38694   0.44080   0.00000  Uiso   1.00
O205   O     0.17930   0.41352   0.28213   0.00000  Uiso   1.00
O206   O     0.14632   0.59418   0.27014   0.00000  Uiso   1.00
O207   O     0.07412   0.46625   0.23413   0.00000  Uiso   1.00
O208   O     0.26693   0.52605   0.21361   0.00000  Uiso   1.00
O209   O     0.07071   0.52211   0.28213   0.00000  Uiso   1.00
O210   O     0.25491   0.48559   0.27013   0.00000  Uiso   1.00
O211   O     0.13760   0.40277   0.23413   0.00000  Uiso   1.00
O212   O     0.20345   0.58953   0.21361   0.00000  Uiso   1.00
Zn213  Zn    0.19338   0.47327   0.28734   0.00000  Uiso   1.00
Zn214  Zn    0.13379   0.45791   0.21876   0.00000  Uiso   1.00
Zn215  Zn    0.21056   0.53109   0.20657   0.00000  Uiso   1.00
Zn216  Zn    0.12893   0.53773   0.28734   0.00000  Uiso   1.00
C217   C     0.38603   0.49282   0.26000   0.00000  Uiso   1.00
C218   C     0.51555   0.49938   0.05550   0.00000  Uiso   1.00
C219   C     0.52715   0.42938   0.06440   0.00000  Uiso   1.00
C220   C     0.61405   0.50710   0.24007   0.00000  Uiso   1.00
C221   C     0.47485   0.52645   0.42026   0.00000  Uiso   1.00
C222   C     0.65986   0.50986   0.23620   0.00000  Uiso   1.00
C223   C     0.34079   0.49011   0.26373   0.00000  Uiso   1.00
C224   C     0.51374   0.65577   0.23669   0.00000  Uiso   1.00
C225   C     0.48501   0.34501   0.26368   0.00000  Uiso   1.00
C226   C     0.48938   0.38914   0.26016   0.00000  Uiso   1.00
C227   C     0.50987   0.61120   0.24022   0.00000  Uiso   1.00
C228   C     0.45780   0.57514   0.48594   0.00000  Uiso   1.00
C229   C     0.51838   0.48111   0.12933   0.00000  Uiso   1.00
C230   C     0.48155   0.51767   0.37112   0.00000  Uiso   1.00
C231   C     0.52048   0.41602   0.02231   0.00000  Uiso   1.00
C232   C     0.52419   0.47092   0.08129   0.00000  Uiso   1.00
C233   C     0.46244   0.56529   0.44030   0.00000  Uiso   1.00
C234   C     0.46874   0.54842   0.01188   0.00000  Uiso   1.00
C235   C     0.48585   0.51111   0.49192   0.00000  Uiso   1.00
C236   C     0.48326   0.49783   0.44727   0.00000  Uiso   1.00
C237   C     0.50264   0.48513   0.01542   0.00000  Uiso   1.00
C238   C     0.50745   0.44311   0.49778   0.00000  Uiso   1.00
C239   C     0.49841   0.42830   0.45645   0.00000  Uiso   1.00
C240   C     0.48685   0.45577   0.43152   0.00000  Uiso   1.00
F241   F     0.53549   0.40145   0.08933   0.00000  Uiso   1.00
F242   F     0.52139   0.54052   0.06939   0.00000  Uiso   1.00
F243   F     0.45400   0.59372   0.41602   0.00000  Uiso   1.00
F244   F     0.45714   0.55701   0.05690   0.00000  Uiso   1.00
H245   H     0.65260   0.47173   0.28934   0.00000  Uiso   1.00
H246   H     0.54027   0.33702   0.21192   0.00000  Uiso   1.00
H247   H     0.45804   0.66453   0.28847   0.00000  Uiso   1.00
H248   H     0.52369   0.38379   0.00997   0.00000  Uiso   1.00
H249   H     0.44542   0.60384   0.00150   0.00000  Uiso   1.00
H250   H     0.47850   0.44303   0.40068   0.00000  Uiso   1.00
H251   H     0.34877   0.52807   0.21083   0.00000  Uiso   1.00
H252   H     0.49443   0.38170   0.41116   0.00000  Uiso   1.00
O253   O     0.50000   0.50000   0.25000   0.00000  Uiso   1.00
O254   O     0.48784   0.45970   0.15459   0.00000  Uiso   1.00
O255   O     0.46274   0.53724   0.34968   0.00000  Uiso   1.00
O256   O     0.54157   0.51092   0.14606   0.00000  Uiso   1.00
O257   O     0.50785   0.49213   0.34968   0.00000  Uiso   1.00
O258   O     0.50144   0.38694   0.44080   0.00000  Uiso   1.00
O259   O     0.51264   0.41352   0.28213   0.00000  Uiso   1.00
O260   O     0.47965   0.59418   0.27014   0.00000  Uiso   1.00
O261   O     0.40745   0.46625   0.23413   0.00000  Uiso   1.00
O262   O     0.60026   0.52605   0.21361   0.00000  Uiso   1.00
O263   O     0.40405   0.52211   0.28213   0.00000  Uiso   1.00
O264   O     0.58824   0.48559   0.27013   0.00000  Uiso   1.00
O265   O     0.47093   0.40277   0.23413   0.00000  Uiso   1.00
O266   O     0.53678   0.58953   0.21361   0.00000  Uiso   1.00
Zn267  Zn    0.52672   0.47327   0.28734   0.00000  Uiso   1.00
Zn268  Zn    0.46713   0.45791   0.21876   0.00000  Uiso   1.00
Zn269  Zn    0.54389   0.53109   0.20657   0.00000  Uiso   1.00
Zn270  Zn    0.46226   0.53773   0.28734   0.00000  Uiso   1.00
C271   C     0.71937   0.49282   0.26000   0.00000  Uiso   1.00
C272   C     0.84888   0.49938   0.05550   0.00000  Uiso   1.00
C273   C     0.86048   0.42938   0.06440   0.00000  Uiso   1.00
C274   C     0.94739   0.50710   0.24007   0.00000  Uiso   1.00
C275   C     0.80818   0.52645   0.42026   0.00000  Uiso   1.00
C276   C     0.99319   0.50986   0.23620   0.00000  Uiso   1.00
C277   C     0.67412   0.49011   0.26373   0.00000  Uiso   1.00
C278   C     0.84708   0.65577   0.23669   0.00000  Uiso   1.00
C279   C     0.81834   0.34501   0.26368   0.00000  Uiso   1.00
C280   C     0.82272   0.38914   0.26016   0.00000  Uiso   1.00
C281   C     0.84320   0.61120   0.24022   0.00000  Uiso   1.00
C282   C     0.79113   0.57514   0.48594   0.00000  Uiso   1.00
C283   C     0.85171   0.48111   0.12933   0.00000  Uiso   1.00
C284   C     0.81489   0.51767   0.37112   0.00000  Uiso   1.00
C285   C     0.85381   0.41602   0.02231   0.00000  Uiso   1.00
C286   C     0.85752   0.47092   0.08129   0.00000  Uiso   1.00
C287   C     0.79577   0.56529   0.44030   0.00000  Uiso   1.00
C288   C     0.80207   0.54842   0.01188   0.00000  Uiso   1.00
C289   C     0.81918   0.51111   0.49192   0.00000  Uiso   1.00
C290   C     0.81659   0.49783   0.44727   0.00000  Uiso   1.00
C291   C     0.83597   0.48513   0.01542   0.00000  Uiso   1.00
C292   C     0.84078   0.44311   0.49778   0.00000  Uiso   1.00
C293   C     0.83174   0.42830   0.45645   0.00000  Uiso   1.00
C294   C     0.82019   0.45577   0.43152   0.00000  Uiso   1.00
F295   F     0.86882   0.40145   0.08933   0.00000  Uiso   1.00
F296   F     0.85473   0.54052   0.06939   0.00000  Uiso   1.00
F297   F     0.78734   0.59372   0.41602   0.00000  Uiso   1.00
F298   F     0.79048   0.55701   0.05690   0.00000  Uiso   1.00
H299   H     0.98593   0.47173   0.28934   0.00000  Uiso   1.00
H300   H     0.87361   0.33702   0.21192   0.00000  Uiso   1.00
H301   H     0.79137   0.66453   0.28847   0.00000  Uiso   1.00
H302   H     0.85702   0.38379   0.00997   0.00000  Uiso   1.00
H303   H     0.77876   0.60384   0.00150   0.00000  Uiso   1.00
H304   H     0.81183   0.44303   0.40068   0.00000  Uiso   1.00
H305   H     0.68210   0.52807   0.21083   0.00000  Uiso   1.00
H306   H     0.82776   0.38170   0.41116   0.00000  Uiso   1.00
O307   O     0.83333   0.50000   0.25000   0.00000  Uiso   1.00
O308   O     0.82118   0.45970   0.15459   0.00000  Uiso   1.00
O309   O     0.79607   0.53724   0.34968   0.00000  Uiso   1.00
O310   O     0.87491   0.51092   0.14606   0.00000  Uiso   1.00
O311   O     0.84118   0.49213   0.34968   0.00000  Uiso   1.00
O312   O     0.83477   0.38694   0.44080   0.00000  Uiso   1.00
O313   O     0.84597   0.41352   0.28213   0.00000  Uiso   1.00
O314   O     0.81298   0.59418   0.27014   0.00000  Uiso   1.00
O315   O     0.74078   0.46625   0.23413   0.00000  Uiso   1.00
O316   O     0.93360   0.52605   0.21361   0.00000  Uiso   1.00
O317   O     0.73738   0.52211   0.28213   0.00000  Uiso   1.00
O318   O     0.92158   0.48559   0.27013   0.00000  Uiso   1.00
O319   O     0.80426   0.40277   0.23413   0.00000  Uiso   1.00
O320   O     0.87012   0.58953   0.21361   0.00000  Uiso   1.00
Zn321  Zn    0.86005   0.47327   0.28734   0.00000  Uiso   1.00
Zn322  Zn    0.80046   0.45791   0.21876   0.00000  Uiso   1.00
Zn323  Zn    0.87723   0.53109   0.20657   0.00000  Uiso   1.00
Zn324  Zn    0.79560   0.53773   0.28734   0.00000  Uiso   1.00
C325   C     0.05270   0.82615   0.26000   0.00000  Uiso   1.00
C326   C     0.18222   0.83271   0.05550   0.00000  Uiso   1.00
C327   C     0.19381   0.76271   0.06440   0.00000  Uiso   1.00
C328   C     0.28072   0.84043   0.24007   0.00000  Uiso   1.00
C329   C     0.14152   0.85978   0.42026   0.00000  Uiso   1.00
C330   C     0.32652   0.84320   0.23620   0.00000  Uiso   1.00
C331   C     0.00746   0.82344   0.26373   0.00000  Uiso   1.00
C332   C     0.18041   0.98910   0.23669   0.00000  Uiso   1.00
C333   C     0.15168   0.67834   0.26368   0.00000  Uiso   1.00
C334   C     0.15605   0.72247   0.26016   0.00000  Uiso   1.00
C335   C     0.17654   0.94453   0.24022   0.00000  Uiso   1.00
C336   C     0.12447   0.90847   0.48594   0.00000  Uiso   1.00
C337   C     0.18505   0.81444   0.12933   0.00000  Uiso   1.00
C338   C     0.14822   0.85101   0.37112   0.00000  Uiso   1.00
C339   C     0.18714   0.74935   0.02231   0.00000  Uiso   1.00
C340   C     0.19086   0.80426   0.08129   0.00000  Uiso   1.00
C341   C     0.12911   0.89862   0.44030   0.00000  Uiso   1.00
C342   C     0.13541   0.88175   0.01188   0.00000  Uiso   1.00
C343   C     0.15252   0.84444   0.49192   0.00000  Uiso   1.00
C344   C     0.14993   0.83117   0.44727   0.00000  Uiso   1.00
C345   C     0.16931   0.81846   0.01542   0.00000  Uiso   1.00
C346   C     0.17411   0.77645   0.49778   0.00000  Uiso   1.00
C347   C     0.16508   0.76164   0.45645   0.00000  Uiso   1.00
C348   C     0.15352   0.78910   0.43152   0.00000  Uiso   1.00
F349   F     0.20216   0.73479   0.08933   0.00000  Uiso   1.00
F350   F     0.18806   0.87386   0.06939   0.00000  Uiso   1.00
F351   F     0.12067   0.92705   0.41602   0.00000  Uiso   1.00
F352   F     0.12381   0.89034   0.05690   0.00000  Uiso   1.00
H353   H     0.31926   0.80507   0.28934   0.00000  Uiso   1.00
H354   H     0.20694   0.67036   0.21192   0.00000  Uiso   1.00
H355   H     0.12471   0.99787   0.28847   0.00000  Uiso   1.00
H356   H     0.19036   0.71713   0.00997   0.00000  Uiso   1.00
H357   H     0.11209   0.93718   0.00150   0.00000  Uiso   1.00
H358   H     0.14517   0.77636   0.40068   0.00000  Uiso   1.00
H359   H     0.01543   0.86140   0.21083   0.00000  Uiso   1.00
H360   H     0.16110   0.71503   0.41116   0.00000  Uiso   1.00
O361   O     0.16667   0.83333   0.25000   0.00000  Uiso   1.00
O362   O     0.15451   0.79304   0.15459   0.00000  Uiso   1.00
O363   O     0.12940   0.87058   0.34968   0.00000  Uiso   1.00
O364   O     0.20824   0.84425   0.14606   0.00000  Uiso   1.00
O365   O     0.17451   0.82546   0.34968   0.00000  Uiso   1.00
O366   O     0.16810   0.72028   0.44080   0.00000  Uiso   1.00
O367   O     0.17930   0.74686   0.28213   0.00000  Uiso   1.00
O368   O     0.14632   0.92751   0.27014   0.00000  Uiso   1.00
O369   O     0.07412   0.79958   0.23413   0.00000  Uiso   1.00
O370   O     0.26693   0.85939   0.21361   0.00000  Uiso   1.00
O371   O     0.07071   0.85544   0.28213   0.00000  Uiso   1.00
O372   O     0.25491   0.81892   0.27013   0.00000  Uiso   1.00
O373   O     0.13760   0.73610   0.23413   0.00000  Uiso   1.00
O374   O     0.20345   0.92286   0.21361   0.00000  Uiso   1.00
Zn375  Zn    0.19338   0.80661   0.28734   0.00000  Uiso   1.00
Zn376  Zn    0.13379   0.79124   0.21876   0.00000  Uiso   1.00
Zn377  Zn    0.21056   0.86442   0.20657   0.00000  Uiso   1.00
Zn378  Zn    0.12893   0.87106   0.28734   0.00000  Uiso   1.00
C379   C     0.38603   0.82615   0.26000   0.00000  Uiso   1.00
C380   C     0.51555   0.83271   0.05550   0.00000  Uiso   1.00
C381   C     0.52715   0.76271   0.06440   0.00000  Uiso   1.00
C382   C     0.61405   0.84043   0.24007   0.00000  Uiso   1.00
C383   C     0.47485   0.85978   0.42026   0.00000  Uiso   1.00
C384   C     0.65986   0.84320   0.23620   0.00000  Uiso   1.00
C385   C     0.34079   0.82344   0.26373   0.00000  Uiso   1.00
C386   C     0.51374   0.98910   0.23669   0.00000  Uiso   1.00
C387   C     0.48501   0.67834   0.26368   0.00000  Uiso   1.00
C388   C     0.48938   0.72247   0.26016   0.00000  Uiso   1.00
C389   C     0.50987   0.94453   0.24022   0.00000  Uiso   1.00
C390   C     0.45780   0.90847   0.48594   0.00000  Uiso   1.00
C391   C     0.51838   0.81444   0.12933   0.00000  Uiso   1.00
C392   C     0.48155   0.85101   0.37112   0.00000  Uiso   1.00
C393   C     0.52048   0.74935   0.02231   0.00000  Uiso   1.00
C394   C     0.52419   0.80426   0.08129   0.00000  Uiso   1.00
C395   C     0.46244   0.89862   0.44030   0.00000  Uiso   1.00
C396   C     0.46874   0.88175   0.01188   0.00000  Uiso   1.00
C397   C     0.48585   0.84444   0.49192   0.00000  Uiso   1.00
C398   C     0.48326   0.83117   0.44727   0.00000  Uiso   1.00
C399   C     0.50264   0.81846   0.01542   0.00000  Uiso   1.00
C400   C     0.50745   0.77645   0.49778   0.00000  Uiso   1.00
C401   C     0.49841   0.76164   0.45645   0.00000  Uiso   1.00
C402   C     0.48685   0.78910   0.43152   0.00000  Uiso   1.00
F403   F     0.53549   0.73479   0.08933   0.00000  Uiso   1.00
F404   F     0.52139   0.87386   0.06939   0.00000  Uiso   1.00
F405   F     0.45400   0.92705   0.41602   0.00000  Uiso   1.00
F406   F     0.45714   0.89034   0.05690   0.00000  Uiso   1.00
H407   H     0.65260   0.80507   0.28934   0.00000  Uiso   1.00
H408   H     0.54027   0.67036   0.21192   0.00000  Uiso   1.00
H409   H     0.45804   0.99787   0.28847   0.00000  Uiso   1.00
H410   H     0.52369   0.71713   0.00997   0.00000  Uiso   1.00
H411   H     0.44542   0.93718   0.00150   0.00000  Uiso   1.00
H412   H     0.47850   0.77636   0.40068   0.00000  Uiso   1.00
H413   H     0.34877   0.86140   0.21083   0.00000  Uiso   1.00
H414   H     0.49443   0.71503   0.41116   0.00000  Uiso   1.00
O415   O     0.50000   0.83333   0.25000   0.00000  Uiso   1.00
O416   O     0.48784   0.79304   0.15459   0.00000  Uiso   1.00
O417   O     0.46274   0.87058   0.34968   0.00000  Uiso   1.00
O418   O     0.54157   0.84425   0.14606   0.00000  Uiso   1.00
O419   O     0.50785   0.82546   0.34968   0.00000  Uiso   1.00
O420   O     0.50144   0.72028   0.44080   0.00000  Uiso   1.00
O421   O     0.51264   0.74686   0.28213   0.00000  Uiso   1.00
O422   O     0.47965   0.92751   0.27014   0.00000  Uiso   1.00
O423   O     0.40745   0.79958   0.23413   0.00000  Uiso   1.00
O424   O     0.60026   0.85939   0.21361   0.00000  Uiso   1.00
O425   O     0.40405   0.85544   0.28213   0.00000  Uiso   1.00
O426   O     0.58824   0.81892   0.27013   0.00000  Uiso   1.00
O427   O     0.47093   0.73610   0.23413   0.00000  Uiso   1.00
O428   O     0.53678   0.92286   0.21361   0.00000  Uiso   1.00
Zn429  Zn    0.52672   0.80661   0.28734   0.00000  Uiso   1.00
Zn430  Zn    0.46713   0.79124   0.21876   0.00000  Uiso   1.00
Zn431  Zn    0.54389   0.86442   0.20657   0.00000  Uiso   1.00
Zn432  Zn    0.46226   0.87106   0.28734   0.00000  Uiso   1.00
C433   C     0.71937   0.82615   0.26000   0.00000  Uiso   1.00
C434   C     0.84888   0.83271   0.05550   0.00000  Uiso   1.00
C435   C     0.86048   0.76271   0.06440   0.00000  Uiso   1.00
C436   C     0.94739   0.84043   0.24007   0.00000  Uiso   1.00
C437   C     0.80818   0.85978   0.42026   0.00000  Uiso   1.00
C438   C     0.99319   0.84320   0.23620   0.00000  Uiso   1.00
C439   C     0.67412   0.82344   0.26373   0.00000  Uiso   1.00
C440   C     0.84708   0.98910   0.23669   0.00000  Uiso   1.00
C441   C     0.81834   0.67834   0.26368   0.00000  Uiso   1.00
C442   C     0.82272   0.72247   0.26016   0.00000  Uiso   1.00
C443   C     0.84320   0.94453   0.24022   0.00000  Uiso   1.00
C444   C     0.79113   0.90847   0.48594   0.00000  Uiso   1.00
C445   C     0.85171   0.81444   0.12933   0.00000  Uiso   1.00
C446   C     0.81489   0.85101   0.37112   0.00000  Uiso   1.00
C447   C     0.85381   0.74935   0.02231   0.00000  Uiso   1.00
C448   C     0.85752   0.80426   0.08129   0.00000  Uiso   1.00
C449   C     0.79577   0.89862   0.44030   0.00000  Uiso   1.00
C450   C     0.80207   0.88175   0.01188   0.00000  Uiso   1.00
C451   C     0.81918   0.84444   0.49192   0.00000  Uiso   1.00
C452   C     0.81659   0.83117   0.44727   0.00000  Uiso   1.00
C453   C     0.83597   0.81846   0.01542   0.00000  Uiso   1.00
C454   C     0.84078   0.77645   0.49778   0.00000  Uiso   1.00
C455   C     0.83174   0.76164   0.45645   0.00000  Uiso   1.00
C456   C     0.82019   0.78910   0.43152   0.00000  Uiso   1.00
F457   F     0.86882   0.73479   0.08933   0.00000  Uiso   1.00
F458   F     0.85473   0.87386   0.06939   0.00000  Uiso   1.00
F459   F     0.78734   0.92705   0.41602   0.00000  Uiso   1.00
F460   F     0.79048   0.89034   0.05690   0.00000  Uiso   1.00
H461   H     0.98593   0.80507   0.28934   0.00000  Uiso   1.00
H462   H     0.87361   0.67036   0.21192   0.00000  Uiso   1.00
H463   H     0.79137   0.99787   0.28847   0.00000  Uiso   1.00
H464   H     0.85702   0.71713   0.00997   0.00000  Uiso   1.00
H465   H     0.77876   0.93718   0.00150   0.00000  Uiso   1.00
H466   H     0.81183   0.77636   0.40068   0.00000  Uiso   1.00
H467   H     0.68210   0.86140   0.21083   0.00000  Uiso   1.00
H468   H     0.82776   0.71503   0.41116   0.00000  Uiso   1.00
O469   O     0.83333   0.83333   0.25000   0.00000  Uiso   1.00
O470   O     0.82118   0.79304   0.15459   0.00000  Uiso   1.00
O471   O     0.79607   0.87058   0.34968   0.00000  Uiso   1.00
O472   O     0.87491   0.84425   0.14606   0.00000  Uiso   1.00
O473   O     0.84118   0.82546   0.34968   0.00000  Uiso   1.00
O474   O     0.83477   0.72028   0.44080   0.00000  Uiso   1.00
O475   O     0.84597   0.74686   0.28213   0.00000  Uiso   1.00
O476   O     0.81298   0.92751   0.27014   0.00000  Uiso   1.00
O477   O     0.74078   0.79958   0.23413   0.00000  Uiso   1.00
O478   O     0.93360   0.85939   0.21361   0.00000  Uiso   1.00
O479   O     0.73738   0.85544   0.28213   0.00000  Uiso   1.00
O480   O     0.92158   0.81892   0.27013   0.00000  Uiso   1.00
O481   O     0.80426   0.73610   0.23413   0.00000  Uiso   1.00
O482   O     0.87012   0.92286   0.21361   0.00000  Uiso   1.00
Zn483  Zn    0.86005   0.80661   0.28734   0.00000  Uiso   1.00
Zn484  Zn    0.80046   0.79124   0.21876   0.00000  Uiso   1.00
Zn485  Zn    0.87723   0.86442   0.20657   0.00000  Uiso   1.00
Zn486  Zn    0.79560   0.87106   0.28734   0.00000  Uiso   1.00
C487   C     0.05270   0.15949   0.76000   0.00000  Uiso   1.00
C488   C     0.18222   0.16605   0.55550   0.00000  Uiso   1.00
C489   C     0.19381   0.09605   0.56440   0.00000  Uiso   1.00
C490   C     0.28072   0.17377   0.74007   0.00000  Uiso   1.00
C491   C     0.14152   0.19311   0.92026   0.00000  Uiso   1.00
C492   C     0.32652   0.17653   0.73620   0.00000  Uiso   1.00
C493   C     0.00746   0.15678   0.76373   0.00000  Uiso   1.00
C494   C     0.18041   0.32244   0.73669   0.00000  Uiso   1.00
C495   C     0.15168   0.01168   0.76368   0.00000  Uiso   1.00
C496   C     0.15605   0.05581   0.76016   0.00000  Uiso   1.00
C497   C     0.17654   0.27786   0.74022   0.00000  Uiso   1.00
C498   C     0.12447   0.24180   0.98594   0.00000  Uiso   1.00
C499   C     0.18505   0.14777   0.62933   0.00000  Uiso   1.00
C500   C     0.14822   0.18434   0.87112   0.00000  Uiso   1.00
C501   C     0.18714   0.08268   0.52231   0.00000  Uiso   1.00
C502   C     0.19086   0.13759   0.58129   0.00000  Uiso   1.00
C503   C     0.12911   0.23196   0.94030   0.00000  Uiso   1.00
C504   C     0.13541   0.21509   0.51188   0.00000  Uiso   1.00
C505   C     0.15252   0.17778   0.99192   0.00000  Uiso   1.00
C506   C     0.14993   0.16450   0.94727   0.00000  Uiso   1.00
C507   C     0.16931   0.15179   0.51542   0.00000  Uiso   1.00
C508   C     0.17411   0.10978   0.99778   0.00000  Uiso   1.00
C509   C     0.16508   0.09497   0.95645   0.00000  Uiso   1.00
C510   C     0.15352   0.12244   0.93152   0.00000  Uiso   1.00
F511   F     0.20216   0.06812   0.58933   0.00000  Uiso   1.00
F512   F     0.18806   0.20719   0.56939   0.00000  Uiso   1.00
F513   F     0.12067   0.26039   0.91602   0.00000  Uiso   1.00
F514   F     0.12381   0.22368   0.55690   0.00000  Uiso   1.00
H515   H     0.31926   0.13840   0.78934   0.00000  Uiso   1.00
H516   H     0.20694   0.00369   0.71192   0.00000  Uiso   1.00
H517   H     0.12471   0.33120   0.78847   0.00000  Uiso   1.00
H518   H     0.19036   0.05046   0.50997   0.00000  Uiso   1.00
H519   H     0.11209   0.27051   0.50150   0.00000  Uiso   1.00
H520   H     0.14517   0.10970   0.90068   0.00000  Uiso   1.00
H521   H     0.01543   0.19473   0.71083   0.00000  Uiso   1.00
H522   H     0.16110   0.04837   0.91116   0.00000  Uiso   1.00
O523   O     0.16667   0.16667   0.75000   0.00000  Uiso   1.00
O524   O     0.15451   0.12637   0.65459   0.00000  Uiso   1.00
O525   O     0.12940   0.20391   0.84968   0.00000  Uiso   1.00
O526   O     0.20824   0.17759   0.64606   0.00000  Uiso   1.00
O527   O     0.17451   0.15880   0.84968   0.00000  Uiso   1.00
O528   O     0.16810   0.05361   0.94080   0.00000  Uiso   1.00
O529   O     0.17930   0.08019   0.78213   0.00000  Uiso   1.00
O530   O     0.14632   0.26085   0.77014   0.00000  Uiso   1.00
O531   O     0.07412   0.13291   0.73413   0.00000  Uiso   1.00
O532   O     0.26693   0.19272   0.71361   0.00000  Uiso   1.00
O533   O     0.07071   0.18878   0.78213   0.00000  Uiso   1.00
O534   O     0.25491   0.15226   0.77013   0.00000  Uiso   1.00
O535   O     0.13760   0.06944   0.73413   0.00000  Uiso   1.00
O536   O     0.20345   0.25620   0.71361   0.00000  Uiso   1.00
Zn537  Zn    0.19338   0.13994   0.78734   0.00000  Uiso   1.00
Zn538  Zn    0.13379   0.12458   0.71876   0.00000  Uiso   1.00
Zn539  Zn    0.21056   0.19775   0.70657   0.00000  Uiso   1.00
Zn540  Zn    0.12893   0.20439   0.78734   0.00000  Uiso   1.00
C541   C     0.38603   0.15949   0.76000   0.00000  Uiso   1.00
C542   C     0.51555   0.16605   0.55550   0.00000  Uiso   1.00
C543   C     0.52715   0.09605   0.56440   0.00000  Uiso   1.00
C544   C     0.61405   0.17377   0.74007   0.00000  Uiso   1.00
C545   C     0.47485   0.19311   0.92026   0.00000  Uiso   1.00
C546   C     0.65986   0.17653   0.73620   0.00000  Uiso   1.00
C547   C     0.34079   0.15678   0.76373   0.00000  Uiso   1.00
C548   C     0.51374   0.32244   0.73669   0.00000  Uiso   1.00
C549   C     0.48501   0.01168   0.76368   0.00000  Uiso   1.00
C550   C     0.48938   0.05581   0.76016   0.00000  Uiso   1.00
C551   C     0.50987   0.27786   0.74022   0.00000  Uiso   1.00
C552   C     0.45780   0.24180   0.98594   0.00000  Uiso   1.00
C553   C     0.51838   0.14777   0.62933   0.00000  Uiso   1.00
C554   C     0.48155   0.18434   0.87112   0.00000  Uiso   1.00
C555   C     0.52048   0.08268   0.52231   0.00000  Uiso   1.00
C556   C     0.52419   0.13759   0.58129   0.00000  Uiso   1.00
C557   C     0.46244   0.23196   0.94030   0.00000  Uiso   1.00
C558   C     0.46874   0.21509   0.51188   0.00000  Uiso   1.00
C559   C     0.48585   0.17778   0.99192   0.00000  Uiso   1.00
C560   C     0.48326   0.16450   0.94727   0.00000  Uiso   1.00
C561   C     0.50264   0.15179   0.51542   0.00000  Uiso   1.00
C562   C     0.50745   0.10978   0.99778   0.00000  Uiso   1.00
C563   C     0.49841   0.09497   0.95645   0.00000  Uiso   1.00
C564   C     0.48685   0.12244   0.93152   0.00000  Uiso   1.00
F565   F     0.53549   0.06812   0.58933   0.00000  Uiso   1.00
F566   F     0.52139   0.20719   0.56939   0.00000  Uiso   1.00
F567   F     0.45400   0.26039   0.91602   0.00000  Uiso   1.00
F568   F     0.45714   0.22368   0.55690   0.00000  Uiso   1.00
H569   H     0.65260   0.13840   0.78934   0.00000  Uiso   1.00
H570   H     0.54027   0.00369   0.71192   0.00000  Uiso   1.00
H571   H     0.45804   0.33120   0.78847   0.00000  Uiso   1.00
H572   H     0.52369   0.05046   0.50997   0.00000  Uiso   1.00
H573   H     0.44542   0.27051   0.50150   0.00000  Uiso   1.00
H574   H     0.47850   0.10970   0.90068   0.00000  Uiso   1.00
H575   H     0.34877   0.19473   0.71083   0.00000  Uiso   1.00
H576   H     0.49443   0.04837   0.91116   0.00000  Uiso   1.00
O577   O     0.50000   0.16667   0.75000   0.00000  Uiso   1.00
O578   O     0.48784   0.12637   0.65459   0.00000  Uiso   1.00
O579   O     0.46274   0.20391   0.84968   0.00000  Uiso   1.00
O580   O     0.54157   0.17759   0.64606   0.00000  Uiso   1.00
O581   O     0.50785   0.15880   0.84968   0.00000  Uiso   1.00
O582   O     0.50144   0.05361   0.94080   0.00000  Uiso   1.00
O583   O     0.51264   0.08019   0.78213   0.00000  Uiso   1.00
O584   O     0.47965   0.26085   0.77014   0.00000  Uiso   1.00
O585   O     0.40745   0.13291   0.73413   0.00000  Uiso   1.00
O586   O     0.60026   0.19272   0.71361   0.00000  Uiso   1.00
O587   O     0.40405   0.18878   0.78213   0.00000  Uiso   1.00
O588   O     0.58824   0.15226   0.77013   0.00000  Uiso   1.00
O589   O     0.47093   0.06944   0.73413   0.00000  Uiso   1.00
O590   O     0.53678   0.25620   0.71361   0.00000  Uiso   1.00
Zn591  Zn    0.52672   0.13994   0.78734   0.00000  Uiso   1.00
Zn592  Zn    0.46713   0.12458   0.71876   0.00000  Uiso   1.00
Zn593  Zn    0.54389   0.19775   0.70657   0.00000  Uiso   1.00
Zn594  Zn    0.46226   0.20439   0.78734   0.00000  Uiso   1.00
C595   C     0.71937   0.15949   0.76000   0.00000  Uiso   1.00
C596   C     0.84888   0.16605   0.55550   0.00000  Uiso   1.00
C597   C     0.86048   0.09605   0.56440   0.00000  Uiso   1.00
C598   C     0.94739   0.17377   0.74007   0.00000  Uiso   1.00
C599   C     0.80818   0.19311   0.92026   0.00000  Uiso   1.00
C600   C     0.99319   0.17653   0.73620   0.00000  Uiso   1.00
C601   C     0.67412   0.15678   0.76373   0.00000  Uiso   1.00
C602   C     0.84708   0.32244   0.73669   0.00000  Uiso   1.00
C603   C     0.81834   0.01168   0.76368   0.00000  Uiso   1.00
C604   C     0.82272   0.05581   0.76016   0.00000  Uiso   1.00
C605   C     0.84320   0.27786   0.74022   0.00000  Uiso   1.00
C606   C     0.79113   0.24180   0.98594   0.00000  Uiso   1.00
C607   C     0.85171   0.14777   0.62933   0.00000  Uiso   1.00
C608   C     0.81489   0.18434   0.87112   0.00000  Uiso   1.00
C609   C     0.85381   0.08268   0.52231   0.00000  Uiso   1.00
C610   C     0.85752   0.13759   0.58129   0.00000  Uiso   1.00
C611   C     0.79577   0.23196   0.94030   0.00000  Uiso   1.00
C612   C     0.80207   0.21509   0.51188   0.00000  Uiso   1.00
C613   C     0.81918   0.17778   0.99192   0.00000  Uiso   1.00
C614   C     0.81659   0.16450   0.94727   0.00000  Uiso   1.00
C615   C     0.83597   0.15179   0.51542   0.00000  Uiso   1.00
C616   C     0.84078   0.10978   0.99778   0.00000  Uiso   1.00
C617   C     0.83174   0.09497   0.95645   0.00000  Uiso   1.00
C618   C     0.82019   0.12244   0.93152   0.00000  Uiso   1.00
F619   F     0.86882   0.06812   0.58933   0.00000  Uiso   1.00
F620   F     0.85473   0.20719   0.56939   0.00000  Uiso   1.00
F621   F     0.78734   0.26039   0.91602   0.00000  Uiso   1.00
F622   F     0.79048   0.22368   0.55690   0.00000  Uiso   1.00
H623   H     0.98593   0.13840   0.78934   0.00000  Uiso   1.00
H624   H     0.87361   0.00369   0.71192   0.00000  Uiso   1.00
H625   H     0.79137   0.33120   0.78847   0.00000  Uiso   1.00
H626   H     0.85702   0.05046   0.50997   0.00000  Uiso   1.00
H627   H     0.77876   0.27051   0.50150   0.00000  Uiso   1.00
H628   H     0.81183   0.10970   0.90068   0.00000  Uiso   1.00
H629   H     0.68210   0.19473   0.71083   0.00000  Uiso   1.00
H630   H     0.82776   0.04837   0.91116   0.00000  Uiso   1.00
O631   O     0.83333   0.16667   0.75000   0.00000  Uiso   1.00
O632   O     0.82118   0.12637   0.65459   0.00000  Uiso   1.00
O633   O     0.79607   0.20391   0.84968   0.00000  Uiso   1.00
O634   O     0.87491   0.17759   0.64606   0.00000  Uiso   1.00
O635   O     0.84118   0.15880   0.84968   0.00000  Uiso   1.00
O636   O     0.83477   0.05361   0.94080   0.00000  Uiso   1.00
O637   O     0.84597   0.08019   0.78213   0.00000  Uiso   1.00
O638   O     0.81298   0.26085   0.77014   0.00000  Uiso   1.00
O639   O     0.74078   0.13291   0.73413   0.00000  Uiso   1.00
O640   O     0.93360   0.19272   0.71361   0.00000  Uiso   1.00
O641   O     0.73738   0.18878   0.78213   0.00000  Uiso   1.00
O642   O     0.92158   0.15226   0.77013   0.00000  Uiso   1.00
O643   O     0.80426   0.06944   0.73413   0.00000  Uiso   1.00
O644   O     0.87012   0.25620   0.71361   0.00000  Uiso   1.00
Zn645  Zn    0.86005   0.13994   0.78734   0.00000  Uiso   1.00
Zn646  Zn    0.80046   0.12458   0.71876   0.00000  Uiso   1.00
Zn647  Zn    0.87723   0.19775   0.70657   0.00000  Uiso   1.00
Zn648  Zn    0.79560   0.20439   0.78734   0.00000  Uiso   1.00
C649   C     0.05270   0.49282   0.76000   0.00000  Uiso   1.00
C650   C     0.18222   0.49938   0.55550   0.00000  Uiso   1.00
C651   C     0.19381   0.42938   0.56440   0.00000  Uiso   1.00
C652   C     0.28072   0.50710   0.74007   0.00000  Uiso   1.00
C653   C     0.14152   0.52645   0.92026   0.00000  Uiso   1.00
C654   C     0.32652   0.50986   0.73620   0.00000  Uiso   1.00
C655   C     0.00746   0.49011   0.76373   0.00000  Uiso   1.00
C656   C     0.18041   0.65577   0.73669   0.00000  Uiso   1.00
C657   C     0.15168   0.34501   0.76368   0.00000  Uiso   1.00
C658   C     0.15605   0.38914   0.76016   0.00000  Uiso   1.00
C659   C     0.17654   0.61120   0.74022   0.00000  Uiso   1.00
C660   C     0.12447   0.57514   0.98594   0.00000  Uiso   1.00
C661   C     0.18505   0.48111   0.62933   0.00000  Uiso   1.00
C662   C     0.14822   0.51767   0.87112   0.00000  Uiso   1.00
C663   C     0.18714   0.41602   0.52231   0.00000  Uiso   1.00
C664   C     0.19086   0.47092   0.58129   0.00000  Uiso   1.00
C665   C     0.12911   0.56529   0.94030   0.00000  Uiso   1.00
C666   C     0.13541   0.54842   0.51188   0.00000  Uiso   1.00
C667   C     0.15252   0.51111   0.99192   0.00000  Uiso   1.00
C668   C     0.14993   0.49783   0.94727   0.00000  Uiso   1.00
C669   C     0.16931   0.48513   0.51542   0.00000  Uiso   1.00
C670   C     0.17411   0.44311   0.99778   0.00000  Uiso   1.00
C671   C     0.16508   0.42830   0.95645   0.00000  Uiso   1.00
C672   C     0.15352   0.45577   0.93152   0.00000  Uiso   1.00
F673   F     0.20216   0.40145   0.58933   0.00000  Uiso   1.00
F674   F     0.18806   0.54052   0.56939   0.00000  Uiso   1.00
F675   F     0.12067   0.59372   0.91602   0.00000  Uiso   1.00
F676   F     0.12381   0.55701   0.55690   0.00000  Uiso   1.00
H677   H     0.31926   0.47173   0.78934   0.00000  Uiso   1.00
H678   H     0.20694   0.33702   0.71192   0.00000  Uiso   1.00
H679   H     0.12471   0.66453   0.78847   0.00000  Uiso   1.00
H680   H     0.19036   0.38379   0.50997   0.00000  Uiso   1.00
H681   H     0.11209   0.60384   0.50150   0.00000  Uiso   1.00
H682   H     0.14517   0.44303   0.90068   0.00000  Uiso   1.00
H683   H     0.01543   0.52807   0.71083   0.00000  Uiso   1.00
H684   H     0.16110   0.38170   0.91116   0.00000  Uiso   1.00
O685   O     0.16667   0.50000   0.75000   0.00000  Uiso   1.00
O686   O     0.15451   0.45970   0.65459   0.00000  Uiso   1.00
O687   O     0.12940   0.53724   0.84968   0.00000  Uiso   1.00
O688   O     0.20824   0.51092   0.64606   0.00000  Uiso   1.00
O689   O     0.17451   0.49213   0.84968   0.00000  Uiso   1.00
O690   O     0.16810   0.38694   0.94080   0.00000  Uiso   1.00
O691   O     0.17930   0.41352   0.78213   0.00000  Uiso   1.00
O692   O     0.14632   0.59418   0.77014   0.00000  Uiso   1.00
O693   O     0.07412   0.46625   0.73413   0.00000  Uiso   1.00
O694   O     0.26693   0.52605   0.71361   0.00000  Uiso   1.00
O695   O     0.07071   0.52211   0.78213   0.00000  Uiso   1.00
O696   O     0.25491   0.48559   0.77013   0.00000  Uiso   1.00
O697   O     0.13760   0.40277   0.73413   0.00000  Uiso   1.00
O698   O     0.20345   0.58953   0.71361   0.00000  Uiso   1.00
Zn699  Zn    0.19338   0.47327   0.78734   0.00000  Uiso   1.00
Zn700  Zn    0.13379   0.45791   0.71876   0.00000  Uiso   1.00
Zn701  Zn    0.21056   0.53109   0.70657   0.00000  Uiso   1.00
Zn702  Zn    0.12893   0.53773   0.78734   0.00000  Uiso   1.00
C703   C     0.38603   0.49282   0.76000   0.00000  Uiso   1.00
C704   C     0.51555   0.49938   0.55550   0.00000  Uiso   1.00
C705   C     0.52715   0.42938   0.56440   0.00000  Uiso   1.00
C706   C     0.61405   0.50710   0.74007   0.00000  Uiso   1.00
C707   C     0.47485   0.52645   0.92026   0.00000  Uiso   1.00
C708   C     0.65986   0.50986   0.73620   0.00000  Uiso   1.00
C709   C     0.34079   0.49011   0.76373   0.00000  Uiso   1.00
C710   C     0.51374   0.65577   0.73669   0.00000  Uiso   1.00
C711   C     0.48501   0.34501   0.76368   0.00000  Uiso   1.00
C712   C     0.48938   0.38914   0.76016   0.00000  Uiso   1.00
C713   C     0.50987   0.61120   0.74022   0.00000  Uiso   1.00
C714   C     0.45780   0.57514   0.98594   0.00000  Uiso   1.00
C715   C     0.51838   0.48111   0.62933   0.00000  Uiso   1.00
C716   C     0.48155   0.51767   0.87112   0.00000  Uiso   1.00
C717   C     0.52048   0.41602   0.52231   0.00000  Uiso   1.00
C718   C     0.52419   0.47092   0.58129   0.00000  Uiso   1.00
C719   C     0.46244   0.56529   0.94030   0.00000  Uiso   1.00
C720   C     0.46874   0.54842   0.51188   0.00000  Uiso   1.00
C721   C     0.48585   0.51111   0.99192   0.00000  Uiso   1.00
C722   C     0.48326   0.49783   0.94727   0.00000  Uiso   1.00
C723   C     0.50264   0.48513   0.51542   0.00000  Uiso   1.00
C724   C     0.50745   0.44311   0.99778   0.00000  Uiso   1.00
C725   C     0.49841   0.42830   0.95645   0.00000  Uiso   1.00
C726   C     0.48685   0.45577   0.93152   0.00000  Uiso   1.00
F727   F     0.53549   0.40145   0.58933   0.00000  Uiso   1.00
F728   F     0.52139   0.54052   0.56939   0.00000  Uiso   1.00
F729   F     0.45400   0.59372   0.91602   0.00000  Uiso   1.00
F730   F     0.45714   0.55701   0.55690   0.00000  Uiso   1.00
H731   H     0.65260   0.47173   0.78934   0.00000  Uiso   1.00
H732   H     0.54027   0.33702   0.71192   0.00000  Uiso   1.00
H733   H     0.45804   0.66453   0.78847   0.00000  Uiso   1.00
H734   H     0.52369   0.38379   0.50997   0.00000  Uiso   1.00
H735   H     0.44542   0.60384   0.50150   0.00000  Uiso   1.00
H736   H     0.47850   0.44303   0.90068   0.00000  Uiso   1.00
H737   H     0.34877   0.52807   0.71083   0.00000  Uiso   1.00
H738   H     0.49443   0.38170   0.91116   0.00000  Uiso   1.00
O739   O     0.50000   0.50000   0.75000   0.00000  Uiso   1.00
O740   O     0.48784   0.45970   0.65459   0.00000  Uiso   1.00
O741   O     0.46274   0.53724   0.84968   0.00000  Uiso   1.00
O742   O     0.54157   0.51092   0.64606   0.00000  Uiso   1.00
O743   O     0.50785   0.49213   0.84968   0.00000  Uiso   1.00
O744   O     0.50144   0.38694   0.94080   0.00000  Uiso   1.00
O745   O     0.51264   0.41352   0.78213   0.00000  Uiso   1.00
O746   O     0.47965   0.59418   0.77014   0.00000  Uiso   1.00
O747   O     0.40745   0.46625   0.73413   0.00000  Uiso   1.00
O748   O     0.60026   0.52605   0.71361   0.00000  Uiso   1.00
O749   O     0.40405   0.52211   0.78213   0.00000  Uiso   1.00
O750   O     0.58824   0.48559   0.77013   0.00000  Uiso   1.00
O751   O     0.47093   0.40277   0.73413   0.00000  Uiso   1.00
O752   O     0.53678   0.58953   0.71361   0.00000  Uiso   1.00
Zn753  Zn    0.52672   0.47327   0.78734   0.00000  Uiso   1.00
Zn754  Zn    0.46713   0.45791   0.71876   0.00000  Uiso   1.00
Zn755  Zn    0.54389   0.53109   0.70657   0.00000  Uiso   1.00
Zn756  Zn    0.46226   0.53773   0.78734   0.00000  Uiso   1.00
C757   C     0.71937   0.49282   0.76000   0.00000  Uiso   1.00
C758   C     0.84888   0.49938   0.55550   0.00000  Uiso   1.00
C759   C     0.86048   0.42938   0.56440   0.00000  Uiso   1.00
C760   C     0.94739   0.50710   0.74007   0.00000  Uiso   1.00
C761   C     0.80818   0.52645   0.92026   0.00000  Uiso   1.00
C762   C     0.99319   0.50986   0.73620   0.00000  Uiso   1.00
C763   C     0.67412   0.49011   0.76373   0.00000  Uiso   1.00
C764   C     0.84708   0.65577   0.73669   0.00000  Uiso   1.00
C765   C     0.81834   0.34501   0.76368   0.00000  Uiso   1.00
C766   C     0.82272   0.38914   0.76016   0.00000  Uiso   1.00
C767   C     0.84320   0.61120   0.74022   0.00000  Uiso   1.00
C768   C     0.79113   0.57514   0.98594   0.00000  Uiso   1.00
C769   C     0.85171   0.48111   0.62933   0.00000  Uiso   1.00
C770   C     0.81489   0.51767   0.87112   0.00000  Uiso   1.00
C771   C     0.85381   0.41602   0.52231   0.00000  Uiso   1.00
C772   C     0.85752   0.47092   0.58129   0.00000  Uiso   1.00
C773   C     0.79577   0.56529   0.94030   0.00000  Uiso   1.00
C774   C     0.80207   0.54842   0.51188   0.00000  Uiso   1.00
C775   C     0.81918   0.51111   0.99192   0.00000  Uiso   1.00
C776   C     0.81659   0.49783   0.94727   0.00000  Uiso   1.00
C777   C     0.83597   0.48513   0.51542   0.00000  Uiso   1.00
C778   C     0.84078   0.44311   0.99778   0.00000  Uiso   1.00
C779   C     0.83174   0.42830   0.95645   0.00000  Uiso   1.00
C780   C     0.82019   0.45577   0.93152   0.00000  Uiso   1.00
F781   F     0.86882   0.40145   0.58933   0.00000  Uiso   1.00
F782   F     0.85473   0.54052   0.56939   0.00000  Uiso   1.00
F783   F     0.78734   0.59372   0.91602   0.00000  Uiso   1.00
F784   F     0.79048   0.55701   0.55690   0.00000  Uiso   1.00
H785   H     0.98593   0.47173   0.78934   0.00000  Uiso   1.00
H786   H     0.87361   0.33702   0.71192   0.00000  Uiso   1.00
H787   H     0.79137   0.66453   0.78847   0.00000  Uiso   1.00
H788   H     0.85702   0.38379   0.50997   0.00000  Uiso   1.00
H789   H     0.77876   0.60384   0.50150   0.00000  Uiso   1.00
H790   H     0.81183   0.44303   0.90068   0.00000  Uiso   1.00
H791   H     0.68210   0.52807   0.71083   0.00000  Uiso   1.00
H792   H     0.82776   0.38170   0.91116   0.00000  Uiso   1.00
O793   O     0.83333   0.50000   0.75000   0.00000  Uiso   1.00
O794   O     0.82118   0.45970   0.65459   0.00000  Uiso   1.00
O795   O     0.79607   0.53724   0.84968   0.00000  Uiso   1.00
O796   O     0.87491   0.51092   0.64606   0.00000  Uiso   1.00
O797   O     0.84118   0.49213   0.84968   0.00000  Uiso   1.00
O798   O     0.83477   0.38694   0.94080   0.00000  Uiso   1.00
O799   O     0.84597   0.41352   0.78213   0.00000  Uiso   1.00
O800   O     0.81298   0.59418   0.77014   0.00000  Uiso   1.00
O801   O     0.74078   0.46625   0.73413   0.00000  Uiso   1.00
O802   O     0.93360   0.52605   0.71361   0.00000  Uiso   1.00
O803   O     0.73738   0.52211   0.78213   0.00000  Uiso   1.00
O804   O     0.92158   0.48559   0.77013   0.00000  Uiso   1.00
O805   O     0.80426   0.40277   0.73413   0.00000  Uiso   1.00
O806   O     0.87012   0.58953   0.71361   0.00000  Uiso   1.00
Zn807  Zn    0.86005   0.47327   0.78734   0.00000  Uiso   1.00
Zn808  Zn    0.80046   0.45791   0.71876   0.00000  Uiso   1.00
Zn809  Zn    0.87723   0.53109   0.70657   0.00000  Uiso   1.00
Zn810  Zn    0.79560   0.53773   0.78734   0.00000  Uiso   1.00
C811   C     0.05270   0.82615   0.76000   0.00000  Uiso   1.00
C812   C     0.18222   0.83271   0.55550   0.00000  Uiso   1.00
C813   C     0.19381   0.76271   0.56440   0.00000  Uiso   1.00
C814   C     0.28072   0.84043   0.74007   0.00000  Uiso   1.00
C815   C     0.14152   0.85978   0.92026   0.00000  Uiso   1.00
C816   C     0.32652   0.84320   0.73620   0.00000  Uiso   1.00
C817   C     0.00746   0.82344   0.76373   0.00000  Uiso   1.00
C818   C     0.18041   0.98910   0.73669   0.00000  Uiso   1.00
C819   C     0.15168   0.67834   0.76368   0.00000  Uiso   1.00
C820   C     0.15605   0.72247   0.76016   0.00000  Uiso   1.00
C821   C     0.17654   0.94453   0.74022   0.00000  Uiso   1.00
C822   C     0.12447   0.90847   0.98594   0.00000  Uiso   1.00
C823   C     0.18505   0.81444   0.62933   0.00000  Uiso   1.00
C824   C     0.14822   0.85101   0.87112   0.00000  Uiso   1.00
C825   C     0.18714   0.74935   0.52231   0.00000  Uiso   1.00
C826   C     0.19086   0.80426   0.58129   0.00000  Uiso   1.00
C827   C     0.12911   0.89862   0.94030   0.00000  Uiso   1.00
C828   C     0.13541   0.88175   0.51188   0.00000  Uiso   1.00
C829   C     0.15252   0.84444   0.99192   0.00000  Uiso   1.00
C830   C     0.14993   0.83117   0.94727   0.00000  Uiso   1.00
C831   C     0.16931   0.81846   0.51542   0.00000  Uiso   1.00
C832   C     0.17411   0.77645   0.99778   0.00000  Uiso   1.00
C833   C     0.16508   0.76164   0.95645   0.00000  Uiso   1.00
C834   C     0.15352   0.78910   0.93152   0.00000  Uiso   1.00
F835   F     0.20216   0.73479   0.58933   0.00000  Uiso   1.00
F836   F     0.18806   0.87386   0.56939   0.00000  Uiso   1.00
F837   F     0.12067   0.92705   0.91602   0.00000  Uiso   1.00
F838   F     0.12381   0.89034   0.55690   0.00000  Uiso   1.00
H839   H     0.31926   0.80507   0.78934   0.00000  Uiso   1.00
H840   H     0.20694   0.67036   0.71192   0.00000  Uiso   1.00
H841   H     0.12471   0.99787   0.78847   0.00000  Uiso   1.00
H842   H     0.19036   0.71713   0.50997   0.00000  Uiso   1.00
H843   H     0.11209   0.93718   0.50150   0.00000  Uiso   1.00
H844   H     0.14517   0.77636   0.90068   0.00000  Uiso   1.00
H845   H     0.01543   0.86140   0.71083   0.00000  Uiso   1.00
H846   H     0.16110   0.71503   0.91116   0.00000  Uiso   1.00
O847   O     0.16667   0.83333   0.75000   0.00000  Uiso   1.00
O848   O     0.15451   0.79304   0.65459   0.00000  Uiso   1.00
O849   O     0.12940   0.87058   0.84968   0.00000  Uiso   1.00
O850   O     0.20824   0.84425   0.64606   0.00000  Uiso   1.00
O851   O     0.17451   0.82546   0.84968   0.00000  Uiso   1.00
O852   O     0.16810   0.72028   0.94080   0.00000  Uiso   1.00
O853   O     0.17930   0.74686   0.78213   0.00000  Uiso   1.00
O854   O     0.14632   0.92751   0.77014   0.00000  Uiso   1.00
O855   O     0.07412   0.79958   0.73413   0.00000  Uiso   1.00
O856   O     0.26693   0.85939   0.71361   0.00000  Uiso   1.00
O857   O     0.07071   0.85544   0.78213   0.00000  Uiso   1.00
O858   O     0.25491   0.81892   0.77013   0.00000  Uiso   1.00
O859   O     0.13760   0.73610   0.73413   0.00000  Uiso   1.00
O860   O     0.20345   0.92286   0.71361   0.00000  Uiso   1.00
Zn861  Zn    0.19338   0.80661   0.78734   0.00000  Uiso   1.00
Zn862  Zn    0.13379   0.79124   0.71876   0.00000  Uiso   1.00
Zn863  Zn    0.21056   0.86442   0.70657   0.00000  Uiso   1.00
Zn864  Zn    0.12893   0.87106   0.78734   0.00000  Uiso   1.00
C865   C     0.38603   0.82615   0.76000   0.00000  Uiso   1.00
C866   C     0.51555   0.83271   0.55550   0.00000  Uiso   1.00
C867   C     0.52715   0.76271   0.56440   0.00000  Uiso   1.00
C868   C     0.61405   0.84043   0.74007   0.00000  Uiso   1.00
C869   C     0.47485   0.85978   0.92026   0.00000  Uiso   1.00
C870   C     0.65986   0.84320   0.73620   0.00000  Uiso   1.00
C871   C     0.34079   0.82344   0.76373   0.00000  Uiso   1.00
C872   C     0.51374   0.98910   0.73669   0.00000  Uiso   1.00
C873   C     0.48501   0.67834   0.76368   0.00000  Uiso   1.00
C874   C     0.48938   0.72247   0.76016   0.00000  Uiso   1.00
C875   C     0.50987   0.94453   0.74022   0.00000  Uiso   1.00
C876   C     0.45780   0.90847   0.98594   0.00000  Uiso   1.00
C877   C     0.51838   0.81444   0.62933   0.00000  Uiso   1.00
C878   C     0.48155   0.85101   0.87112   0.00000  Uiso   1.00
C879   C     0.52048   0.74935   0.52231   0.00000  Uiso   1.00
C880   C     0.52419   0.80426   0.58129   0.00000  Uiso   1.00
C881   C     0.46244   0.89862   0.94030   0.00000  Uiso   1.00
C882   C     0.46874   0.88175   0.51188   0.00000  Uiso   1.00
C883   C     0.48585   0.84444   0.99192   0.00000  Uiso   1.00
C884   C     0.48326   0.83117   0.94727   0.00000  Uiso   1.00
C885   C     0.50264   0.81846   0.51542   0.00000  Uiso   1.00
C886   C     0.50745   0.77645   0.99778   0.00000  Uiso   1.00
C887   C     0.49841   0.76164   0.95645   0.00000  Uiso   1.00
C888   C     0.48685   0.78910   0.93152   0.00000  Uiso   1.00
F889   F     0.53549   0.73479   0.58933   0.00000  Uiso   1.00
F890   F     0.52139   0.87386   0.56939   0.00000  Uiso   1.00
F891   F     0.45400   0.92705   0.91602   0.00000  Uiso   1.00
F892   F     0.45714   0.89034   0.55690   0.00000  Uiso   1.00
H893   H     0.65260   0.80507   0.78934   0.00000  Uiso   1.00
H894   H     0.54027   0.67036   0.71192   0.00000  Uiso   1.00
H895   H     0.45804   0.99787   0.78847   0.00000  Uiso   1.00
H896   H     0.52369   0.71713   0.50997   0.00000  Uiso   1.00
H897   H     0.44542   0.93718   0.50150   0.00000  Uiso   1.00
H898   H     0.47850   0.77636   0.90068   0.00000  Uiso   1.00
H899   H     0.34877   0.86140   0.71083   0.00000  Uiso   1.00
H900   H     0.49443   0.71503   0.91116   0.00000  Uiso   1.00
O901   O     0.50000   0.83333   0.75000   0.00000  Uiso   1.00
O902   O     0.48784   0.79304   0.65459   0.00000  Uiso   1.00
O903   O     0.46274   0.87058   0.84968   0.00000  Uiso   1.00
O904   O     0.54157   0.84425   0.64606   0.00000  Uiso   1.00
O905   O     0.50785   0.82546   0.84968   0.00000  Uiso   1.00
O906   O     0.50144   0.72028   0.94080   0.00000  Uiso   1.00
O907   O     0.51264   0.74686   0.78213   0.00000  Uiso   1.00
O908   O     0.47965   0.92751   0.77014   0.00000  Uiso   1.00
O909   O     0.40745   0.79958   0.73413   0.00000  Uiso   1.00
O910   O     0.60026   0.85939   0.71361   0.00000  Uiso   1.00
O911   O     0.40405   0.85544   0.78213   0.00000  Uiso   1.00
O912   O     0.58824   0.81892   0.77013   0.00000  Uiso   1.00
O913   O     0.47093   0.73610   0.73413   0.00000  Uiso   1.00
O914   O     0.53678   0.92286   0.71361   0.00000  Uiso   1.00
Zn915  Zn    0.52672   0.80661   0.78734   0.00000  Uiso   1.00
Zn916  Zn    0.46713   0.79124   0.71876   0.00000  Uiso   1.00
Zn917  Zn    0.54389   0.86442   0.70657   0.00000  Uiso   1.00
Zn918  Zn    0.46226   0.87106   0.78734   0.00000  Uiso   1.00
C919   C     0.71937   0.82615   0.76000   0.00000  Uiso   1.00
C920   C     0.84888   0.83271   0.55550   0.00000  Uiso   1.00
C921   C     0.86048   0.76271   0.56440   0.00000  Uiso   1.00
C922   C     0.94739   0.84043   0.74007   0.00000  Uiso   1.00
C923   C     0.80818   0.85978   0.92026   0.00000  Uiso   1.00
C924   C     0.99319   0.84320   0.73620   0.00000  Uiso   1.00
C925   C     0.67412   0.82344   0.76373   0.00000  Uiso   1.00
C926   C     0.84708   0.98910   0.73669   0.00000  Uiso   1.00
C927   C     0.81834   0.67834   0.76368   0.00000  Uiso   1.00
C928   C     0.82272   0.72247   0.76016   0.00000  Uiso   1.00
C929   C     0.84320   0.94453   0.74022   0.00000  Uiso   1.00
C930   C     0.79113   0.90847   0.98594   0.00000  Uiso   1.00
C931   C     0.85171   0.81444   0.62933   0.00000  Uiso   1.00
C932   C     0.81489   0.85101   0.87112   0.00000  Uiso   1.00
C933   C     0.85381   0.74935   0.52231   0.00000  Uiso   1.00
C934   C     0.85752   0.80426   0.58129   0.00000  Uiso   1.00
C935   C     0.79577   0.89862   0.94030   0.00000  Uiso   1.00
C936   C     0.80207   0.88175   0.51188   0.00000  Uiso   1.00
C937   C     0.81918   0.84444   0.99192   0.00000  Uiso   1.00
C938   C     0.81659   0.83117   0.94727   0.00000  Uiso   1.00
C939   C     0.83597   0.81846   0.51542   0.00000  Uiso   1.00
C940   C     0.84078   0.77645   0.99778   0.00000  Uiso   1.00
C941   C     0.83174   0.76164   0.95645   0.00000  Uiso   1.00
C942   C     0.82019   0.78910   0.93152   0.00000  Uiso   1.00
F943   F     0.86882   0.73479   0.58933   0.00000  Uiso   1.00
F944   F     0.85473   0.87386   0.56939   0.00000  Uiso   1.00
F945   F     0.78734   0.92705   0.91602   0.00000  Uiso   1.00
F946   F     0.79048   0.89034   0.55690   0.00000  Uiso   1.00
H947   H     0.98593   0.80507   0.78934   0.00000  Uiso   1.00
H948   H     0.87361   0.67036   0.71192   0.00000  Uiso   1.00
H949   H     0.79137   0.99787   0.78847   0.00000  Uiso   1.00
H950   H     0.85702   0.71713   0.50997   0.00000  Uiso   1.00
H951   H     0.77876   0.93718   0.50150   0.00000  Uiso   1.00
H952   H     0.81183   0.77636   0.90068   0.00000  Uiso   1.00
H953   H     0.68210   0.86140   0.71083   0.00000  Uiso   1.00
H954   H     0.82776   0.71503   0.91116   0.00000  Uiso   1.00
O955   O     0.83333   0.83333   0.75000   0.00000  Uiso   1.00
O956   O     0.82118   0.79304   0.65459   0.00000  Uiso   1.00
O957   O     0.79607   0.87058   0.84968   0.00000  Uiso   1.00
O958   O     0.87491   0.84425   0.64606   0.00000  Uiso   1.00
O959   O     0.84118   0.82546   0.84968   0.00000  Uiso   1.00
O960   O     0.83477   0.72028   0.94080   0.00000  Uiso   1.00
O961   O     0.84597   0.74686   0.78213   0.00000  Uiso   1.00
O962   O     0.81298   0.92751   0.77014   0.00000  Uiso   1.00
O963   O     0.74078   0.79958   0.73413   0.00000  Uiso   1.00
O964   O     0.93360   0.85939   0.71361   0.00000  Uiso   1.00
O965   O     0.73738   0.85544   0.78213   0.00000  Uiso   1.00
O966   O     0.92158   0.81892   0.77013   0.00000  Uiso   1.00
O967   O     0.80426   0.73610   0.73413   0.00000  Uiso   1.00
O968   O     0.87012   0.92286   0.71361   0.00000  Uiso   1.00
Zn969  Zn    0.86005   0.80661   0.78734   0.00000  Uiso   1.00
Zn970  Zn    0.80046   0.79124   0.71876   0.00000  Uiso   1.00
Zn971  Zn    0.87723   0.86442   0.70657   0.00000  Uiso   1.00
Zn972  Zn    0.79560   0.87106   0.78734   0.00000  Uiso   1.00
loop_
_geom_bond_atom_site_label_1
_geom_bond_atom_site_label_2
_geom_bond_distance
_geom_bond_site_symmetry_2
_ccdc_geom_bond_type
C1     O45     1.267   .     A
C1     O47     1.267   .     A
C1     C7      1.437   .     S
C2     C16     1.394   .     A
C2     C21     1.417   .     A
C2     F26     1.357   .     S
C3     F25     1.358   .     S
C3     C15     1.386   .     A
C3     C16     1.398   .     A
C4     O46     1.283   .     A
C4     C6      1.454   .     S
C4     O48     1.281   .     A
C5     C14     1.482   .     S
C5     C17     1.408   .     A
C5     C20     1.421   .     A
C6     C61     1.334   .     S
C6     H89     1.088   .     S
C7     C114    1.334   1_455 S
C7     H137    1.086   1_455 S
C8     C11     1.451   .     S
C8     C171    1.331   .     S
C8     H192    1.088   .     S
C9     C10     1.435   .     S
C9     C332    1.331   1_545 S
C9     H355    1.086   1_545 S
C10    O43     1.273   .     A
C10    O49     1.273   .     A
C11    O44     1.274   .     A
C11    O50     1.273   .     A
C12    C17     1.387   .     A
C12    C504    1.390   .     S
C12    H519    1.083   .     S
C13    O38     1.268   .     A
C13    C16     1.456   .     S
C13    O40     1.281   .     A
C14    O41     1.286   .     A
C14    O39     1.283   .     A
C15    H32     1.083   .     S
C15    C508    1.404   1_554 S
C17    F27     1.358   .     S
C18    F28     1.356   .     S
C18    C498    1.390   1_554 S
C18    C505    1.419   1_554 S
C19    C20     1.420   .     A
C19    C504    1.419   .     S
C19    C507    1.425   .     S
C20    C24     1.409   .     A
C21    C505    1.425   1_554 S
C21    C508    1.426   1_554 S
C22    C23     1.402   .     A
C22    C507    1.426   .     S
C22    C501    1.404   .     S
C23    C24     1.397   .     A
C23    O42     1.384   .     S
C24    H34     1.079   .     S
H29    C61     1.086   .     S
H30    C332    1.088   1_545 S
H31    C171    1.086   .     S
H33    C498    1.083   1_554 S
H35    C114    1.088   1_455 S
H36    O42     0.992   .     S
O37    Zn53    1.944   .     S
O37    Zn54    1.934   .     S
O37    Zn51    1.958   .     S
O37    Zn52    1.932   .     S
O38    Zn52    1.935   .     S
O39    Zn54    1.939   .     S
O40    Zn53    1.929   .     S
O41    Zn51    1.927   .     S
O43    Zn51    1.926   .     S
O44    Zn54    1.934   .     S
O45    Zn52    1.929   .     S
O46    Zn53    1.934   .     S
O47    Zn54    1.929   .     S
O48    Zn51    1.927   .     S
O49    Zn52    1.939   .     S
O50    Zn53    1.929   .     S
C55    O99     1.267   .     A
C55    O101    1.267   .     A
C55    C61     1.437   .     S
C56    C70     1.394   .     A
C56    C75     1.417   .     A
C56    F80     1.357   .     S
C57    F79     1.358   .     S
C57    C69     1.386   .     A
C57    C70     1.398   .     A
C58    O100    1.283   .     A
C58    C60     1.454   .     S
C58    O102    1.281   .     A
C59    C68     1.482   .     S
C59    C71     1.408   .     A
C59    C74     1.421   .     A
C60    C115    1.334   .     S
C60    H143    1.088   .     S
C62    C65     1.451   .     S
C62    C225    1.331   .     S
C62    H246    1.088   .     S
C63    C64     1.435   .     S
C63    C386    1.331   1_545 S
C63    H409    1.086   1_545 S
C64    O97     1.273   .     A
C64    O103    1.273   .     A
C65    O98     1.274   .     A
C65    O104    1.273   .     A
C66    C71     1.387   .     A
C66    C558    1.390   .     S
C66    H573    1.083   .     S
C67    O92     1.268   .     A
C67    C70     1.456   .     S
C67    O94     1.281   .     A
C68    O95     1.286   .     A
C68    O93     1.283   .     A
C69    H86     1.083   .     S
C69    C562    1.404   1_554 S
C71    F81     1.358   .     S
C72    F82     1.356   .     S
C72    C552    1.390   1_554 S
C72    C559    1.419   1_554 S
C73    C74     1.420   .     A
C73    C558    1.419   .     S
C73    C561    1.425   .     S
C74    C78     1.409   .     A
C75    C559    1.425   1_554 S
C75    C562    1.426   1_554 S
C76    C77     1.402   .     A
C76    C561    1.426   .     S
C76    C555    1.404   .     S
C77    C78     1.397   .     A
C77    O96     1.384   .     S
C78    H88     1.079   .     S
H83    C115    1.086   .     S
H84    C386    1.088   1_545 S
H85    C225    1.086   .     S
H87    C552    1.083   1_554 S
H90    O96     0.992   .     S
O91    Zn107   1.944   .     S
O91    Zn108   1.934   .     S
O91    Zn105   1.958   .     S
O91    Zn106   1.932   .     S
O92    Zn106   1.935   .     S
O93    Zn108   1.939   .     S
O94    Zn107   1.929   .     S
O95    Zn105   1.927   .     S
O97    Zn105   1.926   .     S
O98    Zn108   1.934   .     S
O99    Zn106   1.929   .     S
O100   Zn107   1.934   .     S
O101   Zn108   1.929   .     S
O102   Zn105   1.927   .     S
O103   Zn106   1.939   .     S
O104   Zn107   1.929   .     S
C109   O153    1.267   .     A
C109   O155    1.267   .     A
C109   C115    1.437   .     S
C110   C124    1.394   .     A
C110   C129    1.417   .     A
C110   F134    1.357   .     S
C111   F133    1.358   .     S
C111   C123    1.386   .     A
C111   C124    1.398   .     A
C112   O154    1.283   .     A
C112   C114    1.454   .     S
C112   O156    1.281   .     A
C113   C122    1.482   .     S
C113   C125    1.408   .     A
C113   C128    1.421   .     A
C114   C7      1.334   1_655 S
C114   H35     1.088   1_655 S
C116   C119    1.451   .     S
C116   C279    1.331   .     S
C116   H300    1.088   .     S
C117   C118    1.435   .     S
C117   C440    1.331   1_545 S
C117   H463    1.086   1_545 S
C118   O151    1.273   .     A
C118   O157    1.273   .     A
C119   O152    1.274   .     A
C119   O158    1.273   .     A
C120   C125    1.387   .     A
C120   C612    1.390   .     S
C120   H627    1.083   .     S
C121   O146    1.268   .     A
C121   C124    1.456   .     S
C121   O148    1.281   .     A
C122   O149    1.286   .     A
C122   O147    1.283   .     A
C123   H140    1.083   .     S
C123   C616    1.404   1_554 S
C125   F135    1.358   .     S
C126   F136    1.356   .     S
C126   C606    1.390   1_554 S
C126   C613    1.419   1_554 S
C127   C128    1.420   .     A
C127   C612    1.419   .     S
C127   C615    1.425   .     S
C128   C132    1.409   .     A
C129   C613    1.425   1_554 S
C129   C616    1.426   1_554 S
C130   C131    1.402   .     A
C130   C615    1.426   .     S
C130   C609    1.404   .     S
C131   C132    1.397   .     A
C131   O150    1.384   .     S
C132   H142    1.079   .     S
H137   C7      1.086   1_655 S
H138   C440    1.088   1_545 S
H139   C279    1.086   .     S
H141   C606    1.083   1_554 S
H144   O150    0.992   .     S
O145   Zn161   1.944   .     S
O145   Zn162   1.934   .     S
O145   Zn159   1.958   .     S
O145   Zn160   1.932   .     S
O146   Zn160   1.935   .     S
O147   Zn162   1.939   .     S
O148   Zn161   1.929   .     S
O149   Zn159   1.927   .     S
O151   Zn159   1.926   .     S
O152   Zn162   1.934   .     S
O153   Zn160   1.929   .     S
O154   Zn161   1.934   .     S
O155   Zn162   1.929   .     S
O156   Zn159   1.927   .     S
O157   Zn160   1.939   .     S
O158   Zn161   1.929   .     S
C163   O207    1.267   .     A
C163   O209    1.267   .     A
C163   C169    1.437   .     S
C164   C178    1.394   .     A
C164   C183    1.417   .     A
C164   F188    1.357   .     S
C165   F187    1.358   .     S
C165   C177    1.386   .     A
C165   C178    1.398   .     A
C166   O208    1.283   .     A
C166   C168    1.454   .     S
C166   O210    1.281   .     A
C167   C176    1.482   .     S
C167   C179    1.408   .     A
C167   C182    1.421   .     A
C168   C223    1.334   .     S
C168   H251    1.088   .     S
C169   C276    1.334   1_455 S
C169   H299    1.086   1_455 S
C170   C173    1.451   .     S
C170   C333    1.331   .     S
C170   H354    1.088   .     S
C171   C172    1.435   .     S
C172   O205    1.273   .     A
C172   O211    1.273   .     A
C173   O206    1.274   .     A
C173   O212    1.273   .     A
C174   C179    1.387   .     A
C174   C666    1.390   .     S
C174   H681    1.083   .     S
C175   O200    1.268   .     A
C175   C178    1.456   .     S
C175   O202    1.281   .     A
C176   O203    1.286   .     A
C176   O201    1.283   .     A
C177   H194    1.083   .     S
C177   C670    1.404   1_554 S
C179   F189    1.358   .     S
C180   F190    1.356   .     S
C180   C660    1.390   1_554 S
C180   C667    1.419   1_554 S
C181   C182    1.420   .     A
C181   C666    1.419   .     S
C181   C669    1.425   .     S
C182   C186    1.409   .     A
C183   C667    1.425   1_554 S
C183   C670    1.426   1_554 S
C184   C185    1.402   .     A
C184   C669    1.426   .     S
C184   C663    1.404   .     S
C185   C186    1.397   .     A
C185   O204    1.384   .     S
C186   H196    1.079   .     S
H191   C223    1.086   .     S
H193   C333    1.086   .     S
H195   C660    1.083   1_554 S
H197   C276    1.088   1_455 S
H198   O204    0.992   .     S
O199   Zn215   1.944   .     S
O199   Zn216   1.934   .     S
O199   Zn213   1.958   .     S
O199   Zn214   1.932   .     S
O200   Zn214   1.935   .     S
O201   Zn216   1.939   .     S
O202   Zn215   1.929   .     S
O203   Zn213   1.927   .     S
O205   Zn213   1.926   .     S
O206   Zn216   1.934   .     S
O207   Zn214   1.929   .     S
O208   Zn215   1.934   .     S
O209   Zn216   1.929   .     S
O210   Zn213   1.927   .     S
O211   Zn214   1.939   .     S
O212   Zn215   1.929   .     S
C217   O261    1.267   .     A
C217   O263    1.267   .     A
C217   C223    1.437   .     S
C218   C232    1.394   .     A
C218   C237    1.417   .     A
C218   F242    1.357   .     S
C219   F241    1.358   .     S
C219   C231    1.386   .     A
C219   C232    1.398   .     A
C220   O262    1.283   .     A
C220   C222    1.454   .     S
C220   O264    1.281   .     A
C221   C230    1.482   .     S
C221   C233    1.408   .     A
C221   C236    1.421   .     A
C222   C277    1.334   .     S
C222   H305    1.088   .     S
C224   C227    1.451   .     S
C224   C387    1.331   .     S
C224   H408    1.088   .     S
C225   C226    1.435   .     S
C226   O259    1.273   .     A
C226   O265    1.273   .     A
C227   O260    1.274   .     A
C227   O266    1.273   .     A
C228   C233    1.387   .     A
C228   C720    1.390   .     S
C228   H735    1.083   .     S
C229   O254    1.268   .     A
C229   C232    1.456   .     S
C229   O256    1.281   .     A
C230   O257    1.286   .     A
C230   O255    1.283   .     A
C231   H248    1.083   .     S
C231   C724    1.404   1_554 S
C233   F243    1.358   .     S
C234   F244    1.356   .     S
C234   C714    1.390   1_554 S
C234   C721    1.419   1_554 S
C235   C236    1.420   .     A
C235   C720    1.419   .     S
C235   C723    1.425   .     S
C236   C240    1.409   .     A
C237   C721    1.425   1_554 S
C237   C724    1.426   1_554 S
C238   C239    1.402   .     A
C238   C723    1.426   .     S
C238   C717    1.404   .     S
C239   C240    1.397   .     A
C239   O258    1.384   .     S
C240   H250    1.079   .     S
H245   C277    1.086   .     S
H247   C387    1.086   .     S
H249   C714    1.083   1_554 S
H252   O258    0.992   .     S
O253   Zn269   1.944   .     S
O253   Zn270   1.934   .     S
O253   Zn267   1.958   .     S
O253   Zn268   1.932   .     S
O254   Zn268   1.935   .     S
O255   Zn270   1.939   .     S
O256   Zn269   1.929   .     S
O257   Zn267   1.927   .     S
O259   Zn267   1.926   .     S
O260   Zn270   1.934   .     S
O261   Zn268   1.929   .     S
O262   Zn269   1.934   .     S
O263   Zn270   1.929   .     S
O264   Zn267   1.927   .     S
O265   Zn268   1.939   .     S
O266   Zn269   1.929   .     S
C271   O315    1.267   .     A
C271   O317    1.267   .     A
C271   C277    1.437   .     S
C272   C286    1.394   .     A
C272   C291    1.417   .     A
C272   F296    1.357   .     S
C273   F295    1.358   .     S
C273   C285    1.386   .     A
C273   C286    1.398   .     A
C274   O316    1.283   .     A
C274   C276    1.454   .     S
C274   O318    1.281   .     A
C275   C284    1.482   .     S
C275   C287    1.408   .     A
C275   C290    1.421   .     A
C276   C169    1.334   1_655 S
C276   H197    1.088   1_655 S
C278   C281    1.451   .     S
C278   C441    1.331   .     S
C278   H462    1.088   .     S
C279   C280    1.435   .     S
C280   O313    1.273   .     A
C280   O319    1.273   .     A
C281   O314    1.274   .     A
C281   O320    1.273   .     A
C282   C287    1.387   .     A
C282   C774    1.390   .     S
C282   H789    1.083   .     S
C283   O308    1.268   .     A
C283   C286    1.456   .     S
C283   O310    1.281   .     A
C284   O311    1.286   .     A
C284   O309    1.283   .     A
C285   H302    1.083   .     S
C285   C778    1.404   1_554 S
C287   F297    1.358   .     S
C288   F298    1.356   .     S
C288   C768    1.390   1_554 S
C288   C775    1.419   1_554 S
C289   C290    1.420   .     A
C289   C774    1.419   .     S
C289   C777    1.425   .     S
C290   C294    1.409   .     A
C291   C775    1.425   1_554 S
C291   C778    1.426   1_554 S
C292   C293    1.402   .     A
C292   C777    1.426   .     S
C292   C771    1.404   .     S
C293   C294    1.397   .     A
C293   O312    1.384   .     S
C294   H304    1.079   .     S
H299   C169    1.086   1_655 S
H301   C441    1.086   .     S
H303   C768    1.083   1_554 S
H306   O312    0.992   .     S
O307   Zn323   1.944   .     S
O307   Zn324   1.934   .     S
O307   Zn321   1.958   .     S
O307   Zn322   1.932   .     S
O308   Zn322   1.935   .     S
O309   Zn324   1.939   .     S
O310   Zn323   1.929   .     S
O311   Zn321   1.927   .     S
O313   Zn321   1.926   .     S
O314   Zn324   1.934   .     S
O315   Zn322   1.929   .     S
O316   Zn323   1.934   .     S
O317   Zn324   1.929   .     S
O318   Zn321   1.927   .     S
O319   Zn322   1.939   .     S
O320   Zn323   1.929   .     S
C325   O369    1.267   .     A
C325   O371    1.267   .     A
C325   C331    1.437   .     S
C326   C340    1.394   .     A
C326   C345    1.417   .     A
C326   F350    1.357   .     S
C327   F349    1.358   .     S
C327   C339    1.386   .     A
C327   C340    1.398   .     A
C328   O370    1.283   .     A
C328   C330    1.454   .     S
C328   O372    1.281   .     A
C329   C338    1.482   .     S
C329   C341    1.408   .     A
C329   C344    1.421   .     A
C330   C385    1.334   .     S
C330   H413    1.088   .     S
C331   C438    1.334   1_455 S
C331   H461    1.086   1_455 S
C332   C335    1.451   .     S
C332   C9      1.331   1_565 S
C332   H30     1.088   1_565 S
C333   C334    1.435   .     S
C334   O367    1.273   .     A
C334   O373    1.273   .     A
C335   O368    1.274   .     A
C335   O374    1.273   .     A
C336   C341    1.387   .     A
C336   C828    1.390   .     S
C336   H843    1.083   .     S
C337   O362    1.268   .     A
C337   C340    1.456   .     S
C337   O364    1.281   .     A
C338   O365    1.286   .     A
C338   O363    1.283   .     A
C339   H356    1.083   .     S
C339   C832    1.404   1_554 S
C341   F351    1.358   .     S
C342   F352    1.356   .     S
C342   C822    1.390   1_554 S
C342   C829    1.419   1_554 S
C343   C344    1.420   .     A
C343   C828    1.419   .     S
C343   C831    1.425   .     S
C344   C348    1.409   .     A
C345   C829    1.425   1_554 S
C345   C832    1.426   1_554 S
C346   C347    1.402   .     A
C346   C831    1.426   .     S
C346   C825    1.404   .     S
C347   C348    1.397   .     A
C347   O366    1.384   .     S
C348   H358    1.079   .     S
H353   C385    1.086   .     S
H355   C9      1.086   1_565 S
H357   C822    1.083   1_554 S
H359   C438    1.088   1_455 S
H360   O366    0.992   .     S
O361   Zn377   1.944   .     S
O361   Zn378   1.934   .     S
O361   Zn375   1.958   .     S
O361   Zn376   1.932   .     S
O362   Zn376   1.935   .     S
O363   Zn378   1.939   .     S
O364   Zn377   1.929   .     S
O365   Zn375   1.927   .     S
O367   Zn375   1.926   .     S
O368   Zn378   1.934   .     S
O369   Zn376   1.929   .     S
O370   Zn377   1.934   .     S
O371   Zn378   1.929   .     S
O372   Zn375   1.927   .     S
O373   Zn376   1.939   .     S
O374   Zn377   1.929   .     S
C379   O423    1.267   .     A
C379   O425    1.267   .     A
C379   C385    1.437   .     S
C380   C394    1.394   .     A
C380   C399    1.417   .     A
C380   F404    1.357   .     S
C381   F403    1.358   .     S
C381   C393    1.386   .     A
C381   C394    1.398   .     A
C382   O424    1.283   .     A
C382   C384    1.454   .     S
C382   O426    1.281   .     A
C383   C392    1.482   .     S
C383   C395    1.408   .     A
C383   C398    1.421   .     A
C384   C439    1.334   .     S
C384   H467    1.088   .     S
C386   C389    1.451   .     S
C386   C63     1.331   1_565 S
C386   H84     1.088   1_565 S
C387   C388    1.435   .     S
C388   O421    1.273   .     A
C388   O427    1.273   .     A
C389   O422    1.274   .     A
C389   O428    1.273   .     A
C390   C395    1.387   .     A
C390   C882    1.390   .     S
C390   H897    1.083   .     S
C391   O416    1.268   .     A
C391   C394    1.456   .     S
C391   O418    1.281   .     A
C392   O419    1.286   .     A
C392   O417    1.283   .     A
C393   H410    1.083   .     S
C393   C886    1.404   1_554 S
C395   F405    1.358   .     S
C396   F406    1.356   .     S
C396   C876    1.390   1_554 S
C396   C883    1.419   1_554 S
C397   C398    1.420   .     A
C397   C882    1.419   .     S
C397   C885    1.425   .     S
C398   C402    1.409   .     A
C399   C883    1.425   1_554 S
C399   C886    1.426   1_554 S
C400   C401    1.402   .     A
C400   C885    1.426   .     S
C400   C879    1.404   .     S
C401   C402    1.397   .     A
C401   O420    1.384   .     S
C402   H412    1.079   .     S
H407   C439    1.086   .     S
H409   C63     1.086   1_565 S
H411   C876    1.083   1_554 S
H414   O420    0.992   .     S
O415   Zn431   1.944   .     S
O415   Zn432   1.934   .     S
O415   Zn429   1.958   .     S
O415   Zn430   1.932   .     S
O416   Zn430   1.935   .     S
O417   Zn432   1.939   .     S
O418   Zn431   1.929   .     S
O419   Zn429   1.927   .     S
O421   Zn429   1.926   .     S
O422   Zn432   1.934   .     S
O423   Zn430   1.929   .     S
O424   Zn431   1.934   .     S
O425   Zn432   1.929   .     S
O426   Zn429   1.927   .     S
O427   Zn430   1.939   .     S
O428   Zn431   1.929   .     S
C433   O477    1.267   .     A
C433   O479    1.267   .     A
C433   C439    1.437   .     S
C434   C448    1.394   .     A
C434   C453    1.417   .     A
C434   F458    1.357   .     S
C435   F457    1.358   .     S
C435   C447    1.386   .     A
C435   C448    1.398   .     A
C436   O478    1.283   .     A
C436   C438    1.454   .     S
C436   O480    1.281   .     A
C437   C446    1.482   .     S
C437   C449    1.408   .     A
C437   C452    1.421   .     A
C438   C331    1.334   1_655 S
C438   H359    1.088   1_655 S
C440   C443    1.451   .     S
C440   C117    1.331   1_565 S
C440   H138    1.088   1_565 S
C441   C442    1.435   .     S
C442   O475    1.273   .     A
C442   O481    1.273   .     A
C443   O476    1.274   .     A
C443   O482    1.273   .     A
C444   C449    1.387   .     A
C444   C936    1.390   .     S
C444   H951    1.083   .     S
C445   O470    1.268   .     A
C445   C448    1.456   .     S
C445   O472    1.281   .     A
C446   O473    1.286   .     A
C446   O471    1.283   .     A
C447   H464    1.083   .     S
C447   C940    1.404   1_554 S
C449   F459    1.358   .     S
C450   F460    1.356   .     S
C450   C930    1.390   1_554 S
C450   C937    1.419   1_554 S
C451   C452    1.420   .     A
C451   C936    1.419   .     S
C451   C939    1.425   .     S
C452   C456    1.409   .     A
C453   C937    1.425   1_554 S
C453   C940    1.426   1_554 S
C454   C455    1.402   .     A
C454   C939    1.426   .     S
C454   C933    1.404   .     S
C455   C456    1.397   .     A
C455   O474    1.384   .     S
C456   H466    1.079   .     S
H461   C331    1.086   1_655 S
H463   C117    1.086   1_565 S
H465   C930    1.083   1_554 S
H468   O474    0.992   .     S
O469   Zn485   1.944   .     S
O469   Zn486   1.934   .     S
O469   Zn483   1.958   .     S
O469   Zn484   1.932   .     S
O470   Zn484   1.935   .     S
O471   Zn486   1.939   .     S
O472   Zn485   1.929   .     S
O473   Zn483   1.927   .     S
O475   Zn483   1.926   .     S
O476   Zn486   1.934   .     S
O477   Zn484   1.929   .     S
O478   Zn485   1.934   .     S
O479   Zn486   1.929   .     S
O480   Zn483   1.927   .     S
O481   Zn484   1.939   .     S
O482   Zn485   1.929   .     S
C487   O531    1.267   .     A
C487   O533    1.267   .     A
C487   C493    1.437   .     S
C488   C502    1.394   .     A
C488   C507    1.417   .     A
C488   F512    1.357   .     S
C489   F511    1.358   .     S
C489   C501    1.386   .     A
C489   C502    1.398   .     A
C490   O532    1.283   .     A
C490   C492    1.454   .     S
C490   O534    1.281   .     A
C491   C500    1.482   .     S
C491   C503    1.408   .     A
C491   C506    1.421   .     A
C492   C547    1.334   .     S
C492   H575    1.088   .     S
C493   C600    1.334   1_455 S
C493   H623    1.086   1_455 S
C494   C497    1.451   .     S
C494   C657    1.331   .     S
C494   H678    1.088   .     S
C495   C496    1.435   .     S
C495   C818    1.331   1_545 S
C495   H841    1.086   1_545 S
C496   O529    1.273   .     A
C496   O535    1.273   .     A
C497   O530    1.274   .     A
C497   O536    1.273   .     A
C498   C503    1.387   .     A
C498   C18     1.390   1_556 S
C498   H33     1.083   1_556 S
C499   O524    1.268   .     A
C499   C502    1.456   .     S
C499   O526    1.281   .     A
C500   O527    1.286   .     A
C500   O525    1.283   .     A
C501   H518    1.083   .     S
C503   F513    1.358   .     S
C504   F514    1.356   .     S
C505   C506    1.420   .     A
C505   C18     1.419   1_556 S
C505   C21     1.425   1_556 S
C506   C510    1.409   .     A
C508   C509    1.402   .     A
C508   C21     1.426   1_556 S
C508   C15     1.404   1_556 S
C509   C510    1.397   .     A
C509   O528    1.384   .     S
C510   H520    1.079   .     S
H515   C547    1.086   .     S
H516   C818    1.088   1_545 S
H517   C657    1.086   .     S
H521   C600    1.088   1_455 S
H522   O528    0.992   .     S
O523   Zn539   1.944   .     S
O523   Zn540   1.934   .     S
O523   Zn537   1.958   .     S
O523   Zn538   1.932   .     S
O524   Zn538   1.935   .     S
O525   Zn540   1.939   .     S
O526   Zn539   1.929   .     S
O527   Zn537   1.927   .     S
O529   Zn537   1.926   .     S
O530   Zn540   1.934   .     S
O531   Zn538   1.929   .     S
O532   Zn539   1.934   .     S
O533   Zn540   1.929   .     S
O534   Zn537   1.927   .     S
O535   Zn538   1.939   .     S
O536   Zn539   1.929   .     S
C541   O585    1.267   .     A
C541   O587    1.267   .     A
C541   C547    1.437   .     S
C542   C556    1.394   .     A
C542   C561    1.417   .     A
C542   F566    1.357   .     S
C543   F565    1.358   .     S
C543   C555    1.386   .     A
C543   C556    1.398   .     A
C544   O586    1.283   .     A
C544   C546    1.454   .     S
C544   O588    1.281   .     A
C545   C554    1.482   .     S
C545   C557    1.408   .     A
C545   C560    1.421   .     A
C546   C601    1.334   .     S
C546   H629    1.088   .     S
C548   C551    1.451   .     S
C548   C711    1.331   .     S
C548   H732    1.088   .     S
C549   C550    1.435   .     S
C549   C872    1.331   1_545 S
C549   H895    1.086   1_545 S
C550   O583    1.273   .     A
C550   O589    1.273   .     A
C551   O584    1.274   .     A
C551   O590    1.273   .     A
C552   C557    1.387   .     A
C552   C72     1.390   1_556 S
C552   H87     1.083   1_556 S
C553   O578    1.268   .     A
C553   C556    1.456   .     S
C553   O580    1.281   .     A
C554   O581    1.286   .     A
C554   O579    1.283   .     A
C555   H572    1.083   .     S
C557   F567    1.358   .     S
C558   F568    1.356   .     S
C559   C560    1.420   .     A
C559   C72     1.419   1_556 S
C559   C75     1.425   1_556 S
C560   C564    1.409   .     A
C562   C563    1.402   .     A
C562   C75     1.426   1_556 S
C562   C69     1.404   1_556 S
C563   C564    1.397   .     A
C563   O582    1.384   .     S
C564   H574    1.079   .     S
H569   C601    1.086   .     S
H570   C872    1.088   1_545 S
H571   C711    1.086   .     S
H576   O582    0.992   .     S
O577   Zn593   1.944   .     S
O577   Zn594   1.934   .     S
O577   Zn591   1.958   .     S
O577   Zn592   1.932   .     S
O578   Zn592   1.935   .     S
O579   Zn594   1.939   .     S
O580   Zn593   1.929   .     S
O581   Zn591   1.927   .     S
O583   Zn591   1.926   .     S
O584   Zn594   1.934   .     S
O585   Zn592   1.929   .     S
O586   Zn593   1.934   .     S
O587   Zn594   1.929   .     S
O588   Zn591   1.927   .     S
O589   Zn592   1.939   .     S
O590   Zn593   1.929   .     S
C595   O639    1.267   .     A
C595   O641    1.267   .     A
C595   C601    1.437   .     S
C596   C610    1.394   .     A
C596   C615    1.417   .     A
C596   F620    1.357   .     S
C597   F619    1.358   .     S
C597   C609    1.386   .     A
C597   C610    1.398   .     A
C598   O640    1.283   .     A
C598   C600    1.454   .     S
C598   O642    1.281   .     A
C599   C608    1.482   .     S
C599   C611    1.408   .     A
C599   C614    1.421   .     A
C600   C493    1.334   1_655 S
C600   H521    1.088   1_655 S
C602   C605    1.451   .     S
C602   C765    1.331   .     S
C602   H786    1.088   .     S
C603   C604    1.435   .     S
C603   C926    1.331   1_545 S
C603   H949    1.086   1_545 S
C604   O637    1.273   .     A
C604   O643    1.273   .     A
C605   O638    1.274   .     A
C605   O644    1.273   .     A
C606   C611    1.387   .     A
C606   C126    1.390   1_556 S
C606   H141    1.083   1_556 S
C607   O632    1.268   .     A
C607   C610    1.456   .     S
C607   O634    1.281   .     A
C608   O635    1.286   .     A
C608   O633    1.283   .     A
C609   H626    1.083   .     S
C611   F621    1.358   .     S
C612   F622    1.356   .     S
C613   C614    1.420   .     A
C613   C126    1.419   1_556 S
C613   C129    1.425   1_556 S
C614   C618    1.409   .     A
C616   C617    1.402   .     A
C616   C129    1.426   1_556 S
C616   C123    1.404   1_556 S
C617   C618    1.397   .     A
C617   O636    1.384   .     S
C618   H628    1.079   .     S
H623   C493    1.086   1_655 S
H624   C926    1.088   1_545 S
H625   C765    1.086   .     S
H630   O636    0.992   .     S
O631   Zn647   1.944   .     S
O631   Zn648   1.934   .     S
O631   Zn645   1.958   .     S
O631   Zn646   1.932   .     S
O632   Zn646   1.935   .     S
O633   Zn648   1.939   .     S
O634   Zn647   1.929   .     S
O635   Zn645   1.927   .     S
O637   Zn645   1.926   .     S
O638   Zn648   1.934   .     S
O639   Zn646   1.929   .     S
O640   Zn647   1.934   .     S
O641   Zn648   1.929   .     S
O642   Zn645   1.927   .     S
O643   Zn646   1.939   .     S
O644   Zn647   1.929   .     S
C649   O693    1.267   .     A
C649   O695    1.267   .     A
C649   C655    1.437   .     S
C650   C664    1.394   .     A
C650   C669    1.417   .     A
C650   F674    1.357   .     S
C651   F673    1.358   .     S
C651   C663    1.386   .     A
C651   C664    1.398   .     A
C652   O694    1.283   .     A
C652   C654    1.454   .     S
C652   O696    1.281   .     A
C653   C662    1.482   .     S
C653   C665    1.408   .     A
C653   C668    1.421   .     A
C654   C709    1.334   .     S
C654   H737    1.088   .     S
C655   C762    1.334   1_455 S
C655   H785    1.086   1_455 S
C656   C659    1.451   .     S
C656   C819    1.331   .     S
C656   H840    1.088   .     S
C657   C658    1.435   .     S
C658   O691    1.273   .     A
C658   O697    1.273   .     A
C659   O692    1.274   .     A
C659   O698    1.273   .     A
C660   C665    1.387   .     A
C660   C180    1.390   1_556 S
C660   H195    1.083   1_556 S
C661   O686    1.268   .     A
C661   C664    1.456   .     S
C661   O688    1.281   .     A
C662   O689    1.286   .     A
C662   O687    1.283   .     A
C663   H680    1.083   .     S
C665   F675    1.358   .     S
C666   F676    1.356   .     S
C667   C668    1.420   .     A
C667   C180    1.419   1_556 S
C667   C183    1.425   1_556 S
C668   C672    1.409   .     A
C670   C671    1.402   .     A
C670   C183    1.426   1_556 S
C670   C177    1.404   1_556 S
C671   C672    1.397   .     A
C671   O690    1.384   .     S
C672   H682    1.079   .     S
H677   C709    1.086   .     S
H679   C819    1.086   .     S
H683   C762    1.088   1_455 S
H684   O690    0.992   .     S
O685   Zn701   1.944   .     S
O685   Zn702   1.934   .     S
O685   Zn699   1.958   .     S
O685   Zn700   1.932   .     S
O686   Zn700   1.935   .     S
O687   Zn702   1.939   .     S
O688   Zn701   1.929   .     S
O689   Zn699   1.927   .     S
O691   Zn699   1.926   .     S
O692   Zn702   1.934   .     S
O693   Zn700   1.929   .     S
O694   Zn701   1.934   .     S
O695   Zn702   1.929   .     S
O696   Zn699   1.927   .     S
O697   Zn700   1.939   .     S
O698   Zn701   1.929   .     S
C703   O747    1.267   .     A
C703   O749    1.267   .     A
C703   C709    1.437   .     S
C704   C718    1.394   .     A
C704   C723    1.417   .     A
C704   F728    1.357   .     S
C705   F727    1.358   .     S
C705   C717    1.386   .     A
C705   C718    1.398   .     A
C706   O748    1.283   .     A
C706   C708    1.454   .     S
C706   O750    1.281   .     A
C707   C716    1.482   .     S
C707   C719    1.408   .     A
C707   C722    1.421   .     A
C708   C763    1.334   .     S
C708   H791    1.088   .     S
C710   C713    1.451   .     S
C710   C873    1.331   .     S
C710   H894    1.088   .     S
C711   C712    1.435   .     S
C712   O745    1.273   .     A
C712   O751    1.273   .     A
C713   O746    1.274   .     A
C713   O752    1.273   .     A
C714   C719    1.387   .     A
C714   C234    1.390   1_556 S
C714   H249    1.083   1_556 S
C715   O740    1.268   .     A
C715   C718    1.456   .     S
C715   O742    1.281   .     A
C716   O743    1.286   .     A
C716   O741    1.283   .     A
C717   H734    1.083   .     S
C719   F729    1.358   .     S
C720   F730    1.356   .     S
C721   C722    1.420   .     A
C721   C234    1.419   1_556 S
C721   C237    1.425   1_556 S
C722   C726    1.409   .     A
C724   C725    1.402   .     A
C724   C237    1.426   1_556 S
C724   C231    1.404   1_556 S
C725   C726    1.397   .     A
C725   O744    1.384   .     S
C726   H736    1.079   .     S
H731   C763    1.086   .     S
H733   C873    1.086   .     S
H738   O744    0.992   .     S
O739   Zn755   1.944   .     S
O739   Zn756   1.934   .     S
O739   Zn753   1.958   .     S
O739   Zn754   1.932   .     S
O740   Zn754   1.935   .     S
O741   Zn756   1.939   .     S
O742   Zn755   1.929   .     S
O743   Zn753   1.927   .     S
O745   Zn753   1.926   .     S
O746   Zn756   1.934   .     S
O747   Zn754   1.929   .     S
O748   Zn755   1.934   .     S
O749   Zn756   1.929   .     S
O750   Zn753   1.927   .     S
O751   Zn754   1.939   .     S
O752   Zn755   1.929   .     S
C757   O801    1.267   .     A
C757   O803    1.267   .     A
C757   C763    1.437   .     S
C758   C772    1.394   .     A
C758   C777    1.417   .     A
C758   F782    1.357   .     S
C759   F781    1.358   .     S
C759   C771    1.386   .     A
C759   C772    1.398   .     A
C760   O802    1.283   .     A
C760   C762    1.454   .     S
C760   O804    1.281   .     A
C761   C770    1.482   .     S
C761   C773    1.408   .     A
C761   C776    1.421   .     A
C762   C655    1.334   1_655 S
C762   H683    1.088   1_655 S
C764   C767    1.451   .     S
C764   C927    1.331   .     S
C764   H948    1.088   .     S
C765   C766    1.435   .     S
C766   O799    1.273   .     A
C766   O805    1.273   .     A
C767   O800    1.274   .     A
C767   O806    1.273   .     A
C768   C773    1.387   .     A
C768   C288    1.390   1_556 S
C768   H303    1.083   1_556 S
C769   O794    1.268   .     A
C769   C772    1.456   .     S
C769   O796    1.281   .     A
C770   O797    1.286   .     A
C770   O795    1.283   .     A
C771   H788    1.083   .     S
C773   F783    1.358   .     S
C774   F784    1.356   .     S
C775   C776    1.420   .     A
C775   C288    1.419   1_556 S
C775   C291    1.425   1_556 S
C776   C780    1.409   .     A
C778   C779    1.402   .     A
C778   C291    1.426   1_556 S
C778   C285    1.404   1_556 S
C779   C780    1.397   .     A
C779   O798    1.384   .     S
C780   H790    1.079   .     S
H785   C655    1.086   1_655 S
H787   C927    1.086   .     S
H792   O798    0.992   .     S
O793   Zn809   1.944   .     S
O793   Zn810   1.934   .     S
O793   Zn807   1.958   .     S
O793   Zn808   1.932   .     S
O794   Zn808   1.935   .     S
O795   Zn810   1.939   .     S
O796   Zn809   1.929   .     S
O797   Zn807   1.927   .     S
O799   Zn807   1.926   .     S
O800   Zn810   1.934   .     S
O801   Zn808   1.929   .     S
O802   Zn809   1.934   .     S
O803   Zn810   1.929   .     S
O804   Zn807   1.927   .     S
O805   Zn808   1.939   .     S
O806   Zn809   1.929   .     S
C811   O855    1.267   .     A
C811   O857    1.267   .     A
C811   C817    1.437   .     S
C812   C826    1.394   .     A
C812   C831    1.417   .     A
C812   F836    1.357   .     S
C813   F835    1.358   .     S
C813   C825    1.386   .     A
C813   C826    1.398   .     A
C814   O856    1.283   .     A
C814   C816    1.454   .     S
C814   O858    1.281   .     A
C815   C824    1.482   .     S
C815   C827    1.408   .     A
C815   C830    1.421   .     A
C816   C871    1.334   .     S
C816   H899    1.088   .     S
C817   C924    1.334   1_455 S
C817   H947    1.086   1_455 S
C818   C821    1.451   .     S
C818   C495    1.331   1_565 S
C818   H516    1.088   1_565 S
C819   C820    1.435   .     S
C820   O853    1.273   .     A
C820   O859    1.273   .     A
C821   O854    1.274   .     A
C821   O860    1.273   .     A
C822   C827    1.387   .     A
C822   C342    1.390   1_556 S
C822   H357    1.083   1_556 S
C823   O848    1.268   .     A
C823   C826    1.456   .     S
C823   O850    1.281   .     A
C824   O851    1.286   .     A
C824   O849    1.283   .     A
C825   H842    1.083   .     S
C827   F837    1.358   .     S
C828   F838    1.356   .     S
C829   C830    1.420   .     A
C829   C342    1.419   1_556 S
C829   C345    1.425   1_556 S
C830   C834    1.409   .     A
C832   C833    1.402   .     A
C832   C345    1.426   1_556 S
C832   C339    1.404   1_556 S
C833   C834    1.397   .     A
C833   O852    1.384   .     S
C834   H844    1.079   .     S
H839   C871    1.086   .     S
H841   C495    1.086   1_565 S
H845   C924    1.088   1_455 S
H846   O852    0.992   .     S
O847   Zn863   1.944   .     S
O847   Zn864   1.934   .     S
O847   Zn861   1.958   .     S
O847   Zn862   1.932   .     S
O848   Zn862   1.935   .     S
O849   Zn864   1.939   .     S
O850   Zn863   1.929   .     S
O851   Zn861   1.927   .     S
O853   Zn861   1.926   .     S
O854   Zn864   1.934   .     S
O855   Zn862   1.929   .     S
O856   Zn863   1.934   .     S
O857   Zn864   1.929   .     S
O858   Zn861   1.927   .     S
O859   Zn862   1.939   .     S
O860   Zn863   1.929   .     S
C865   O909    1.267   .     A
C865   O911    1.267   .     A
C865   C871    1.437   .     S
C866   C880    1.394   .     A
C866   C885    1.417   .     A
C866   F890    1.357   .     S
C867   F889    1.358   .     S
C867   C879    1.386   .     A
C867   C880    1.398   .     A
C868   O910    1.283   .     A
C868   C870    1.454   .     S
C868   O912    1.281   .     A
C869   C878    1.482   .     S
C869   C881    1.408   .     A
C869   C884    1.421   .     A
C870   C925    1.334   .     S
C870   H953    1.088   .     S
C872   C875    1.451   .     S
C872   C549    1.331   1_565 S
C872   H570    1.088   1_565 S
C873   C874    1.435   .     S
C874   O907    1.273   .     A
C874   O913    1.273   .     A
C875   O908    1.274   .     A
C875   O914    1.273   .     A
C876   C881    1.387   .     A
C876   C396    1.390   1_556 S
C876   H411    1.083   1_556 S
C877   O902    1.268   .     A
C877   C880    1.456   .     S
C877   O904    1.281   .     A
C878   O905    1.286   .     A
C878   O903    1.283   .     A
C879   H896    1.083   .     S
C881   F891    1.358   .     S
C882   F892    1.356   .     S
C883   C884    1.420   .     A
C883   C396    1.419   1_556 S
C883   C399    1.425   1_556 S
C884   C888    1.409   .     A
C886   C887    1.402   .     A
C886   C399    1.426   1_556 S
C886   C393    1.404   1_556 S
C887   C888    1.397   .     A
C887   O906    1.384   .     S
C888   H898    1.079   .     S
H893   C925    1.086   .     S
H895   C549    1.086   1_565 S
H900   O906    0.992   .     S
O901   Zn917   1.944   .     S
O901   Zn918   1.934   .     S
O901   Zn915   1.958   .     S
O901   Zn916   1.932   .     S
O902   Zn916   1.935   .     S
O903   Zn918   1.939   .     S
O904   Zn917   1.929   .     S
O905   Zn915   1.927   .     S
O907   Zn915   1.926   .     S
O908   Zn918   1.934   .     S
O909   Zn916   1.929   .     S
O910   Zn917   1.934   .     S
O911   Zn918   1.929   .     S
O912   Zn915   1.927   .     S
O913   Zn916   1.939   .     S
O914   Zn917   1.929   .     S
C919   O963    1.267   .     A
C919   O965    1.267   .     A
C919   C925    1.437   .     S
C920   C934    1.394   .     A
C920   C939    1.417   .     A
C920   F944    1.357   .     S
C921   F943    1.358   .     S
C921   C933    1.386   .     A
C921   C934    1.398   .     A
C922   O964    1.283   .     A
C922   C924    1.454   .     S
C922   O966    1.281   .     A
C923   C932    1.482   .     S
C923   C935    1.408   .     A
C923   C938    1.421   .     A
C924   C817    1.334   1_655 S
C924   H845    1.088   1_655 S
C926   C929    1.451   .     S
C926   C603    1.331   1_565 S
C926   H624    1.088   1_565 S
C927   C928    1.435   .     S
C928   O961    1.273   .     A
C928   O967    1.273   .     A
C929   O962    1.274   .     A
C929   O968    1.273   .     A
C930   C935    1.387   .     A
C930   C450    1.390   1_556 S
C930   H465    1.083   1_556 S
C931   O956    1.268   .     A
C931   C934    1.456   .     S
C931   O958    1.281   .     A
C932   O959    1.286   .     A
C932   O957    1.283   .     A
C933   H950    1.083   .     S
C935   F945    1.358   .     S
C936   F946    1.356   .     S
C937   C938    1.420   .     A
C937   C450    1.419   1_556 S
C937   C453    1.425   1_556 S
C938   C942    1.409   .     A
C940   C941    1.402   .     A
C940   C453    1.426   1_556 S
C940   C447    1.404   1_556 S
C941   C942    1.397   .     A
C941   O960    1.384   .     S
C942   H952    1.079   .     S
H947   C817    1.086   1_655 S
H949   C603    1.086   1_565 S
H954   O960    0.992   .     S
O955   Zn971   1.944   .     S
O955   Zn972   1.934   .     S
O955   Zn969   1.958   .     S
O955   Zn970   1.932   .     S
O956   Zn970   1.935   .     S
O957   Zn972   1.939   .     S
O958   Zn971   1.929   .     S
O959   Zn969   1.927   .     S
O961   Zn969   1.926   .     S
O962   Zn972   1.934   .     S
O963   Zn970   1.929   .     S
O964   Zn971   1.934   .     S
O965   Zn972   1.929   .     S
O966   Zn969   1.927   .     S
O967   Zn970   1.939   .     S
O968   Zn971   1.929   .     S
