data_str_m1_o10_o18_pcu_sym.84
_audit_creation_date              2020-01-03
_audit_creation_method            'Materials Studio'
_symmetry_space_group_name_H-M    'P1'
_symmetry_Int_Tables_number       1
_symmetry_cell_setting            triclinic
loop_
_symmetry_equiv_pos_as_xyz
  x,y,z
_cell_length_a                    32.6842
_cell_length_b                    32.6311
_cell_length_c                    35.5904
_cell_angle_alpha                 98.6413
_cell_angle_beta                  72.7694
_cell_angle_gamma                 98.9162
loop_
_atom_site_label
_atom_site_type_symbol
_atom_site_fract_x
_atom_site_fract_y
_atom_site_fract_z
_atom_site_U_iso_or_equiv
_atom_site_adp_type
_atom_site_occupancy
C1     C     0.05278   0.16023   0.25838   0.00000  Uiso   1.00
C2     C     0.19832   0.13496   0.45899   0.00000  Uiso   1.00
C3     C     0.21550   0.11062   0.47814   0.00000  Uiso   1.00
C4     C     0.28101   0.17346   0.24128   0.00000  Uiso   1.00
C5     C     0.20361   0.11448   0.02000   0.00000  Uiso   1.00
C6     C     0.18321   0.14996   0.04079   0.00000  Uiso   1.00
C7     C     0.21159   0.08527   0.04197   0.00000  Uiso   1.00
C8     C     0.20730   0.09589   0.08273   0.00000  Uiso   1.00
C9     C     0.18623   0.16356   0.07962   0.00000  Uiso   1.00
C10    C     0.32688   0.17505   0.23751   0.00000  Uiso   1.00
C11    C     0.00755   0.15751   0.26288   0.00000  Uiso   1.00
C12    C     0.12907   0.24029   0.41785   0.00000  Uiso   1.00
C13    C     0.18347   0.32287   0.24092   0.00000  Uiso   1.00
C14    C     0.15062   0.01234   0.26034   0.00000  Uiso   1.00
C15    C     0.15548   0.05635   0.25889   0.00000  Uiso   1.00
C16    C     0.17708   0.27779   0.24169   0.00000  Uiso   1.00
C17    C     0.18804   0.14526   0.14385   0.00000  Uiso   1.00
C18    C     0.14564   0.18826   0.35626   0.00000  Uiso   1.00
C19    C     0.13829   0.19964   0.39948   0.00000  Uiso   1.00
C20    C     0.19620   0.13561   0.10096   0.00000  Uiso   1.00
C21    C     0.12074   0.24930   0.45955   0.00000  Uiso   1.00
C22    C     0.22748   0.00797   0.21877   0.00000  Uiso   1.00
C23    C     0.14419   0.17053   0.42219   0.00000  Uiso   1.00
C24    C     0.11134   0.29179   0.47886   0.00000  Uiso   1.00
C25    C     0.13004   0.27397   0.39368   0.00000  Uiso   1.00
C26    C     0.14687   0.18361   0.46100   0.00000  Uiso   1.00
C27    C     0.12709   0.21927   0.48167   0.00000  Uiso   1.00
C28    C     0.16771   0.16187   0.48031   0.00000  Uiso   1.00
C29    C     0.16122   0.17061   0.02157   0.00000  Uiso   1.00
C30    C     0.12968   0.19662   0.04275   0.00000  Uiso   1.00
C31    C     0.11384   0.22217   0.02361   0.00000  Uiso   1.00
H32    H     0.11659   0.19681   0.07443   0.00000  Uiso   1.00
H33    H     0.21006   0.13356   0.42709   0.00000  Uiso   1.00
H34    H     0.25376   0.32206   0.20880   0.00000  Uiso   1.00
H35    H     0.12552   0.30619   0.00230   0.00000  Uiso   1.00
H36    H     0.10741   0.27146   0.37626   0.00000  Uiso   1.00
I37    I     0.06300   0.25564   0.06132   0.00000  Uiso   1.00
I38    I     0.21500   0.02090   0.01864   0.00000  Uiso   1.00
I39    I     0.03771   0.20576   0.18982   0.00000  Uiso   1.00
I40    I     0.30405   0.12738   0.31394   0.00000  Uiso   1.00
I41    I     0.08464   0.32290   0.28691   0.00000  Uiso   1.00
I42    I     0.18732   0.22860   0.10313   0.00000  Uiso   1.00
I43    I     0.22052   0.05336   0.11700   0.00000  Uiso   1.00
I44    I     0.26910   0.08096   0.44056   0.00000  Uiso   1.00
I45    I     0.13266   0.10472   0.40379   0.00000  Uiso   1.00
O46    O     0.16667   0.16667   0.25000   0.00000  Uiso   1.00
O47    O     0.15693   0.12393   0.16625   0.00000  Uiso   1.00
O48    O     0.12687   0.20646   0.33749   0.00000  Uiso   1.00
O49    O     0.21088   0.17493   0.15877   0.00000  Uiso   1.00
O50    O     0.17198   0.16135   0.33749   0.00000  Uiso   1.00
O51    O     0.23511   0.04396   0.21077   0.00000  Uiso   1.00
O52    O     0.08717   0.31071   0.46935   0.00000  Uiso   1.00
O53    O     0.15611   0.30513   0.39353   0.00000  Uiso   1.00
O54    O     0.17849   0.08101   0.27820   0.00000  Uiso   1.00
O55    O     0.14581   0.26136   0.26767   0.00000  Uiso   1.00
O56    O     0.07452   0.13251   0.23607   0.00000  Uiso   1.00
O57    O     0.26785   0.19179   0.21805   0.00000  Uiso   1.00
O58    O     0.06990   0.18960   0.27820   0.00000  Uiso   1.00
O59    O     0.25440   0.15277   0.26767   0.00000  Uiso   1.00
O60    O     0.13800   0.06903   0.23607   0.00000  Uiso   1.00
O61    O     0.20437   0.25527   0.21805   0.00000  Uiso   1.00
Zn62   Zn    0.19244   0.14090   0.28277   0.00000  Uiso   1.00
Zn63   Zn    0.13459   0.12378   0.22257   0.00000  Uiso   1.00
Zn64   Zn    0.21166   0.19664   0.21188   0.00000  Uiso   1.00
Zn65   Zn    0.12798   0.20535   0.28277   0.00000  Uiso   1.00
C66    C     0.38611   0.16023   0.25838   0.00000  Uiso   1.00
C67    C     0.53165   0.13496   0.45899   0.00000  Uiso   1.00
C68    C     0.54883   0.11062   0.47814   0.00000  Uiso   1.00
C69    C     0.61435   0.17346   0.24128   0.00000  Uiso   1.00
C70    C     0.53694   0.11448   0.02000   0.00000  Uiso   1.00
C71    C     0.51654   0.14996   0.04079   0.00000  Uiso   1.00
C72    C     0.54493   0.08527   0.04197   0.00000  Uiso   1.00
C73    C     0.54063   0.09589   0.08273   0.00000  Uiso   1.00
C74    C     0.51956   0.16356   0.07962   0.00000  Uiso   1.00
C75    C     0.66021   0.17505   0.23751   0.00000  Uiso   1.00
C76    C     0.34088   0.15751   0.26288   0.00000  Uiso   1.00
C77    C     0.46240   0.24029   0.41785   0.00000  Uiso   1.00
C78    C     0.51680   0.32287   0.24092   0.00000  Uiso   1.00
C79    C     0.48395   0.01234   0.26034   0.00000  Uiso   1.00
C80    C     0.48882   0.05635   0.25889   0.00000  Uiso   1.00
C81    C     0.51041   0.27779   0.24169   0.00000  Uiso   1.00
C82    C     0.52137   0.14526   0.14385   0.00000  Uiso   1.00
C83    C     0.47897   0.18826   0.35626   0.00000  Uiso   1.00
C84    C     0.47163   0.19964   0.39948   0.00000  Uiso   1.00
C85    C     0.52954   0.13561   0.10096   0.00000  Uiso   1.00
C86    C     0.45407   0.24930   0.45955   0.00000  Uiso   1.00
C87    C     0.56082   0.00797   0.21877   0.00000  Uiso   1.00
C88    C     0.47753   0.17053   0.42219   0.00000  Uiso   1.00
C89    C     0.44467   0.29179   0.47886   0.00000  Uiso   1.00
C90    C     0.46337   0.27397   0.39368   0.00000  Uiso   1.00
C91    C     0.48020   0.18361   0.46100   0.00000  Uiso   1.00
C92    C     0.46042   0.21927   0.48167   0.00000  Uiso   1.00
C93    C     0.50105   0.16187   0.48031   0.00000  Uiso   1.00
C94    C     0.49455   0.17061   0.02157   0.00000  Uiso   1.00
C95    C     0.46302   0.19662   0.04275   0.00000  Uiso   1.00
C96    C     0.44718   0.22217   0.02361   0.00000  Uiso   1.00
H97    H     0.44993   0.19681   0.07443   0.00000  Uiso   1.00
H98    H     0.54339   0.13356   0.42709   0.00000  Uiso   1.00
H99    H     0.58710   0.32206   0.20880   0.00000  Uiso   1.00
H100   H     0.45886   0.30619   0.00230   0.00000  Uiso   1.00
H101   H     0.44075   0.27146   0.37626   0.00000  Uiso   1.00
I102   I     0.39633   0.25564   0.06132   0.00000  Uiso   1.00
I103   I     0.54834   0.02090   0.01864   0.00000  Uiso   1.00
I104   I     0.37105   0.20576   0.18982   0.00000  Uiso   1.00
I105   I     0.63739   0.12738   0.31394   0.00000  Uiso   1.00
I106   I     0.41798   0.32290   0.28691   0.00000  Uiso   1.00
I107   I     0.52065   0.22860   0.10313   0.00000  Uiso   1.00
I108   I     0.55385   0.05336   0.11700   0.00000  Uiso   1.00
I109   I     0.60243   0.08096   0.44056   0.00000  Uiso   1.00
I110   I     0.46599   0.10472   0.40379   0.00000  Uiso   1.00
O111   O     0.50000   0.16667   0.25000   0.00000  Uiso   1.00
O112   O     0.49027   0.12393   0.16625   0.00000  Uiso   1.00
O113   O     0.46020   0.20646   0.33749   0.00000  Uiso   1.00
O114   O     0.54421   0.17493   0.15877   0.00000  Uiso   1.00
O115   O     0.50532   0.16135   0.33749   0.00000  Uiso   1.00
O116   O     0.56845   0.04396   0.21077   0.00000  Uiso   1.00
O117   O     0.42051   0.31071   0.46935   0.00000  Uiso   1.00
O118   O     0.48945   0.30513   0.39353   0.00000  Uiso   1.00
O119   O     0.51182   0.08101   0.27820   0.00000  Uiso   1.00
O120   O     0.47914   0.26136   0.26767   0.00000  Uiso   1.00
O121   O     0.40785   0.13251   0.23607   0.00000  Uiso   1.00
O122   O     0.60119   0.19179   0.21805   0.00000  Uiso   1.00
O123   O     0.40323   0.18960   0.27820   0.00000  Uiso   1.00
O124   O     0.58773   0.15277   0.26767   0.00000  Uiso   1.00
O125   O     0.47133   0.06903   0.23607   0.00000  Uiso   1.00
O126   O     0.53771   0.25527   0.21805   0.00000  Uiso   1.00
Zn127  Zn    0.52577   0.14090   0.28277   0.00000  Uiso   1.00
Zn128  Zn    0.46792   0.12378   0.22257   0.00000  Uiso   1.00
Zn129  Zn    0.54500   0.19664   0.21188   0.00000  Uiso   1.00
Zn130  Zn    0.46131   0.20535   0.28277   0.00000  Uiso   1.00
C131   C     0.71944   0.16023   0.25838   0.00000  Uiso   1.00
C132   C     0.86498   0.13496   0.45899   0.00000  Uiso   1.00
C133   C     0.88216   0.11062   0.47814   0.00000  Uiso   1.00
C134   C     0.94768   0.17346   0.24128   0.00000  Uiso   1.00
C135   C     0.87027   0.11448   0.02000   0.00000  Uiso   1.00
C136   C     0.84988   0.14996   0.04079   0.00000  Uiso   1.00
C137   C     0.87826   0.08527   0.04197   0.00000  Uiso   1.00
C138   C     0.87397   0.09589   0.08273   0.00000  Uiso   1.00
C139   C     0.85289   0.16356   0.07962   0.00000  Uiso   1.00
C140   C     0.99354   0.17505   0.23751   0.00000  Uiso   1.00
C141   C     0.67421   0.15751   0.26288   0.00000  Uiso   1.00
C142   C     0.79573   0.24029   0.41785   0.00000  Uiso   1.00
C143   C     0.85014   0.32287   0.24092   0.00000  Uiso   1.00
C144   C     0.81728   0.01234   0.26034   0.00000  Uiso   1.00
C145   C     0.82215   0.05635   0.25889   0.00000  Uiso   1.00
C146   C     0.84375   0.27779   0.24169   0.00000  Uiso   1.00
C147   C     0.85470   0.14526   0.14385   0.00000  Uiso   1.00
C148   C     0.81230   0.18826   0.35626   0.00000  Uiso   1.00
C149   C     0.80496   0.19964   0.39948   0.00000  Uiso   1.00
C150   C     0.86287   0.13561   0.10096   0.00000  Uiso   1.00
C151   C     0.78740   0.24930   0.45955   0.00000  Uiso   1.00
C152   C     0.89415   0.00797   0.21877   0.00000  Uiso   1.00
C153   C     0.81086   0.17053   0.42219   0.00000  Uiso   1.00
C154   C     0.77800   0.29179   0.47886   0.00000  Uiso   1.00
C155   C     0.79671   0.27397   0.39368   0.00000  Uiso   1.00
C156   C     0.81353   0.18361   0.46100   0.00000  Uiso   1.00
C157   C     0.79375   0.21927   0.48167   0.00000  Uiso   1.00
C158   C     0.83438   0.16187   0.48031   0.00000  Uiso   1.00
C159   C     0.82789   0.17061   0.02157   0.00000  Uiso   1.00
C160   C     0.79635   0.19662   0.04275   0.00000  Uiso   1.00
C161   C     0.78051   0.22217   0.02361   0.00000  Uiso   1.00
H162   H     0.78326   0.19681   0.07443   0.00000  Uiso   1.00
H163   H     0.87673   0.13356   0.42709   0.00000  Uiso   1.00
H164   H     0.92043   0.32206   0.20880   0.00000  Uiso   1.00
H165   H     0.79219   0.30619   0.00230   0.00000  Uiso   1.00
H166   H     0.77408   0.27146   0.37626   0.00000  Uiso   1.00
I167   I     0.72967   0.25564   0.06132   0.00000  Uiso   1.00
I168   I     0.88167   0.02090   0.01864   0.00000  Uiso   1.00
I169   I     0.70438   0.20576   0.18982   0.00000  Uiso   1.00
I170   I     0.97072   0.12738   0.31394   0.00000  Uiso   1.00
I171   I     0.75131   0.32290   0.28691   0.00000  Uiso   1.00
I172   I     0.85398   0.22860   0.10313   0.00000  Uiso   1.00
I173   I     0.88718   0.05336   0.11700   0.00000  Uiso   1.00
I174   I     0.93576   0.08096   0.44056   0.00000  Uiso   1.00
I175   I     0.79932   0.10472   0.40379   0.00000  Uiso   1.00
O176   O     0.83333   0.16667   0.25000   0.00000  Uiso   1.00
O177   O     0.82360   0.12393   0.16625   0.00000  Uiso   1.00
O178   O     0.79354   0.20646   0.33749   0.00000  Uiso   1.00
O179   O     0.87755   0.17493   0.15877   0.00000  Uiso   1.00
O180   O     0.83865   0.16135   0.33749   0.00000  Uiso   1.00
O181   O     0.90178   0.04396   0.21077   0.00000  Uiso   1.00
O182   O     0.75384   0.31071   0.46935   0.00000  Uiso   1.00
O183   O     0.82278   0.30513   0.39353   0.00000  Uiso   1.00
O184   O     0.84515   0.08101   0.27820   0.00000  Uiso   1.00
O185   O     0.81247   0.26136   0.26767   0.00000  Uiso   1.00
O186   O     0.74119   0.13251   0.23607   0.00000  Uiso   1.00
O187   O     0.93452   0.19179   0.21805   0.00000  Uiso   1.00
O188   O     0.73656   0.18960   0.27820   0.00000  Uiso   1.00
O189   O     0.92106   0.15277   0.26767   0.00000  Uiso   1.00
O190   O     0.80467   0.06903   0.23607   0.00000  Uiso   1.00
O191   O     0.87104   0.25527   0.21805   0.00000  Uiso   1.00
Zn192  Zn    0.85910   0.14090   0.28277   0.00000  Uiso   1.00
Zn193  Zn    0.80125   0.12378   0.22257   0.00000  Uiso   1.00
Zn194  Zn    0.87833   0.19664   0.21188   0.00000  Uiso   1.00
Zn195  Zn    0.79465   0.20535   0.28277   0.00000  Uiso   1.00
C196   C     0.05278   0.49356   0.25838   0.00000  Uiso   1.00
C197   C     0.19832   0.46830   0.45899   0.00000  Uiso   1.00
C198   C     0.21550   0.44395   0.47814   0.00000  Uiso   1.00
C199   C     0.28101   0.50679   0.24128   0.00000  Uiso   1.00
C200   C     0.20361   0.44782   0.02000   0.00000  Uiso   1.00
C201   C     0.18321   0.48329   0.04079   0.00000  Uiso   1.00
C202   C     0.21159   0.41860   0.04197   0.00000  Uiso   1.00
C203   C     0.20730   0.42923   0.08273   0.00000  Uiso   1.00
C204   C     0.18623   0.49690   0.07962   0.00000  Uiso   1.00
C205   C     0.32688   0.50838   0.23751   0.00000  Uiso   1.00
C206   C     0.00755   0.49084   0.26288   0.00000  Uiso   1.00
C207   C     0.12907   0.57362   0.41785   0.00000  Uiso   1.00
C208   C     0.18347   0.65620   0.24092   0.00000  Uiso   1.00
C209   C     0.15062   0.34568   0.26034   0.00000  Uiso   1.00
C210   C     0.15548   0.38968   0.25889   0.00000  Uiso   1.00
C211   C     0.17708   0.61113   0.24169   0.00000  Uiso   1.00
C212   C     0.18804   0.47859   0.14385   0.00000  Uiso   1.00
C213   C     0.14564   0.52159   0.35626   0.00000  Uiso   1.00
C214   C     0.13829   0.53297   0.39948   0.00000  Uiso   1.00
C215   C     0.19620   0.46894   0.10096   0.00000  Uiso   1.00
C216   C     0.12074   0.58263   0.45955   0.00000  Uiso   1.00
C217   C     0.22748   0.34131   0.21877   0.00000  Uiso   1.00
C218   C     0.14419   0.50386   0.42219   0.00000  Uiso   1.00
C219   C     0.11134   0.62513   0.47886   0.00000  Uiso   1.00
C220   C     0.13004   0.60730   0.39368   0.00000  Uiso   1.00
C221   C     0.14687   0.51695   0.46100   0.00000  Uiso   1.00
C222   C     0.12709   0.55260   0.48167   0.00000  Uiso   1.00
C223   C     0.16771   0.49521   0.48031   0.00000  Uiso   1.00
C224   C     0.16122   0.50394   0.02157   0.00000  Uiso   1.00
C225   C     0.12968   0.52996   0.04275   0.00000  Uiso   1.00
C226   C     0.11384   0.55550   0.02361   0.00000  Uiso   1.00
H227   H     0.11659   0.53015   0.07443   0.00000  Uiso   1.00
H228   H     0.21006   0.46690   0.42709   0.00000  Uiso   1.00
H229   H     0.25376   0.65539   0.20880   0.00000  Uiso   1.00
H230   H     0.12552   0.63952   0.00230   0.00000  Uiso   1.00
H231   H     0.10741   0.60479   0.37626   0.00000  Uiso   1.00
I232   I     0.06300   0.58897   0.06132   0.00000  Uiso   1.00
I233   I     0.21500   0.35423   0.01864   0.00000  Uiso   1.00
I234   I     0.03771   0.53910   0.18982   0.00000  Uiso   1.00
I235   I     0.30405   0.46071   0.31394   0.00000  Uiso   1.00
I236   I     0.08464   0.65623   0.28691   0.00000  Uiso   1.00
I237   I     0.18732   0.56193   0.10313   0.00000  Uiso   1.00
I238   I     0.22052   0.38670   0.11700   0.00000  Uiso   1.00
I239   I     0.26910   0.41429   0.44056   0.00000  Uiso   1.00
I240   I     0.13266   0.43806   0.40379   0.00000  Uiso   1.00
O241   O     0.16667   0.50000   0.25000   0.00000  Uiso   1.00
O242   O     0.15693   0.45726   0.16625   0.00000  Uiso   1.00
O243   O     0.12687   0.53979   0.33749   0.00000  Uiso   1.00
O244   O     0.21088   0.50826   0.15877   0.00000  Uiso   1.00
O245   O     0.17198   0.49468   0.33749   0.00000  Uiso   1.00
O246   O     0.23511   0.37729   0.21077   0.00000  Uiso   1.00
O247   O     0.08717   0.64404   0.46935   0.00000  Uiso   1.00
O248   O     0.15611   0.63847   0.39353   0.00000  Uiso   1.00
O249   O     0.17849   0.41434   0.27820   0.00000  Uiso   1.00
O250   O     0.14581   0.59469   0.26767   0.00000  Uiso   1.00
O251   O     0.07452   0.46584   0.23607   0.00000  Uiso   1.00
O252   O     0.26785   0.52512   0.21805   0.00000  Uiso   1.00
O253   O     0.06990   0.52293   0.27820   0.00000  Uiso   1.00
O254   O     0.25440   0.48610   0.26767   0.00000  Uiso   1.00
O255   O     0.13800   0.40236   0.23607   0.00000  Uiso   1.00
O256   O     0.20437   0.58860   0.21805   0.00000  Uiso   1.00
Zn257  Zn    0.19244   0.47423   0.28277   0.00000  Uiso   1.00
Zn258  Zn    0.13459   0.45711   0.22257   0.00000  Uiso   1.00
Zn259  Zn    0.21166   0.52997   0.21188   0.00000  Uiso   1.00
Zn260  Zn    0.12798   0.53868   0.28277   0.00000  Uiso   1.00
C261   C     0.38611   0.49356   0.25838   0.00000  Uiso   1.00
C262   C     0.53165   0.46830   0.45899   0.00000  Uiso   1.00
C263   C     0.54883   0.44395   0.47814   0.00000  Uiso   1.00
C264   C     0.61435   0.50679   0.24128   0.00000  Uiso   1.00
C265   C     0.53694   0.44782   0.02000   0.00000  Uiso   1.00
C266   C     0.51654   0.48329   0.04079   0.00000  Uiso   1.00
C267   C     0.54493   0.41860   0.04197   0.00000  Uiso   1.00
C268   C     0.54063   0.42923   0.08273   0.00000  Uiso   1.00
C269   C     0.51956   0.49690   0.07962   0.00000  Uiso   1.00
C270   C     0.66021   0.50838   0.23751   0.00000  Uiso   1.00
C271   C     0.34088   0.49084   0.26288   0.00000  Uiso   1.00
C272   C     0.46240   0.57362   0.41785   0.00000  Uiso   1.00
C273   C     0.51680   0.65620   0.24092   0.00000  Uiso   1.00
C274   C     0.48395   0.34568   0.26034   0.00000  Uiso   1.00
C275   C     0.48882   0.38968   0.25889   0.00000  Uiso   1.00
C276   C     0.51041   0.61113   0.24169   0.00000  Uiso   1.00
C277   C     0.52137   0.47859   0.14385   0.00000  Uiso   1.00
C278   C     0.47897   0.52159   0.35626   0.00000  Uiso   1.00
C279   C     0.47163   0.53297   0.39948   0.00000  Uiso   1.00
C280   C     0.52954   0.46894   0.10096   0.00000  Uiso   1.00
C281   C     0.45407   0.58263   0.45955   0.00000  Uiso   1.00
C282   C     0.56082   0.34131   0.21877   0.00000  Uiso   1.00
C283   C     0.47753   0.50386   0.42219   0.00000  Uiso   1.00
C284   C     0.44467   0.62513   0.47886   0.00000  Uiso   1.00
C285   C     0.46337   0.60730   0.39368   0.00000  Uiso   1.00
C286   C     0.48020   0.51695   0.46100   0.00000  Uiso   1.00
C287   C     0.46042   0.55260   0.48167   0.00000  Uiso   1.00
C288   C     0.50105   0.49521   0.48031   0.00000  Uiso   1.00
C289   C     0.49455   0.50394   0.02157   0.00000  Uiso   1.00
C290   C     0.46302   0.52996   0.04275   0.00000  Uiso   1.00
C291   C     0.44718   0.55550   0.02361   0.00000  Uiso   1.00
H292   H     0.44993   0.53015   0.07443   0.00000  Uiso   1.00
H293   H     0.54339   0.46690   0.42709   0.00000  Uiso   1.00
H294   H     0.58710   0.65539   0.20880   0.00000  Uiso   1.00
H295   H     0.45886   0.63952   0.00230   0.00000  Uiso   1.00
H296   H     0.44075   0.60479   0.37626   0.00000  Uiso   1.00
I297   I     0.39633   0.58897   0.06132   0.00000  Uiso   1.00
I298   I     0.54834   0.35423   0.01864   0.00000  Uiso   1.00
I299   I     0.37105   0.53910   0.18982   0.00000  Uiso   1.00
I300   I     0.63739   0.46071   0.31394   0.00000  Uiso   1.00
I301   I     0.41798   0.65623   0.28691   0.00000  Uiso   1.00
I302   I     0.52065   0.56193   0.10313   0.00000  Uiso   1.00
I303   I     0.55385   0.38670   0.11700   0.00000  Uiso   1.00
I304   I     0.60243   0.41429   0.44056   0.00000  Uiso   1.00
I305   I     0.46599   0.43806   0.40379   0.00000  Uiso   1.00
O306   O     0.50000   0.50000   0.25000   0.00000  Uiso   1.00
O307   O     0.49027   0.45726   0.16625   0.00000  Uiso   1.00
O308   O     0.46020   0.53979   0.33749   0.00000  Uiso   1.00
O309   O     0.54421   0.50826   0.15877   0.00000  Uiso   1.00
O310   O     0.50532   0.49468   0.33749   0.00000  Uiso   1.00
O311   O     0.56845   0.37729   0.21077   0.00000  Uiso   1.00
O312   O     0.42051   0.64404   0.46935   0.00000  Uiso   1.00
O313   O     0.48945   0.63847   0.39353   0.00000  Uiso   1.00
O314   O     0.51182   0.41434   0.27820   0.00000  Uiso   1.00
O315   O     0.47914   0.59469   0.26767   0.00000  Uiso   1.00
O316   O     0.40785   0.46584   0.23607   0.00000  Uiso   1.00
O317   O     0.60119   0.52512   0.21805   0.00000  Uiso   1.00
O318   O     0.40323   0.52293   0.27820   0.00000  Uiso   1.00
O319   O     0.58773   0.48610   0.26767   0.00000  Uiso   1.00
O320   O     0.47133   0.40236   0.23607   0.00000  Uiso   1.00
O321   O     0.53771   0.58860   0.21805   0.00000  Uiso   1.00
Zn322  Zn    0.52577   0.47423   0.28277   0.00000  Uiso   1.00
Zn323  Zn    0.46792   0.45711   0.22257   0.00000  Uiso   1.00
Zn324  Zn    0.54500   0.52997   0.21188   0.00000  Uiso   1.00
Zn325  Zn    0.46131   0.53868   0.28277   0.00000  Uiso   1.00
C326   C     0.71944   0.49356   0.25838   0.00000  Uiso   1.00
C327   C     0.86498   0.46830   0.45899   0.00000  Uiso   1.00
C328   C     0.88216   0.44395   0.47814   0.00000  Uiso   1.00
C329   C     0.94768   0.50679   0.24128   0.00000  Uiso   1.00
C330   C     0.87027   0.44782   0.02000   0.00000  Uiso   1.00
C331   C     0.84988   0.48329   0.04079   0.00000  Uiso   1.00
C332   C     0.87826   0.41860   0.04197   0.00000  Uiso   1.00
C333   C     0.87397   0.42923   0.08273   0.00000  Uiso   1.00
C334   C     0.85289   0.49690   0.07962   0.00000  Uiso   1.00
C335   C     0.99354   0.50838   0.23751   0.00000  Uiso   1.00
C336   C     0.67421   0.49084   0.26288   0.00000  Uiso   1.00
C337   C     0.79573   0.57362   0.41785   0.00000  Uiso   1.00
C338   C     0.85014   0.65620   0.24092   0.00000  Uiso   1.00
C339   C     0.81728   0.34568   0.26034   0.00000  Uiso   1.00
C340   C     0.82215   0.38968   0.25889   0.00000  Uiso   1.00
C341   C     0.84375   0.61113   0.24169   0.00000  Uiso   1.00
C342   C     0.85470   0.47859   0.14385   0.00000  Uiso   1.00
C343   C     0.81230   0.52159   0.35626   0.00000  Uiso   1.00
C344   C     0.80496   0.53297   0.39948   0.00000  Uiso   1.00
C345   C     0.86287   0.46894   0.10096   0.00000  Uiso   1.00
C346   C     0.78740   0.58263   0.45955   0.00000  Uiso   1.00
C347   C     0.89415   0.34131   0.21877   0.00000  Uiso   1.00
C348   C     0.81086   0.50386   0.42219   0.00000  Uiso   1.00
C349   C     0.77800   0.62513   0.47886   0.00000  Uiso   1.00
C350   C     0.79671   0.60730   0.39368   0.00000  Uiso   1.00
C351   C     0.81353   0.51695   0.46100   0.00000  Uiso   1.00
C352   C     0.79375   0.55260   0.48167   0.00000  Uiso   1.00
C353   C     0.83438   0.49521   0.48031   0.00000  Uiso   1.00
C354   C     0.82789   0.50394   0.02157   0.00000  Uiso   1.00
C355   C     0.79635   0.52996   0.04275   0.00000  Uiso   1.00
C356   C     0.78051   0.55550   0.02361   0.00000  Uiso   1.00
H357   H     0.78326   0.53015   0.07443   0.00000  Uiso   1.00
H358   H     0.87673   0.46690   0.42709   0.00000  Uiso   1.00
H359   H     0.92043   0.65539   0.20880   0.00000  Uiso   1.00
H360   H     0.79219   0.63952   0.00230   0.00000  Uiso   1.00
H361   H     0.77408   0.60479   0.37626   0.00000  Uiso   1.00
I362   I     0.72967   0.58897   0.06132   0.00000  Uiso   1.00
I363   I     0.88167   0.35423   0.01864   0.00000  Uiso   1.00
I364   I     0.70438   0.53910   0.18982   0.00000  Uiso   1.00
I365   I     0.97072   0.46071   0.31394   0.00000  Uiso   1.00
I366   I     0.75131   0.65623   0.28691   0.00000  Uiso   1.00
I367   I     0.85398   0.56193   0.10313   0.00000  Uiso   1.00
I368   I     0.88718   0.38670   0.11700   0.00000  Uiso   1.00
I369   I     0.93576   0.41429   0.44056   0.00000  Uiso   1.00
I370   I     0.79932   0.43806   0.40379   0.00000  Uiso   1.00
O371   O     0.83333   0.50000   0.25000   0.00000  Uiso   1.00
O372   O     0.82360   0.45726   0.16625   0.00000  Uiso   1.00
O373   O     0.79354   0.53979   0.33749   0.00000  Uiso   1.00
O374   O     0.87755   0.50826   0.15877   0.00000  Uiso   1.00
O375   O     0.83865   0.49468   0.33749   0.00000  Uiso   1.00
O376   O     0.90178   0.37729   0.21077   0.00000  Uiso   1.00
O377   O     0.75384   0.64404   0.46935   0.00000  Uiso   1.00
O378   O     0.82278   0.63847   0.39353   0.00000  Uiso   1.00
O379   O     0.84515   0.41434   0.27820   0.00000  Uiso   1.00
O380   O     0.81247   0.59469   0.26767   0.00000  Uiso   1.00
O381   O     0.74119   0.46584   0.23607   0.00000  Uiso   1.00
O382   O     0.93452   0.52512   0.21805   0.00000  Uiso   1.00
O383   O     0.73656   0.52293   0.27820   0.00000  Uiso   1.00
O384   O     0.92106   0.48610   0.26767   0.00000  Uiso   1.00
O385   O     0.80467   0.40236   0.23607   0.00000  Uiso   1.00
O386   O     0.87104   0.58860   0.21805   0.00000  Uiso   1.00
Zn387  Zn    0.85910   0.47423   0.28277   0.00000  Uiso   1.00
Zn388  Zn    0.80125   0.45711   0.22257   0.00000  Uiso   1.00
Zn389  Zn    0.87833   0.52997   0.21188   0.00000  Uiso   1.00
Zn390  Zn    0.79465   0.53868   0.28277   0.00000  Uiso   1.00
C391   C     0.05278   0.82689   0.25838   0.00000  Uiso   1.00
C392   C     0.19832   0.80163   0.45899   0.00000  Uiso   1.00
C393   C     0.21550   0.77728   0.47814   0.00000  Uiso   1.00
C394   C     0.28101   0.84012   0.24128   0.00000  Uiso   1.00
C395   C     0.20361   0.78115   0.02000   0.00000  Uiso   1.00
C396   C     0.18321   0.81662   0.04079   0.00000  Uiso   1.00
C397   C     0.21159   0.75194   0.04197   0.00000  Uiso   1.00
C398   C     0.20730   0.76256   0.08273   0.00000  Uiso   1.00
C399   C     0.18623   0.83023   0.07962   0.00000  Uiso   1.00
C400   C     0.32688   0.84171   0.23751   0.00000  Uiso   1.00
C401   C     0.00755   0.82417   0.26288   0.00000  Uiso   1.00
C402   C     0.12907   0.90696   0.41785   0.00000  Uiso   1.00
C403   C     0.18347   0.98954   0.24092   0.00000  Uiso   1.00
C404   C     0.15062   0.67901   0.26034   0.00000  Uiso   1.00
C405   C     0.15548   0.72301   0.25889   0.00000  Uiso   1.00
C406   C     0.17708   0.94446   0.24169   0.00000  Uiso   1.00
C407   C     0.18804   0.81192   0.14385   0.00000  Uiso   1.00
C408   C     0.14564   0.85493   0.35626   0.00000  Uiso   1.00
C409   C     0.13829   0.86631   0.39948   0.00000  Uiso   1.00
C410   C     0.19620   0.80227   0.10096   0.00000  Uiso   1.00
C411   C     0.12074   0.91597   0.45955   0.00000  Uiso   1.00
C412   C     0.22748   0.67464   0.21877   0.00000  Uiso   1.00
C413   C     0.14419   0.83719   0.42219   0.00000  Uiso   1.00
C414   C     0.11134   0.95846   0.47886   0.00000  Uiso   1.00
C415   C     0.13004   0.94063   0.39368   0.00000  Uiso   1.00
C416   C     0.14687   0.85028   0.46100   0.00000  Uiso   1.00
C417   C     0.12709   0.88594   0.48167   0.00000  Uiso   1.00
C418   C     0.16771   0.82854   0.48031   0.00000  Uiso   1.00
C419   C     0.16122   0.83728   0.02157   0.00000  Uiso   1.00
C420   C     0.12968   0.86329   0.04275   0.00000  Uiso   1.00
C421   C     0.11384   0.88883   0.02361   0.00000  Uiso   1.00
H422   H     0.11659   0.86348   0.07443   0.00000  Uiso   1.00
H423   H     0.21006   0.80023   0.42709   0.00000  Uiso   1.00
H424   H     0.25376   0.98872   0.20880   0.00000  Uiso   1.00
H425   H     0.12552   0.97286   0.00230   0.00000  Uiso   1.00
H426   H     0.10741   0.93812   0.37626   0.00000  Uiso   1.00
I427   I     0.06300   0.92231   0.06132   0.00000  Uiso   1.00
I428   I     0.21500   0.68757   0.01864   0.00000  Uiso   1.00
I429   I     0.03771   0.87243   0.18982   0.00000  Uiso   1.00
I430   I     0.30405   0.79405   0.31394   0.00000  Uiso   1.00
I431   I     0.08464   0.98957   0.28691   0.00000  Uiso   1.00
I432   I     0.18732   0.89526   0.10313   0.00000  Uiso   1.00
I433   I     0.22052   0.72003   0.11700   0.00000  Uiso   1.00
I434   I     0.26910   0.74762   0.44056   0.00000  Uiso   1.00
I435   I     0.13266   0.77139   0.40379   0.00000  Uiso   1.00
O436   O     0.16667   0.83333   0.25000   0.00000  Uiso   1.00
O437   O     0.15693   0.79060   0.16625   0.00000  Uiso   1.00
O438   O     0.12687   0.87313   0.33749   0.00000  Uiso   1.00
O439   O     0.21088   0.84159   0.15877   0.00000  Uiso   1.00
O440   O     0.17198   0.82802   0.33749   0.00000  Uiso   1.00
O441   O     0.23511   0.71063   0.21077   0.00000  Uiso   1.00
O442   O     0.08717   0.97738   0.46935   0.00000  Uiso   1.00
O443   O     0.15611   0.97180   0.39353   0.00000  Uiso   1.00
O444   O     0.17849   0.74768   0.27820   0.00000  Uiso   1.00
O445   O     0.14581   0.92803   0.26767   0.00000  Uiso   1.00
O446   O     0.07452   0.79917   0.23607   0.00000  Uiso   1.00
O447   O     0.26785   0.85845   0.21805   0.00000  Uiso   1.00
O448   O     0.06990   0.85627   0.27820   0.00000  Uiso   1.00
O449   O     0.25440   0.81944   0.26767   0.00000  Uiso   1.00
O450   O     0.13800   0.73570   0.23607   0.00000  Uiso   1.00
O451   O     0.20437   0.92193   0.21805   0.00000  Uiso   1.00
Zn452  Zn    0.19244   0.80756   0.28277   0.00000  Uiso   1.00
Zn453  Zn    0.13459   0.79044   0.22257   0.00000  Uiso   1.00
Zn454  Zn    0.21166   0.86331   0.21188   0.00000  Uiso   1.00
Zn455  Zn    0.12798   0.87202   0.28277   0.00000  Uiso   1.00
C456   C     0.38611   0.82689   0.25838   0.00000  Uiso   1.00
C457   C     0.53165   0.80163   0.45899   0.00000  Uiso   1.00
C458   C     0.54883   0.77728   0.47814   0.00000  Uiso   1.00
C459   C     0.61435   0.84012   0.24128   0.00000  Uiso   1.00
C460   C     0.53694   0.78115   0.02000   0.00000  Uiso   1.00
C461   C     0.51654   0.81662   0.04079   0.00000  Uiso   1.00
C462   C     0.54493   0.75194   0.04197   0.00000  Uiso   1.00
C463   C     0.54063   0.76256   0.08273   0.00000  Uiso   1.00
C464   C     0.51956   0.83023   0.07962   0.00000  Uiso   1.00
C465   C     0.66021   0.84171   0.23751   0.00000  Uiso   1.00
C466   C     0.34088   0.82417   0.26288   0.00000  Uiso   1.00
C467   C     0.46240   0.90696   0.41785   0.00000  Uiso   1.00
C468   C     0.51680   0.98954   0.24092   0.00000  Uiso   1.00
C469   C     0.48395   0.67901   0.26034   0.00000  Uiso   1.00
C470   C     0.48882   0.72301   0.25889   0.00000  Uiso   1.00
C471   C     0.51041   0.94446   0.24169   0.00000  Uiso   1.00
C472   C     0.52137   0.81192   0.14385   0.00000  Uiso   1.00
C473   C     0.47897   0.85493   0.35626   0.00000  Uiso   1.00
C474   C     0.47163   0.86631   0.39948   0.00000  Uiso   1.00
C475   C     0.52954   0.80227   0.10096   0.00000  Uiso   1.00
C476   C     0.45407   0.91597   0.45955   0.00000  Uiso   1.00
C477   C     0.56082   0.67464   0.21877   0.00000  Uiso   1.00
C478   C     0.47753   0.83719   0.42219   0.00000  Uiso   1.00
C479   C     0.44467   0.95846   0.47886   0.00000  Uiso   1.00
C480   C     0.46337   0.94063   0.39368   0.00000  Uiso   1.00
C481   C     0.48020   0.85028   0.46100   0.00000  Uiso   1.00
C482   C     0.46042   0.88594   0.48167   0.00000  Uiso   1.00
C483   C     0.50105   0.82854   0.48031   0.00000  Uiso   1.00
C484   C     0.49455   0.83728   0.02157   0.00000  Uiso   1.00
C485   C     0.46302   0.86329   0.04275   0.00000  Uiso   1.00
C486   C     0.44718   0.88883   0.02361   0.00000  Uiso   1.00
H487   H     0.44993   0.86348   0.07443   0.00000  Uiso   1.00
H488   H     0.54339   0.80023   0.42709   0.00000  Uiso   1.00
H489   H     0.58710   0.98872   0.20880   0.00000  Uiso   1.00
H490   H     0.45886   0.97286   0.00230   0.00000  Uiso   1.00
H491   H     0.44075   0.93812   0.37626   0.00000  Uiso   1.00
I492   I     0.39633   0.92231   0.06132   0.00000  Uiso   1.00
I493   I     0.54834   0.68757   0.01864   0.00000  Uiso   1.00
I494   I     0.37105   0.87243   0.18982   0.00000  Uiso   1.00
I495   I     0.63739   0.79405   0.31394   0.00000  Uiso   1.00
I496   I     0.41798   0.98957   0.28691   0.00000  Uiso   1.00
I497   I     0.52065   0.89526   0.10313   0.00000  Uiso   1.00
I498   I     0.55385   0.72003   0.11700   0.00000  Uiso   1.00
I499   I     0.60243   0.74762   0.44056   0.00000  Uiso   1.00
I500   I     0.46599   0.77139   0.40379   0.00000  Uiso   1.00
O501   O     0.50000   0.83333   0.25000   0.00000  Uiso   1.00
O502   O     0.49027   0.79060   0.16625   0.00000  Uiso   1.00
O503   O     0.46020   0.87313   0.33749   0.00000  Uiso   1.00
O504   O     0.54421   0.84159   0.15877   0.00000  Uiso   1.00
O505   O     0.50532   0.82802   0.33749   0.00000  Uiso   1.00
O506   O     0.56845   0.71063   0.21077   0.00000  Uiso   1.00
O507   O     0.42051   0.97738   0.46935   0.00000  Uiso   1.00
O508   O     0.48945   0.97180   0.39353   0.00000  Uiso   1.00
O509   O     0.51182   0.74768   0.27820   0.00000  Uiso   1.00
O510   O     0.47914   0.92803   0.26767   0.00000  Uiso   1.00
O511   O     0.40785   0.79917   0.23607   0.00000  Uiso   1.00
O512   O     0.60119   0.85845   0.21805   0.00000  Uiso   1.00
O513   O     0.40323   0.85627   0.27820   0.00000  Uiso   1.00
O514   O     0.58773   0.81944   0.26767   0.00000  Uiso   1.00
O515   O     0.47133   0.73570   0.23607   0.00000  Uiso   1.00
O516   O     0.53771   0.92193   0.21805   0.00000  Uiso   1.00
Zn517  Zn    0.52577   0.80756   0.28277   0.00000  Uiso   1.00
Zn518  Zn    0.46792   0.79044   0.22257   0.00000  Uiso   1.00
Zn519  Zn    0.54500   0.86331   0.21188   0.00000  Uiso   1.00
Zn520  Zn    0.46131   0.87202   0.28277   0.00000  Uiso   1.00
C521   C     0.71944   0.82689   0.25838   0.00000  Uiso   1.00
C522   C     0.86498   0.80163   0.45899   0.00000  Uiso   1.00
C523   C     0.88216   0.77728   0.47814   0.00000  Uiso   1.00
C524   C     0.94768   0.84012   0.24128   0.00000  Uiso   1.00
C525   C     0.87027   0.78115   0.02000   0.00000  Uiso   1.00
C526   C     0.84988   0.81662   0.04079   0.00000  Uiso   1.00
C527   C     0.87826   0.75194   0.04197   0.00000  Uiso   1.00
C528   C     0.87397   0.76256   0.08273   0.00000  Uiso   1.00
C529   C     0.85289   0.83023   0.07962   0.00000  Uiso   1.00
C530   C     0.99354   0.84171   0.23751   0.00000  Uiso   1.00
C531   C     0.67421   0.82417   0.26288   0.00000  Uiso   1.00
C532   C     0.79573   0.90696   0.41785   0.00000  Uiso   1.00
C533   C     0.85014   0.98954   0.24092   0.00000  Uiso   1.00
C534   C     0.81728   0.67901   0.26034   0.00000  Uiso   1.00
C535   C     0.82215   0.72301   0.25889   0.00000  Uiso   1.00
C536   C     0.84375   0.94446   0.24169   0.00000  Uiso   1.00
C537   C     0.85470   0.81192   0.14385   0.00000  Uiso   1.00
C538   C     0.81230   0.85493   0.35626   0.00000  Uiso   1.00
C539   C     0.80496   0.86631   0.39948   0.00000  Uiso   1.00
C540   C     0.86287   0.80227   0.10096   0.00000  Uiso   1.00
C541   C     0.78740   0.91597   0.45955   0.00000  Uiso   1.00
C542   C     0.89415   0.67464   0.21877   0.00000  Uiso   1.00
C543   C     0.81086   0.83719   0.42219   0.00000  Uiso   1.00
C544   C     0.77800   0.95846   0.47886   0.00000  Uiso   1.00
C545   C     0.79671   0.94063   0.39368   0.00000  Uiso   1.00
C546   C     0.81353   0.85028   0.46100   0.00000  Uiso   1.00
C547   C     0.79375   0.88594   0.48167   0.00000  Uiso   1.00
C548   C     0.83438   0.82854   0.48031   0.00000  Uiso   1.00
C549   C     0.82789   0.83728   0.02157   0.00000  Uiso   1.00
C550   C     0.79635   0.86329   0.04275   0.00000  Uiso   1.00
C551   C     0.78051   0.88883   0.02361   0.00000  Uiso   1.00
H552   H     0.78326   0.86348   0.07443   0.00000  Uiso   1.00
H553   H     0.87673   0.80023   0.42709   0.00000  Uiso   1.00
H554   H     0.92043   0.98872   0.20880   0.00000  Uiso   1.00
H555   H     0.79219   0.97286   0.00230   0.00000  Uiso   1.00
H556   H     0.77408   0.93812   0.37626   0.00000  Uiso   1.00
I557   I     0.72967   0.92231   0.06132   0.00000  Uiso   1.00
I558   I     0.88167   0.68757   0.01864   0.00000  Uiso   1.00
I559   I     0.70438   0.87243   0.18982   0.00000  Uiso   1.00
I560   I     0.97072   0.79405   0.31394   0.00000  Uiso   1.00
I561   I     0.75131   0.98957   0.28691   0.00000  Uiso   1.00
I562   I     0.85398   0.89526   0.10313   0.00000  Uiso   1.00
I563   I     0.88718   0.72003   0.11700   0.00000  Uiso   1.00
I564   I     0.93576   0.74762   0.44056   0.00000  Uiso   1.00
I565   I     0.79932   0.77139   0.40379   0.00000  Uiso   1.00
O566   O     0.83333   0.83333   0.25000   0.00000  Uiso   1.00
O567   O     0.82360   0.79060   0.16625   0.00000  Uiso   1.00
O568   O     0.79354   0.87313   0.33749   0.00000  Uiso   1.00
O569   O     0.87755   0.84159   0.15877   0.00000  Uiso   1.00
O570   O     0.83865   0.82802   0.33749   0.00000  Uiso   1.00
O571   O     0.90178   0.71063   0.21077   0.00000  Uiso   1.00
O572   O     0.75384   0.97738   0.46935   0.00000  Uiso   1.00
O573   O     0.82278   0.97180   0.39353   0.00000  Uiso   1.00
O574   O     0.84515   0.74768   0.27820   0.00000  Uiso   1.00
O575   O     0.81247   0.92803   0.26767   0.00000  Uiso   1.00
O576   O     0.74119   0.79917   0.23607   0.00000  Uiso   1.00
O577   O     0.93452   0.85845   0.21805   0.00000  Uiso   1.00
O578   O     0.73656   0.85627   0.27820   0.00000  Uiso   1.00
O579   O     0.92106   0.81944   0.26767   0.00000  Uiso   1.00
O580   O     0.80467   0.73570   0.23607   0.00000  Uiso   1.00
O581   O     0.87104   0.92193   0.21805   0.00000  Uiso   1.00
Zn582  Zn    0.85910   0.80756   0.28277   0.00000  Uiso   1.00
Zn583  Zn    0.80125   0.79044   0.22257   0.00000  Uiso   1.00
Zn584  Zn    0.87833   0.86331   0.21188   0.00000  Uiso   1.00
Zn585  Zn    0.79465   0.87202   0.28277   0.00000  Uiso   1.00
C586   C     0.05278   0.16023   0.75838   0.00000  Uiso   1.00
C587   C     0.19832   0.13496   0.95899   0.00000  Uiso   1.00
C588   C     0.21550   0.11062   0.97814   0.00000  Uiso   1.00
C589   C     0.28101   0.17346   0.74128   0.00000  Uiso   1.00
C590   C     0.20361   0.11448   0.52000   0.00000  Uiso   1.00
C591   C     0.18321   0.14996   0.54079   0.00000  Uiso   1.00
C592   C     0.21159   0.08527   0.54197   0.00000  Uiso   1.00
C593   C     0.20730   0.09589   0.58273   0.00000  Uiso   1.00
C594   C     0.18623   0.16356   0.57962   0.00000  Uiso   1.00
C595   C     0.32688   0.17505   0.73751   0.00000  Uiso   1.00
C596   C     0.00755   0.15751   0.76288   0.00000  Uiso   1.00
C597   C     0.12907   0.24029   0.91785   0.00000  Uiso   1.00
C598   C     0.18347   0.32287   0.74092   0.00000  Uiso   1.00
C599   C     0.15062   0.01234   0.76034   0.00000  Uiso   1.00
C600   C     0.15548   0.05635   0.75889   0.00000  Uiso   1.00
C601   C     0.17708   0.27779   0.74169   0.00000  Uiso   1.00
C602   C     0.18804   0.14526   0.64385   0.00000  Uiso   1.00
C603   C     0.14564   0.18826   0.85626   0.00000  Uiso   1.00
C604   C     0.13829   0.19964   0.89948   0.00000  Uiso   1.00
C605   C     0.19620   0.13561   0.60096   0.00000  Uiso   1.00
C606   C     0.12074   0.24930   0.95955   0.00000  Uiso   1.00
C607   C     0.22748   0.00797   0.71877   0.00000  Uiso   1.00
C608   C     0.14419   0.17053   0.92219   0.00000  Uiso   1.00
C609   C     0.11134   0.29179   0.97886   0.00000  Uiso   1.00
C610   C     0.13004   0.27397   0.89368   0.00000  Uiso   1.00
C611   C     0.14687   0.18361   0.96100   0.00000  Uiso   1.00
C612   C     0.12709   0.21927   0.98167   0.00000  Uiso   1.00
C613   C     0.16771   0.16187   0.98031   0.00000  Uiso   1.00
C614   C     0.16122   0.17061   0.52157   0.00000  Uiso   1.00
C615   C     0.12968   0.19662   0.54275   0.00000  Uiso   1.00
C616   C     0.11384   0.22217   0.52361   0.00000  Uiso   1.00
H617   H     0.11659   0.19681   0.57443   0.00000  Uiso   1.00
H618   H     0.21006   0.13356   0.92709   0.00000  Uiso   1.00
H619   H     0.25376   0.32206   0.70880   0.00000  Uiso   1.00
H620   H     0.12552   0.30619   0.50230   0.00000  Uiso   1.00
H621   H     0.10741   0.27146   0.87626   0.00000  Uiso   1.00
I622   I     0.06300   0.25564   0.56132   0.00000  Uiso   1.00
I623   I     0.21500   0.02090   0.51864   0.00000  Uiso   1.00
I624   I     0.03771   0.20576   0.68982   0.00000  Uiso   1.00
I625   I     0.30405   0.12738   0.81394   0.00000  Uiso   1.00
I626   I     0.08464   0.32290   0.78691   0.00000  Uiso   1.00
I627   I     0.18732   0.22860   0.60313   0.00000  Uiso   1.00
I628   I     0.22052   0.05336   0.61700   0.00000  Uiso   1.00
I629   I     0.26910   0.08096   0.94056   0.00000  Uiso   1.00
I630   I     0.13266   0.10472   0.90379   0.00000  Uiso   1.00
O631   O     0.16667   0.16667   0.75000   0.00000  Uiso   1.00
O632   O     0.15693   0.12393   0.66625   0.00000  Uiso   1.00
O633   O     0.12687   0.20646   0.83749   0.00000  Uiso   1.00
O634   O     0.21088   0.17493   0.65877   0.00000  Uiso   1.00
O635   O     0.17198   0.16135   0.83749   0.00000  Uiso   1.00
O636   O     0.23511   0.04396   0.71077   0.00000  Uiso   1.00
O637   O     0.08717   0.31071   0.96935   0.00000  Uiso   1.00
O638   O     0.15611   0.30513   0.89353   0.00000  Uiso   1.00
O639   O     0.17849   0.08101   0.77820   0.00000  Uiso   1.00
O640   O     0.14581   0.26136   0.76767   0.00000  Uiso   1.00
O641   O     0.07452   0.13251   0.73607   0.00000  Uiso   1.00
O642   O     0.26785   0.19179   0.71805   0.00000  Uiso   1.00
O643   O     0.06990   0.18960   0.77820   0.00000  Uiso   1.00
O644   O     0.25440   0.15277   0.76767   0.00000  Uiso   1.00
O645   O     0.13800   0.06903   0.73607   0.00000  Uiso   1.00
O646   O     0.20437   0.25527   0.71805   0.00000  Uiso   1.00
Zn647  Zn    0.19244   0.14090   0.78277   0.00000  Uiso   1.00
Zn648  Zn    0.13459   0.12378   0.72257   0.00000  Uiso   1.00
Zn649  Zn    0.21166   0.19664   0.71188   0.00000  Uiso   1.00
Zn650  Zn    0.12798   0.20535   0.78277   0.00000  Uiso   1.00
C651   C     0.38611   0.16023   0.75838   0.00000  Uiso   1.00
C652   C     0.53165   0.13496   0.95899   0.00000  Uiso   1.00
C653   C     0.54883   0.11062   0.97814   0.00000  Uiso   1.00
C654   C     0.61435   0.17346   0.74128   0.00000  Uiso   1.00
C655   C     0.53694   0.11448   0.52000   0.00000  Uiso   1.00
C656   C     0.51654   0.14996   0.54079   0.00000  Uiso   1.00
C657   C     0.54493   0.08527   0.54197   0.00000  Uiso   1.00
C658   C     0.54063   0.09589   0.58273   0.00000  Uiso   1.00
C659   C     0.51956   0.16356   0.57962   0.00000  Uiso   1.00
C660   C     0.66021   0.17505   0.73751   0.00000  Uiso   1.00
C661   C     0.34088   0.15751   0.76288   0.00000  Uiso   1.00
C662   C     0.46240   0.24029   0.91785   0.00000  Uiso   1.00
C663   C     0.51680   0.32287   0.74092   0.00000  Uiso   1.00
C664   C     0.48395   0.01234   0.76034   0.00000  Uiso   1.00
C665   C     0.48882   0.05635   0.75889   0.00000  Uiso   1.00
C666   C     0.51041   0.27779   0.74169   0.00000  Uiso   1.00
C667   C     0.52137   0.14526   0.64385   0.00000  Uiso   1.00
C668   C     0.47897   0.18826   0.85626   0.00000  Uiso   1.00
C669   C     0.47163   0.19964   0.89948   0.00000  Uiso   1.00
C670   C     0.52954   0.13561   0.60096   0.00000  Uiso   1.00
C671   C     0.45407   0.24930   0.95955   0.00000  Uiso   1.00
C672   C     0.56082   0.00797   0.71877   0.00000  Uiso   1.00
C673   C     0.47753   0.17053   0.92219   0.00000  Uiso   1.00
C674   C     0.44467   0.29179   0.97886   0.00000  Uiso   1.00
C675   C     0.46337   0.27397   0.89368   0.00000  Uiso   1.00
C676   C     0.48020   0.18361   0.96100   0.00000  Uiso   1.00
C677   C     0.46042   0.21927   0.98167   0.00000  Uiso   1.00
C678   C     0.50105   0.16187   0.98031   0.00000  Uiso   1.00
C679   C     0.49455   0.17061   0.52157   0.00000  Uiso   1.00
C680   C     0.46302   0.19662   0.54275   0.00000  Uiso   1.00
C681   C     0.44718   0.22217   0.52361   0.00000  Uiso   1.00
H682   H     0.44993   0.19681   0.57443   0.00000  Uiso   1.00
H683   H     0.54339   0.13356   0.92709   0.00000  Uiso   1.00
H684   H     0.58710   0.32206   0.70880   0.00000  Uiso   1.00
H685   H     0.45886   0.30619   0.50230   0.00000  Uiso   1.00
H686   H     0.44075   0.27146   0.87626   0.00000  Uiso   1.00
I687   I     0.39633   0.25564   0.56132   0.00000  Uiso   1.00
I688   I     0.54834   0.02090   0.51864   0.00000  Uiso   1.00
I689   I     0.37105   0.20576   0.68982   0.00000  Uiso   1.00
I690   I     0.63739   0.12738   0.81394   0.00000  Uiso   1.00
I691   I     0.41798   0.32290   0.78691   0.00000  Uiso   1.00
I692   I     0.52065   0.22860   0.60313   0.00000  Uiso   1.00
I693   I     0.55385   0.05336   0.61700   0.00000  Uiso   1.00
I694   I     0.60243   0.08096   0.94056   0.00000  Uiso   1.00
I695   I     0.46599   0.10472   0.90379   0.00000  Uiso   1.00
O696   O     0.50000   0.16667   0.75000   0.00000  Uiso   1.00
O697   O     0.49027   0.12393   0.66625   0.00000  Uiso   1.00
O698   O     0.46020   0.20646   0.83749   0.00000  Uiso   1.00
O699   O     0.54421   0.17493   0.65877   0.00000  Uiso   1.00
O700   O     0.50532   0.16135   0.83749   0.00000  Uiso   1.00
O701   O     0.56845   0.04396   0.71077   0.00000  Uiso   1.00
O702   O     0.42051   0.31071   0.96935   0.00000  Uiso   1.00
O703   O     0.48945   0.30513   0.89353   0.00000  Uiso   1.00
O704   O     0.51182   0.08101   0.77820   0.00000  Uiso   1.00
O705   O     0.47914   0.26136   0.76767   0.00000  Uiso   1.00
O706   O     0.40785   0.13251   0.73607   0.00000  Uiso   1.00
O707   O     0.60119   0.19179   0.71805   0.00000  Uiso   1.00
O708   O     0.40323   0.18960   0.77820   0.00000  Uiso   1.00
O709   O     0.58773   0.15277   0.76767   0.00000  Uiso   1.00
O710   O     0.47133   0.06903   0.73607   0.00000  Uiso   1.00
O711   O     0.53771   0.25527   0.71805   0.00000  Uiso   1.00
Zn712  Zn    0.52577   0.14090   0.78277   0.00000  Uiso   1.00
Zn713  Zn    0.46792   0.12378   0.72257   0.00000  Uiso   1.00
Zn714  Zn    0.54500   0.19664   0.71188   0.00000  Uiso   1.00
Zn715  Zn    0.46131   0.20535   0.78277   0.00000  Uiso   1.00
C716   C     0.71944   0.16023   0.75838   0.00000  Uiso   1.00
C717   C     0.86498   0.13496   0.95899   0.00000  Uiso   1.00
C718   C     0.88216   0.11062   0.97814   0.00000  Uiso   1.00
C719   C     0.94768   0.17346   0.74128   0.00000  Uiso   1.00
C720   C     0.87027   0.11448   0.52000   0.00000  Uiso   1.00
C721   C     0.84988   0.14996   0.54079   0.00000  Uiso   1.00
C722   C     0.87826   0.08527   0.54197   0.00000  Uiso   1.00
C723   C     0.87397   0.09589   0.58273   0.00000  Uiso   1.00
C724   C     0.85289   0.16356   0.57962   0.00000  Uiso   1.00
C725   C     0.99354   0.17505   0.73751   0.00000  Uiso   1.00
C726   C     0.67421   0.15751   0.76288   0.00000  Uiso   1.00
C727   C     0.79573   0.24029   0.91785   0.00000  Uiso   1.00
C728   C     0.85014   0.32287   0.74092   0.00000  Uiso   1.00
C729   C     0.81728   0.01234   0.76034   0.00000  Uiso   1.00
C730   C     0.82215   0.05635   0.75889   0.00000  Uiso   1.00
C731   C     0.84375   0.27779   0.74169   0.00000  Uiso   1.00
C732   C     0.85470   0.14526   0.64385   0.00000  Uiso   1.00
C733   C     0.81230   0.18826   0.85626   0.00000  Uiso   1.00
C734   C     0.80496   0.19964   0.89948   0.00000  Uiso   1.00
C735   C     0.86287   0.13561   0.60096   0.00000  Uiso   1.00
C736   C     0.78740   0.24930   0.95955   0.00000  Uiso   1.00
C737   C     0.89415   0.00797   0.71877   0.00000  Uiso   1.00
C738   C     0.81086   0.17053   0.92219   0.00000  Uiso   1.00
C739   C     0.77800   0.29179   0.97886   0.00000  Uiso   1.00
C740   C     0.79671   0.27397   0.89368   0.00000  Uiso   1.00
C741   C     0.81353   0.18361   0.96100   0.00000  Uiso   1.00
C742   C     0.79375   0.21927   0.98167   0.00000  Uiso   1.00
C743   C     0.83438   0.16187   0.98031   0.00000  Uiso   1.00
C744   C     0.82789   0.17061   0.52157   0.00000  Uiso   1.00
C745   C     0.79635   0.19662   0.54275   0.00000  Uiso   1.00
C746   C     0.78051   0.22217   0.52361   0.00000  Uiso   1.00
H747   H     0.78326   0.19681   0.57443   0.00000  Uiso   1.00
H748   H     0.87673   0.13356   0.92709   0.00000  Uiso   1.00
H749   H     0.92043   0.32206   0.70880   0.00000  Uiso   1.00
H750   H     0.79219   0.30619   0.50230   0.00000  Uiso   1.00
H751   H     0.77408   0.27146   0.87626   0.00000  Uiso   1.00
I752   I     0.72967   0.25564   0.56132   0.00000  Uiso   1.00
I753   I     0.88167   0.02090   0.51864   0.00000  Uiso   1.00
I754   I     0.70438   0.20576   0.68982   0.00000  Uiso   1.00
I755   I     0.97072   0.12738   0.81394   0.00000  Uiso   1.00
I756   I     0.75131   0.32290   0.78691   0.00000  Uiso   1.00
I757   I     0.85398   0.22860   0.60313   0.00000  Uiso   1.00
I758   I     0.88718   0.05336   0.61700   0.00000  Uiso   1.00
I759   I     0.93576   0.08096   0.94056   0.00000  Uiso   1.00
I760   I     0.79932   0.10472   0.90379   0.00000  Uiso   1.00
O761   O     0.83333   0.16667   0.75000   0.00000  Uiso   1.00
O762   O     0.82360   0.12393   0.66625   0.00000  Uiso   1.00
O763   O     0.79354   0.20646   0.83749   0.00000  Uiso   1.00
O764   O     0.87755   0.17493   0.65877   0.00000  Uiso   1.00
O765   O     0.83865   0.16135   0.83749   0.00000  Uiso   1.00
O766   O     0.90178   0.04396   0.71077   0.00000  Uiso   1.00
O767   O     0.75384   0.31071   0.96935   0.00000  Uiso   1.00
O768   O     0.82278   0.30513   0.89353   0.00000  Uiso   1.00
O769   O     0.84515   0.08101   0.77820   0.00000  Uiso   1.00
O770   O     0.81247   0.26136   0.76767   0.00000  Uiso   1.00
O771   O     0.74119   0.13251   0.73607   0.00000  Uiso   1.00
O772   O     0.93452   0.19179   0.71805   0.00000  Uiso   1.00
O773   O     0.73656   0.18960   0.77820   0.00000  Uiso   1.00
O774   O     0.92106   0.15277   0.76767   0.00000  Uiso   1.00
O775   O     0.80467   0.06903   0.73607   0.00000  Uiso   1.00
O776   O     0.87104   0.25527   0.71805   0.00000  Uiso   1.00
Zn777  Zn    0.85910   0.14090   0.78277   0.00000  Uiso   1.00
Zn778  Zn    0.80125   0.12378   0.72257   0.00000  Uiso   1.00
Zn779  Zn    0.87833   0.19664   0.71188   0.00000  Uiso   1.00
Zn780  Zn    0.79465   0.20535   0.78277   0.00000  Uiso   1.00
C781   C     0.05278   0.49356   0.75838   0.00000  Uiso   1.00
C782   C     0.19832   0.46830   0.95899   0.00000  Uiso   1.00
C783   C     0.21550   0.44395   0.97814   0.00000  Uiso   1.00
C784   C     0.28101   0.50679   0.74128   0.00000  Uiso   1.00
C785   C     0.20361   0.44782   0.52000   0.00000  Uiso   1.00
C786   C     0.18321   0.48329   0.54079   0.00000  Uiso   1.00
C787   C     0.21159   0.41860   0.54197   0.00000  Uiso   1.00
C788   C     0.20730   0.42923   0.58273   0.00000  Uiso   1.00
C789   C     0.18623   0.49690   0.57962   0.00000  Uiso   1.00
C790   C     0.32688   0.50838   0.73751   0.00000  Uiso   1.00
C791   C     0.00755   0.49084   0.76288   0.00000  Uiso   1.00
C792   C     0.12907   0.57362   0.91785   0.00000  Uiso   1.00
C793   C     0.18347   0.65620   0.74092   0.00000  Uiso   1.00
C794   C     0.15062   0.34568   0.76034   0.00000  Uiso   1.00
C795   C     0.15548   0.38968   0.75889   0.00000  Uiso   1.00
C796   C     0.17708   0.61113   0.74169   0.00000  Uiso   1.00
C797   C     0.18804   0.47859   0.64385   0.00000  Uiso   1.00
C798   C     0.14564   0.52159   0.85626   0.00000  Uiso   1.00
C799   C     0.13829   0.53297   0.89948   0.00000  Uiso   1.00
C800   C     0.19620   0.46894   0.60096   0.00000  Uiso   1.00
C801   C     0.12074   0.58263   0.95955   0.00000  Uiso   1.00
C802   C     0.22748   0.34131   0.71877   0.00000  Uiso   1.00
C803   C     0.14419   0.50386   0.92219   0.00000  Uiso   1.00
C804   C     0.11134   0.62513   0.97886   0.00000  Uiso   1.00
C805   C     0.13004   0.60730   0.89368   0.00000  Uiso   1.00
C806   C     0.14687   0.51695   0.96100   0.00000  Uiso   1.00
C807   C     0.12709   0.55260   0.98167   0.00000  Uiso   1.00
C808   C     0.16771   0.49521   0.98031   0.00000  Uiso   1.00
C809   C     0.16122   0.50394   0.52157   0.00000  Uiso   1.00
C810   C     0.12968   0.52996   0.54275   0.00000  Uiso   1.00
C811   C     0.11384   0.55550   0.52361   0.00000  Uiso   1.00
H812   H     0.11659   0.53015   0.57443   0.00000  Uiso   1.00
H813   H     0.21006   0.46690   0.92709   0.00000  Uiso   1.00
H814   H     0.25376   0.65539   0.70880   0.00000  Uiso   1.00
H815   H     0.12552   0.63952   0.50230   0.00000  Uiso   1.00
H816   H     0.10741   0.60479   0.87626   0.00000  Uiso   1.00
I817   I     0.06300   0.58897   0.56132   0.00000  Uiso   1.00
I818   I     0.21500   0.35423   0.51864   0.00000  Uiso   1.00
I819   I     0.03771   0.53910   0.68982   0.00000  Uiso   1.00
I820   I     0.30405   0.46071   0.81394   0.00000  Uiso   1.00
I821   I     0.08464   0.65623   0.78691   0.00000  Uiso   1.00
I822   I     0.18732   0.56193   0.60313   0.00000  Uiso   1.00
I823   I     0.22052   0.38670   0.61700   0.00000  Uiso   1.00
I824   I     0.26910   0.41429   0.94056   0.00000  Uiso   1.00
I825   I     0.13266   0.43806   0.90379   0.00000  Uiso   1.00
O826   O     0.16667   0.50000   0.75000   0.00000  Uiso   1.00
O827   O     0.15693   0.45726   0.66625   0.00000  Uiso   1.00
O828   O     0.12687   0.53979   0.83749   0.00000  Uiso   1.00
O829   O     0.21088   0.50826   0.65877   0.00000  Uiso   1.00
O830   O     0.17198   0.49468   0.83749   0.00000  Uiso   1.00
O831   O     0.23511   0.37729   0.71077   0.00000  Uiso   1.00
O832   O     0.08717   0.64404   0.96935   0.00000  Uiso   1.00
O833   O     0.15611   0.63847   0.89353   0.00000  Uiso   1.00
O834   O     0.17849   0.41434   0.77820   0.00000  Uiso   1.00
O835   O     0.14581   0.59469   0.76767   0.00000  Uiso   1.00
O836   O     0.07452   0.46584   0.73607   0.00000  Uiso   1.00
O837   O     0.26785   0.52512   0.71805   0.00000  Uiso   1.00
O838   O     0.06990   0.52293   0.77820   0.00000  Uiso   1.00
O839   O     0.25440   0.48610   0.76767   0.00000  Uiso   1.00
O840   O     0.13800   0.40236   0.73607   0.00000  Uiso   1.00
O841   O     0.20437   0.58860   0.71805   0.00000  Uiso   1.00
Zn842  Zn    0.19244   0.47423   0.78277   0.00000  Uiso   1.00
Zn843  Zn    0.13459   0.45711   0.72257   0.00000  Uiso   1.00
Zn844  Zn    0.21166   0.52997   0.71188   0.00000  Uiso   1.00
Zn845  Zn    0.12798   0.53868   0.78277   0.00000  Uiso   1.00
C846   C     0.38611   0.49356   0.75838   0.00000  Uiso   1.00
C847   C     0.53165   0.46830   0.95899   0.00000  Uiso   1.00
C848   C     0.54883   0.44395   0.97814   0.00000  Uiso   1.00
C849   C     0.61435   0.50679   0.74128   0.00000  Uiso   1.00
C850   C     0.53694   0.44782   0.52000   0.00000  Uiso   1.00
C851   C     0.51654   0.48329   0.54079   0.00000  Uiso   1.00
C852   C     0.54493   0.41860   0.54197   0.00000  Uiso   1.00
C853   C     0.54063   0.42923   0.58273   0.00000  Uiso   1.00
C854   C     0.51956   0.49690   0.57962   0.00000  Uiso   1.00
C855   C     0.66021   0.50838   0.73751   0.00000  Uiso   1.00
C856   C     0.34088   0.49084   0.76288   0.00000  Uiso   1.00
C857   C     0.46240   0.57362   0.91785   0.00000  Uiso   1.00
C858   C     0.51680   0.65620   0.74092   0.00000  Uiso   1.00
C859   C     0.48395   0.34568   0.76034   0.00000  Uiso   1.00
C860   C     0.48882   0.38968   0.75889   0.00000  Uiso   1.00
C861   C     0.51041   0.61113   0.74169   0.00000  Uiso   1.00
C862   C     0.52137   0.47859   0.64385   0.00000  Uiso   1.00
C863   C     0.47897   0.52159   0.85626   0.00000  Uiso   1.00
C864   C     0.47163   0.53297   0.89948   0.00000  Uiso   1.00
C865   C     0.52954   0.46894   0.60096   0.00000  Uiso   1.00
C866   C     0.45407   0.58263   0.95955   0.00000  Uiso   1.00
C867   C     0.56082   0.34131   0.71877   0.00000  Uiso   1.00
C868   C     0.47753   0.50386   0.92219   0.00000  Uiso   1.00
C869   C     0.44467   0.62513   0.97886   0.00000  Uiso   1.00
C870   C     0.46337   0.60730   0.89368   0.00000  Uiso   1.00
C871   C     0.48020   0.51695   0.96100   0.00000  Uiso   1.00
C872   C     0.46042   0.55260   0.98167   0.00000  Uiso   1.00
C873   C     0.50105   0.49521   0.98031   0.00000  Uiso   1.00
C874   C     0.49455   0.50394   0.52157   0.00000  Uiso   1.00
C875   C     0.46302   0.52996   0.54275   0.00000  Uiso   1.00
C876   C     0.44718   0.55550   0.52361   0.00000  Uiso   1.00
H877   H     0.44993   0.53015   0.57443   0.00000  Uiso   1.00
H878   H     0.54339   0.46690   0.92709   0.00000  Uiso   1.00
H879   H     0.58710   0.65539   0.70880   0.00000  Uiso   1.00
H880   H     0.45886   0.63952   0.50230   0.00000  Uiso   1.00
H881   H     0.44075   0.60479   0.87626   0.00000  Uiso   1.00
I882   I     0.39633   0.58897   0.56132   0.00000  Uiso   1.00
I883   I     0.54834   0.35423   0.51864   0.00000  Uiso   1.00
I884   I     0.37105   0.53910   0.68982   0.00000  Uiso   1.00
I885   I     0.63739   0.46071   0.81394   0.00000  Uiso   1.00
I886   I     0.41798   0.65623   0.78691   0.00000  Uiso   1.00
I887   I     0.52065   0.56193   0.60313   0.00000  Uiso   1.00
I888   I     0.55385   0.38670   0.61700   0.00000  Uiso   1.00
I889   I     0.60243   0.41429   0.94056   0.00000  Uiso   1.00
I890   I     0.46599   0.43806   0.90379   0.00000  Uiso   1.00
O891   O     0.50000   0.50000   0.75000   0.00000  Uiso   1.00
O892   O     0.49027   0.45726   0.66625   0.00000  Uiso   1.00
O893   O     0.46020   0.53979   0.83749   0.00000  Uiso   1.00
O894   O     0.54421   0.50826   0.65877   0.00000  Uiso   1.00
O895   O     0.50532   0.49468   0.83749   0.00000  Uiso   1.00
O896   O     0.56845   0.37729   0.71077   0.00000  Uiso   1.00
O897   O     0.42051   0.64404   0.96935   0.00000  Uiso   1.00
O898   O     0.48945   0.63847   0.89353   0.00000  Uiso   1.00
O899   O     0.51182   0.41434   0.77820   0.00000  Uiso   1.00
O900   O     0.47914   0.59469   0.76767   0.00000  Uiso   1.00
O901   O     0.40785   0.46584   0.73607   0.00000  Uiso   1.00
O902   O     0.60119   0.52512   0.71805   0.00000  Uiso   1.00
O903   O     0.40323   0.52293   0.77820   0.00000  Uiso   1.00
O904   O     0.58773   0.48610   0.76767   0.00000  Uiso   1.00
O905   O     0.47133   0.40236   0.73607   0.00000  Uiso   1.00
O906   O     0.53771   0.58860   0.71805   0.00000  Uiso   1.00
Zn907  Zn    0.52577   0.47423   0.78277   0.00000  Uiso   1.00
Zn908  Zn    0.46792   0.45711   0.72257   0.00000  Uiso   1.00
Zn909  Zn    0.54500   0.52997   0.71188   0.00000  Uiso   1.00
Zn910  Zn    0.46131   0.53868   0.78277   0.00000  Uiso   1.00
C911   C     0.71944   0.49356   0.75838   0.00000  Uiso   1.00
C912   C     0.86498   0.46830   0.95899   0.00000  Uiso   1.00
C913   C     0.88216   0.44395   0.97814   0.00000  Uiso   1.00
C914   C     0.94768   0.50679   0.74128   0.00000  Uiso   1.00
C915   C     0.87027   0.44782   0.52000   0.00000  Uiso   1.00
C916   C     0.84988   0.48329   0.54079   0.00000  Uiso   1.00
C917   C     0.87826   0.41860   0.54197   0.00000  Uiso   1.00
C918   C     0.87397   0.42923   0.58273   0.00000  Uiso   1.00
C919   C     0.85289   0.49690   0.57962   0.00000  Uiso   1.00
C920   C     0.99354   0.50838   0.73751   0.00000  Uiso   1.00
C921   C     0.67421   0.49084   0.76288   0.00000  Uiso   1.00
C922   C     0.79573   0.57362   0.91785   0.00000  Uiso   1.00
C923   C     0.85014   0.65620   0.74092   0.00000  Uiso   1.00
C924   C     0.81728   0.34568   0.76034   0.00000  Uiso   1.00
C925   C     0.82215   0.38968   0.75889   0.00000  Uiso   1.00
C926   C     0.84375   0.61113   0.74169   0.00000  Uiso   1.00
C927   C     0.85470   0.47859   0.64385   0.00000  Uiso   1.00
C928   C     0.81230   0.52159   0.85626   0.00000  Uiso   1.00
C929   C     0.80496   0.53297   0.89948   0.00000  Uiso   1.00
C930   C     0.86287   0.46894   0.60096   0.00000  Uiso   1.00
C931   C     0.78740   0.58263   0.95955   0.00000  Uiso   1.00
C932   C     0.89415   0.34131   0.71877   0.00000  Uiso   1.00
C933   C     0.81086   0.50386   0.92219   0.00000  Uiso   1.00
C934   C     0.77800   0.62513   0.97886   0.00000  Uiso   1.00
C935   C     0.79671   0.60730   0.89368   0.00000  Uiso   1.00
C936   C     0.81353   0.51695   0.96100   0.00000  Uiso   1.00
C937   C     0.79375   0.55260   0.98167   0.00000  Uiso   1.00
C938   C     0.83438   0.49521   0.98031   0.00000  Uiso   1.00
C939   C     0.82789   0.50394   0.52157   0.00000  Uiso   1.00
C940   C     0.79635   0.52996   0.54275   0.00000  Uiso   1.00
C941   C     0.78051   0.55550   0.52361   0.00000  Uiso   1.00
H942   H     0.78326   0.53015   0.57443   0.00000  Uiso   1.00
H943   H     0.87673   0.46690   0.92709   0.00000  Uiso   1.00
H944   H     0.92043   0.65539   0.70880   0.00000  Uiso   1.00
H945   H     0.79219   0.63952   0.50230   0.00000  Uiso   1.00
H946   H     0.77408   0.60479   0.87626   0.00000  Uiso   1.00
I947   I     0.72967   0.58897   0.56132   0.00000  Uiso   1.00
I948   I     0.88167   0.35423   0.51864   0.00000  Uiso   1.00
I949   I     0.70438   0.53910   0.68982   0.00000  Uiso   1.00
I950   I     0.97072   0.46071   0.81394   0.00000  Uiso   1.00
I951   I     0.75131   0.65623   0.78691   0.00000  Uiso   1.00
I952   I     0.85398   0.56193   0.60313   0.00000  Uiso   1.00
I953   I     0.88718   0.38670   0.61700   0.00000  Uiso   1.00
I954   I     0.93576   0.41429   0.94056   0.00000  Uiso   1.00
I955   I     0.79932   0.43806   0.90379   0.00000  Uiso   1.00
O956   O     0.83333   0.50000   0.75000   0.00000  Uiso   1.00
O957   O     0.82360   0.45726   0.66625   0.00000  Uiso   1.00
O958   O     0.79354   0.53979   0.83749   0.00000  Uiso   1.00
O959   O     0.87755   0.50826   0.65877   0.00000  Uiso   1.00
O960   O     0.83865   0.49468   0.83749   0.00000  Uiso   1.00
O961   O     0.90178   0.37729   0.71077   0.00000  Uiso   1.00
O962   O     0.75384   0.64404   0.96935   0.00000  Uiso   1.00
O963   O     0.82278   0.63847   0.89353   0.00000  Uiso   1.00
O964   O     0.84515   0.41434   0.77820   0.00000  Uiso   1.00
O965   O     0.81247   0.59469   0.76767   0.00000  Uiso   1.00
O966   O     0.74119   0.46584   0.73607   0.00000  Uiso   1.00
O967   O     0.93452   0.52512   0.71805   0.00000  Uiso   1.00
O968   O     0.73656   0.52293   0.77820   0.00000  Uiso   1.00
O969   O     0.92106   0.48610   0.76767   0.00000  Uiso   1.00
O970   O     0.80467   0.40236   0.73607   0.00000  Uiso   1.00
O971   O     0.87104   0.58860   0.71805   0.00000  Uiso   1.00
Zn972  Zn    0.85910   0.47423   0.78277   0.00000  Uiso   1.00
Zn973  Zn    0.80125   0.45711   0.72257   0.00000  Uiso   1.00
Zn974  Zn    0.87833   0.52997   0.71188   0.00000  Uiso   1.00
Zn975  Zn    0.79465   0.53868   0.78277   0.00000  Uiso   1.00
C976   C     0.05278   0.82689   0.75838   0.00000  Uiso   1.00
C977   C     0.19832   0.80163   0.95899   0.00000  Uiso   1.00
C978   C     0.21550   0.77728   0.97814   0.00000  Uiso   1.00
C979   C     0.28101   0.84012   0.74128   0.00000  Uiso   1.00
C980   C     0.20361   0.78115   0.52000   0.00000  Uiso   1.00
C981   C     0.18321   0.81662   0.54079   0.00000  Uiso   1.00
C982   C     0.21159   0.75194   0.54197   0.00000  Uiso   1.00
C983   C     0.20730   0.76256   0.58273   0.00000  Uiso   1.00
C984   C     0.18623   0.83023   0.57962   0.00000  Uiso   1.00
C985   C     0.32688   0.84171   0.73751   0.00000  Uiso   1.00
C986   C     0.00755   0.82417   0.76288   0.00000  Uiso   1.00
C987   C     0.12907   0.90696   0.91785   0.00000  Uiso   1.00
C988   C     0.18347   0.98954   0.74092   0.00000  Uiso   1.00
C989   C     0.15062   0.67901   0.76034   0.00000  Uiso   1.00
C990   C     0.15548   0.72301   0.75889   0.00000  Uiso   1.00
C991   C     0.17708   0.94446   0.74169   0.00000  Uiso   1.00
C992   C     0.18804   0.81192   0.64385   0.00000  Uiso   1.00
C993   C     0.14564   0.85493   0.85626   0.00000  Uiso   1.00
C994   C     0.13829   0.86631   0.89948   0.00000  Uiso   1.00
C995   C     0.19620   0.80227   0.60096   0.00000  Uiso   1.00
C996   C     0.12074   0.91597   0.95955   0.00000  Uiso   1.00
C997   C     0.22748   0.67464   0.71877   0.00000  Uiso   1.00
C998   C     0.14419   0.83719   0.92219   0.00000  Uiso   1.00
C999   C     0.11134   0.95846   0.97886   0.00000  Uiso   1.00
C1000  C     0.13004   0.94063   0.89368   0.00000  Uiso   1.00
C1001  C     0.14687   0.85028   0.96100   0.00000  Uiso   1.00
C1002  C     0.12709   0.88594   0.98167   0.00000  Uiso   1.00
C1003  C     0.16771   0.82854   0.98031   0.00000  Uiso   1.00
C1004  C     0.16122   0.83728   0.52157   0.00000  Uiso   1.00
C1005  C     0.12968   0.86329   0.54275   0.00000  Uiso   1.00
C1006  C     0.11384   0.88883   0.52361   0.00000  Uiso   1.00
H1007  H     0.11659   0.86348   0.57443   0.00000  Uiso   1.00
H1008  H     0.21006   0.80023   0.92709   0.00000  Uiso   1.00
H1009  H     0.25376   0.98872   0.70880   0.00000  Uiso   1.00
H1010  H     0.12552   0.97286   0.50230   0.00000  Uiso   1.00
H1011  H     0.10741   0.93812   0.87626   0.00000  Uiso   1.00
I1012  I     0.06300   0.92231   0.56132   0.00000  Uiso   1.00
I1013  I     0.21500   0.68757   0.51864   0.00000  Uiso   1.00
I1014  I     0.03771   0.87243   0.68982   0.00000  Uiso   1.00
I1015  I     0.30405   0.79405   0.81394   0.00000  Uiso   1.00
I1016  I     0.08464   0.98957   0.78691   0.00000  Uiso   1.00
I1017  I     0.18732   0.89526   0.60313   0.00000  Uiso   1.00
I1018  I     0.22052   0.72003   0.61700   0.00000  Uiso   1.00
I1019  I     0.26910   0.74762   0.94056   0.00000  Uiso   1.00
I1020  I     0.13266   0.77139   0.90379   0.00000  Uiso   1.00
O1021  O     0.16667   0.83333   0.75000   0.00000  Uiso   1.00
O1022  O     0.15693   0.79060   0.66625   0.00000  Uiso   1.00
O1023  O     0.12687   0.87313   0.83749   0.00000  Uiso   1.00
O1024  O     0.21088   0.84159   0.65877   0.00000  Uiso   1.00
O1025  O     0.17198   0.82802   0.83749   0.00000  Uiso   1.00
O1026  O     0.23511   0.71063   0.71077   0.00000  Uiso   1.00
O1027  O     0.08717   0.97738   0.96935   0.00000  Uiso   1.00
O1028  O     0.15611   0.97180   0.89353   0.00000  Uiso   1.00
O1029  O     0.17849   0.74768   0.77820   0.00000  Uiso   1.00
O1030  O     0.14581   0.92803   0.76767   0.00000  Uiso   1.00
O1031  O     0.07452   0.79917   0.73607   0.00000  Uiso   1.00
O1032  O     0.26785   0.85845   0.71805   0.00000  Uiso   1.00
O1033  O     0.06990   0.85627   0.77820   0.00000  Uiso   1.00
O1034  O     0.25440   0.81944   0.76767   0.00000  Uiso   1.00
O1035  O     0.13800   0.73570   0.73607   0.00000  Uiso   1.00
O1036  O     0.20437   0.92193   0.71805   0.00000  Uiso   1.00
Zn1037 Zn    0.19244   0.80756   0.78277   0.00000  Uiso   1.00
Zn1038 Zn    0.13459   0.79044   0.72257   0.00000  Uiso   1.00
Zn1039 Zn    0.21166   0.86331   0.71188   0.00000  Uiso   1.00
Zn1040 Zn    0.12798   0.87202   0.78277   0.00000  Uiso   1.00
C1041  C     0.38611   0.82689   0.75838   0.00000  Uiso   1.00
C1042  C     0.53165   0.80163   0.95899   0.00000  Uiso   1.00
C1043  C     0.54883   0.77728   0.97814   0.00000  Uiso   1.00
C1044  C     0.61435   0.84012   0.74128   0.00000  Uiso   1.00
C1045  C     0.53694   0.78115   0.52000   0.00000  Uiso   1.00
C1046  C     0.51654   0.81662   0.54079   0.00000  Uiso   1.00
C1047  C     0.54493   0.75194   0.54197   0.00000  Uiso   1.00
C1048  C     0.54063   0.76256   0.58273   0.00000  Uiso   1.00
C1049  C     0.51956   0.83023   0.57962   0.00000  Uiso   1.00
C1050  C     0.66021   0.84171   0.73751   0.00000  Uiso   1.00
C1051  C     0.34088   0.82417   0.76288   0.00000  Uiso   1.00
C1052  C     0.46240   0.90696   0.91785   0.00000  Uiso   1.00
C1053  C     0.51680   0.98954   0.74092   0.00000  Uiso   1.00
C1054  C     0.48395   0.67901   0.76034   0.00000  Uiso   1.00
C1055  C     0.48882   0.72301   0.75889   0.00000  Uiso   1.00
C1056  C     0.51041   0.94446   0.74169   0.00000  Uiso   1.00
C1057  C     0.52137   0.81192   0.64385   0.00000  Uiso   1.00
C1058  C     0.47897   0.85493   0.85626   0.00000  Uiso   1.00
C1059  C     0.47163   0.86631   0.89948   0.00000  Uiso   1.00
C1060  C     0.52954   0.80227   0.60096   0.00000  Uiso   1.00
C1061  C     0.45407   0.91597   0.95955   0.00000  Uiso   1.00
C1062  C     0.56082   0.67464   0.71877   0.00000  Uiso   1.00
C1063  C     0.47753   0.83719   0.92219   0.00000  Uiso   1.00
C1064  C     0.44467   0.95846   0.97886   0.00000  Uiso   1.00
C1065  C     0.46337   0.94063   0.89368   0.00000  Uiso   1.00
C1066  C     0.48020   0.85028   0.96100   0.00000  Uiso   1.00
C1067  C     0.46042   0.88594   0.98167   0.00000  Uiso   1.00
C1068  C     0.50105   0.82854   0.98031   0.00000  Uiso   1.00
C1069  C     0.49455   0.83728   0.52157   0.00000  Uiso   1.00
C1070  C     0.46302   0.86329   0.54275   0.00000  Uiso   1.00
C1071  C     0.44718   0.88883   0.52361   0.00000  Uiso   1.00
H1072  H     0.44993   0.86348   0.57443   0.00000  Uiso   1.00
H1073  H     0.54339   0.80023   0.92709   0.00000  Uiso   1.00
H1074  H     0.58710   0.98872   0.70880   0.00000  Uiso   1.00
H1075  H     0.45886   0.97286   0.50230   0.00000  Uiso   1.00
H1076  H     0.44075   0.93812   0.87626   0.00000  Uiso   1.00
I1077  I     0.39633   0.92231   0.56132   0.00000  Uiso   1.00
I1078  I     0.54834   0.68757   0.51864   0.00000  Uiso   1.00
I1079  I     0.37105   0.87243   0.68982   0.00000  Uiso   1.00
I1080  I     0.63739   0.79405   0.81394   0.00000  Uiso   1.00
I1081  I     0.41798   0.98957   0.78691   0.00000  Uiso   1.00
I1082  I     0.52065   0.89526   0.60313   0.00000  Uiso   1.00
I1083  I     0.55385   0.72003   0.61700   0.00000  Uiso   1.00
I1084  I     0.60243   0.74762   0.94056   0.00000  Uiso   1.00
I1085  I     0.46599   0.77139   0.90379   0.00000  Uiso   1.00
O1086  O     0.50000   0.83333   0.75000   0.00000  Uiso   1.00
O1087  O     0.49027   0.79060   0.66625   0.00000  Uiso   1.00
O1088  O     0.46020   0.87313   0.83749   0.00000  Uiso   1.00
O1089  O     0.54421   0.84159   0.65877   0.00000  Uiso   1.00
O1090  O     0.50532   0.82802   0.83749   0.00000  Uiso   1.00
O1091  O     0.56845   0.71063   0.71077   0.00000  Uiso   1.00
O1092  O     0.42051   0.97738   0.96935   0.00000  Uiso   1.00
O1093  O     0.48945   0.97180   0.89353   0.00000  Uiso   1.00
O1094  O     0.51182   0.74768   0.77820   0.00000  Uiso   1.00
O1095  O     0.47914   0.92803   0.76767   0.00000  Uiso   1.00
O1096  O     0.40785   0.79917   0.73607   0.00000  Uiso   1.00
O1097  O     0.60119   0.85845   0.71805   0.00000  Uiso   1.00
O1098  O     0.40323   0.85627   0.77820   0.00000  Uiso   1.00
O1099  O     0.58773   0.81944   0.76767   0.00000  Uiso   1.00
O1100  O     0.47133   0.73570   0.73607   0.00000  Uiso   1.00
O1101  O     0.53771   0.92193   0.71805   0.00000  Uiso   1.00
Zn1102 Zn    0.52577   0.80756   0.78277   0.00000  Uiso   1.00
Zn1103 Zn    0.46792   0.79044   0.72257   0.00000  Uiso   1.00
Zn1104 Zn    0.54500   0.86331   0.71188   0.00000  Uiso   1.00
Zn1105 Zn    0.46131   0.87202   0.78277   0.00000  Uiso   1.00
C1106  C     0.71944   0.82689   0.75838   0.00000  Uiso   1.00
C1107  C     0.86498   0.80163   0.95899   0.00000  Uiso   1.00
C1108  C     0.88216   0.77728   0.97814   0.00000  Uiso   1.00
C1109  C     0.94768   0.84012   0.74128   0.00000  Uiso   1.00
C1110  C     0.87027   0.78115   0.52000   0.00000  Uiso   1.00
C1111  C     0.84988   0.81662   0.54079   0.00000  Uiso   1.00
C1112  C     0.87826   0.75194   0.54197   0.00000  Uiso   1.00
C1113  C     0.87397   0.76256   0.58273   0.00000  Uiso   1.00
C1114  C     0.85289   0.83023   0.57962   0.00000  Uiso   1.00
C1115  C     0.99354   0.84171   0.73751   0.00000  Uiso   1.00
C1116  C     0.67421   0.82417   0.76288   0.00000  Uiso   1.00
C1117  C     0.79573   0.90696   0.91785   0.00000  Uiso   1.00
C1118  C     0.85014   0.98954   0.74092   0.00000  Uiso   1.00
C1119  C     0.81728   0.67901   0.76034   0.00000  Uiso   1.00
C1120  C     0.82215   0.72301   0.75889   0.00000  Uiso   1.00
C1121  C     0.84375   0.94446   0.74169   0.00000  Uiso   1.00
C1122  C     0.85470   0.81192   0.64385   0.00000  Uiso   1.00
C1123  C     0.81230   0.85493   0.85626   0.00000  Uiso   1.00
C1124  C     0.80496   0.86631   0.89948   0.00000  Uiso   1.00
C1125  C     0.86287   0.80227   0.60096   0.00000  Uiso   1.00
C1126  C     0.78740   0.91597   0.95955   0.00000  Uiso   1.00
C1127  C     0.89415   0.67464   0.71877   0.00000  Uiso   1.00
C1128  C     0.81086   0.83719   0.92219   0.00000  Uiso   1.00
C1129  C     0.77800   0.95846   0.97886   0.00000  Uiso   1.00
C1130  C     0.79671   0.94063   0.89368   0.00000  Uiso   1.00
C1131  C     0.81353   0.85028   0.96100   0.00000  Uiso   1.00
C1132  C     0.79375   0.88594   0.98167   0.00000  Uiso   1.00
C1133  C     0.83438   0.82854   0.98031   0.00000  Uiso   1.00
C1134  C     0.82789   0.83728   0.52157   0.00000  Uiso   1.00
C1135  C     0.79635   0.86329   0.54275   0.00000  Uiso   1.00
C1136  C     0.78051   0.88883   0.52361   0.00000  Uiso   1.00
H1137  H     0.78326   0.86348   0.57443   0.00000  Uiso   1.00
H1138  H     0.87673   0.80023   0.92709   0.00000  Uiso   1.00
H1139  H     0.92043   0.98872   0.70880   0.00000  Uiso   1.00
H1140  H     0.79219   0.97286   0.50230   0.00000  Uiso   1.00
H1141  H     0.77408   0.93812   0.87626   0.00000  Uiso   1.00
I1142  I     0.72967   0.92231   0.56132   0.00000  Uiso   1.00
I1143  I     0.88167   0.68757   0.51864   0.00000  Uiso   1.00
I1144  I     0.70438   0.87243   0.68982   0.00000  Uiso   1.00
I1145  I     0.97072   0.79405   0.81394   0.00000  Uiso   1.00
I1146  I     0.75131   0.98957   0.78691   0.00000  Uiso   1.00
I1147  I     0.85398   0.89526   0.60313   0.00000  Uiso   1.00
I1148  I     0.88718   0.72003   0.61700   0.00000  Uiso   1.00
I1149  I     0.93576   0.74762   0.94056   0.00000  Uiso   1.00
I1150  I     0.79932   0.77139   0.90379   0.00000  Uiso   1.00
O1151  O     0.83333   0.83333   0.75000   0.00000  Uiso   1.00
O1152  O     0.82360   0.79060   0.66625   0.00000  Uiso   1.00
O1153  O     0.79354   0.87313   0.83749   0.00000  Uiso   1.00
O1154  O     0.87755   0.84159   0.65877   0.00000  Uiso   1.00
O1155  O     0.83865   0.82802   0.83749   0.00000  Uiso   1.00
O1156  O     0.90178   0.71063   0.71077   0.00000  Uiso   1.00
O1157  O     0.75384   0.97738   0.96935   0.00000  Uiso   1.00
O1158  O     0.82278   0.97180   0.89353   0.00000  Uiso   1.00
O1159  O     0.84515   0.74768   0.77820   0.00000  Uiso   1.00
O1160  O     0.81247   0.92803   0.76767   0.00000  Uiso   1.00
O1161  O     0.74119   0.79917   0.73607   0.00000  Uiso   1.00
O1162  O     0.93452   0.85845   0.71805   0.00000  Uiso   1.00
O1163  O     0.73656   0.85627   0.77820   0.00000  Uiso   1.00
O1164  O     0.92106   0.81944   0.76767   0.00000  Uiso   1.00
O1165  O     0.80467   0.73570   0.73607   0.00000  Uiso   1.00
O1166  O     0.87104   0.92193   0.71805   0.00000  Uiso   1.00
Zn1167 Zn    0.85910   0.80756   0.78277   0.00000  Uiso   1.00
Zn1168 Zn    0.80125   0.79044   0.72257   0.00000  Uiso   1.00
Zn1169 Zn    0.87833   0.86331   0.71188   0.00000  Uiso   1.00
Zn1170 Zn    0.79465   0.87202   0.78277   0.00000  Uiso   1.00
loop_
_geom_bond_atom_site_label_1
_geom_bond_atom_site_label_2
_geom_bond_distance
_geom_bond_site_symmetry_2
_ccdc_geom_bond_type
C1     C11     1.429   .     S
C1     O56     1.266   .     A
C1     O58     1.262   .     A
C2     C3      1.392   .     A
C2     H33     1.082   .     S
C2     C28     1.403   .     A
C3     I44     2.131   .     S
C3     C590    1.415   .     S
C4     O57     1.290   .     A
C4     O59     1.272   .     A
C4     C10     1.458   .     S
C5     C6      1.422   .     A
C5     C7      1.418   .     A
C5     C588    1.415   1_554 S
C6     C9      1.414   .     A
C6     C29     1.421   .     A
C7     C8      1.410   .     A
C7     I38     2.146   .     S
C8     I43     2.146   .     S
C8     C20     1.409   .     A
C9     I42     2.160   .     S
C9     C20     1.401   .     A
C10    C76     1.354   .     S
C10    I104    2.140   .     S
C11    C140    1.354   1_455 S
C11    I170    2.143   1_455 S
C12    C25     1.485   .     S
C12    C19     1.423   .     A
C12    C21     1.420   .     A
C13    C16     1.456   .     S
C13    C209    1.356   .     S
C13    C217    1.502   .     S
C14    C15     1.427   .     S
C14    C403    1.356   1_545 S
C14    I431    2.145   1_545 S
C15    O60     1.268   .     A
C15    O54     1.280   .     A
C16    O55     1.267   .     A
C16    O61     1.272   .     A
C17    C20     1.463   .     S
C17    O49     1.278   .     A
C17    O47     1.273   .     A
C18    O50     1.295   .     A
C18    C19     1.483   .     S
C18    O48     1.285   .     A
C19    C23     1.405   .     A
C21    C27     1.419   .     A
C21    C24     1.486   .     S
C22    O51     1.221   .     D
C22    C403    1.502   1_545 S
C22    H424    1.085   1_545 S
C23    I45     2.157   .     S
C23    C26     1.408   .     A
C24    O52     1.221   .     D
C24    H620    1.084   .     S
C25    H36     1.084   .     S
C25    O53     1.221   .     D
C26    C28     1.419   .     A
C26    C27     1.417   .     A
C27    C616    1.418   .     S
C28    C614    1.411   .     S
C29    C30     1.403   .     A
C29    C613    1.411   1_554 S
C30    H32     1.081   .     S
C30    C31     1.393   .     A
C31    I37     2.135   .     S
C31    C612    1.418   1_554 S
H34    C217    1.085   .     S
H35    C609    1.084   1_554 S
I39    C140    2.140   1_455 S
I40    C76     2.143   .     S
I41    C209    2.145   .     S
O46    Zn63    1.937   .     S
O46    Zn64    1.932   .     S
O46    Zn62    1.968   .     S
O46    Zn65    1.932   .     S
O47    Zn63    1.920   .     S
O48    Zn65    1.932   .     S
O49    Zn64    1.923   .     S
O50    Zn62    1.913   .     S
O54    Zn62    1.930   .     S
O55    Zn65    1.936   .     S
O56    Zn63    1.934   .     S
O57    Zn64    1.946   .     S
O58    Zn65    1.936   .     S
O59    Zn62    1.927   .     S
O60    Zn63    1.946   .     S
O61    Zn64    1.936   .     S
C66    C76     1.429   .     S
C66    O121    1.266   .     A
C66    O123    1.262   .     A
C67    C68     1.392   .     A
C67    H98     1.082   .     S
C67    C93     1.403   .     A
C68    I109    2.131   .     S
C68    C655    1.415   .     S
C69    O122    1.290   .     A
C69    O124    1.272   .     A
C69    C75     1.458   .     S
C70    C71     1.422   .     A
C70    C72     1.418   .     A
C70    C653    1.415   1_554 S
C71    C74     1.414   .     A
C71    C94     1.421   .     A
C72    C73     1.410   .     A
C72    I103    2.146   .     S
C73    I108    2.146   .     S
C73    C85     1.409   .     A
C74    I107    2.160   .     S
C74    C85     1.401   .     A
C75    C141    1.354   .     S
C75    I169    2.140   .     S
C77    C90     1.485   .     S
C77    C84     1.423   .     A
C77    C86     1.420   .     A
C78    C81     1.456   .     S
C78    C274    1.356   .     S
C78    C282    1.502   .     S
C79    C80     1.427   .     S
C79    C468    1.356   1_545 S
C79    I496    2.145   1_545 S
C80    O125    1.268   .     A
C80    O119    1.280   .     A
C81    O120    1.267   .     A
C81    O126    1.272   .     A
C82    C85     1.463   .     S
C82    O114    1.278   .     A
C82    O112    1.273   .     A
C83    O115    1.295   .     A
C83    C84     1.483   .     S
C83    O113    1.285   .     A
C84    C88     1.405   .     A
C86    C92     1.419   .     A
C86    C89     1.486   .     S
C87    O116    1.221   .     D
C87    C468    1.502   1_545 S
C87    H489    1.085   1_545 S
C88    I110    2.157   .     S
C88    C91     1.408   .     A
C89    O117    1.221   .     D
C89    H685    1.084   .     S
C90    H101    1.084   .     S
C90    O118    1.221   .     D
C91    C93     1.419   .     A
C91    C92     1.417   .     A
C92    C681    1.418   .     S
C93    C679    1.411   .     S
C94    C95     1.403   .     A
C94    C678    1.411   1_554 S
C95    H97     1.081   .     S
C95    C96     1.393   .     A
C96    I102    2.135   .     S
C96    C677    1.418   1_554 S
H99    C282    1.085   .     S
H100   C674    1.084   1_554 S
I105   C141    2.143   .     S
I106   C274    2.145   .     S
O111   Zn128   1.937   .     S
O111   Zn129   1.932   .     S
O111   Zn127   1.968   .     S
O111   Zn130   1.932   .     S
O112   Zn128   1.920   .     S
O113   Zn130   1.932   .     S
O114   Zn129   1.923   .     S
O115   Zn127   1.913   .     S
O119   Zn127   1.930   .     S
O120   Zn130   1.936   .     S
O121   Zn128   1.934   .     S
O122   Zn129   1.946   .     S
O123   Zn130   1.936   .     S
O124   Zn127   1.927   .     S
O125   Zn128   1.946   .     S
O126   Zn129   1.936   .     S
C131   C141    1.429   .     S
C131   O186    1.266   .     A
C131   O188    1.262   .     A
C132   C133    1.392   .     A
C132   H163    1.082   .     S
C132   C158    1.403   .     A
C133   I174    2.131   .     S
C133   C720    1.415   .     S
C134   O187    1.290   .     A
C134   O189    1.272   .     A
C134   C140    1.458   .     S
C135   C136    1.422   .     A
C135   C137    1.418   .     A
C135   C718    1.415   1_554 S
C136   C139    1.414   .     A
C136   C159    1.421   .     A
C137   C138    1.410   .     A
C137   I168    2.146   .     S
C138   I173    2.146   .     S
C138   C150    1.409   .     A
C139   I172    2.160   .     S
C139   C150    1.401   .     A
C140   C11     1.354   1_655 S
C140   I39     2.140   1_655 S
C142   C155    1.485   .     S
C142   C149    1.423   .     A
C142   C151    1.420   .     A
C143   C146    1.456   .     S
C143   C339    1.356   .     S
C143   C347    1.502   .     S
C144   C145    1.427   .     S
C144   C533    1.356   1_545 S
C144   I561    2.145   1_545 S
C145   O190    1.268   .     A
C145   O184    1.280   .     A
C146   O185    1.267   .     A
C146   O191    1.272   .     A
C147   C150    1.463   .     S
C147   O179    1.278   .     A
C147   O177    1.273   .     A
C148   O180    1.295   .     A
C148   C149    1.483   .     S
C148   O178    1.285   .     A
C149   C153    1.405   .     A
C151   C157    1.419   .     A
C151   C154    1.486   .     S
C152   O181    1.221   .     D
C152   C533    1.502   1_545 S
C152   H554    1.085   1_545 S
C153   I175    2.157   .     S
C153   C156    1.408   .     A
C154   O182    1.221   .     D
C154   H750    1.084   .     S
C155   H166    1.084   .     S
C155   O183    1.221   .     D
C156   C158    1.419   .     A
C156   C157    1.417   .     A
C157   C746    1.418   .     S
C158   C744    1.411   .     S
C159   C160    1.403   .     A
C159   C743    1.411   1_554 S
C160   H162    1.081   .     S
C160   C161    1.393   .     A
C161   I167    2.135   .     S
C161   C742    1.418   1_554 S
H164   C347    1.085   .     S
H165   C739    1.084   1_554 S
I170   C11     2.143   1_655 S
I171   C339    2.145   .     S
O176   Zn193   1.937   .     S
O176   Zn194   1.932   .     S
O176   Zn192   1.968   .     S
O176   Zn195   1.932   .     S
O177   Zn193   1.920   .     S
O178   Zn195   1.932   .     S
O179   Zn194   1.923   .     S
O180   Zn192   1.913   .     S
O184   Zn192   1.930   .     S
O185   Zn195   1.936   .     S
O186   Zn193   1.934   .     S
O187   Zn194   1.946   .     S
O188   Zn195   1.936   .     S
O189   Zn192   1.927   .     S
O190   Zn193   1.946   .     S
O191   Zn194   1.936   .     S
C196   C206    1.429   .     S
C196   O251    1.266   .     A
C196   O253    1.262   .     A
C197   C198    1.392   .     A
C197   H228    1.082   .     S
C197   C223    1.403   .     A
C198   I239    2.131   .     S
C198   C785    1.415   .     S
C199   O252    1.290   .     A
C199   O254    1.272   .     A
C199   C205    1.458   .     S
C200   C201    1.422   .     A
C200   C202    1.418   .     A
C200   C783    1.415   1_554 S
C201   C204    1.414   .     A
C201   C224    1.421   .     A
C202   C203    1.410   .     A
C202   I233    2.146   .     S
C203   I238    2.146   .     S
C203   C215    1.409   .     A
C204   I237    2.160   .     S
C204   C215    1.401   .     A
C205   C271    1.354   .     S
C205   I299    2.140   .     S
C206   C335    1.354   1_455 S
C206   I365    2.143   1_455 S
C207   C220    1.485   .     S
C207   C214    1.423   .     A
C207   C216    1.420   .     A
C208   C211    1.456   .     S
C208   C404    1.356   .     S
C208   C412    1.502   .     S
C209   C210    1.427   .     S
C210   O255    1.268   .     A
C210   O249    1.280   .     A
C211   O250    1.267   .     A
C211   O256    1.272   .     A
C212   C215    1.463   .     S
C212   O244    1.278   .     A
C212   O242    1.273   .     A
C213   O245    1.295   .     A
C213   C214    1.483   .     S
C213   O243    1.285   .     A
C214   C218    1.405   .     A
C216   C222    1.419   .     A
C216   C219    1.486   .     S
C217   O246    1.221   .     D
C218   I240    2.157   .     S
C218   C221    1.408   .     A
C219   O247    1.221   .     D
C219   H815    1.084   .     S
C220   H231    1.084   .     S
C220   O248    1.221   .     D
C221   C223    1.419   .     A
C221   C222    1.417   .     A
C222   C811    1.418   .     S
C223   C809    1.411   .     S
C224   C225    1.403   .     A
C224   C808    1.411   1_554 S
C225   H227    1.081   .     S
C225   C226    1.393   .     A
C226   I232    2.135   .     S
C226   C807    1.418   1_554 S
H229   C412    1.085   .     S
H230   C804    1.084   1_554 S
I234   C335    2.140   1_455 S
I235   C271    2.143   .     S
I236   C404    2.145   .     S
O241   Zn258   1.937   .     S
O241   Zn259   1.932   .     S
O241   Zn257   1.968   .     S
O241   Zn260   1.932   .     S
O242   Zn258   1.920   .     S
O243   Zn260   1.932   .     S
O244   Zn259   1.923   .     S
O245   Zn257   1.913   .     S
O249   Zn257   1.930   .     S
O250   Zn260   1.936   .     S
O251   Zn258   1.934   .     S
O252   Zn259   1.946   .     S
O253   Zn260   1.936   .     S
O254   Zn257   1.927   .     S
O255   Zn258   1.946   .     S
O256   Zn259   1.936   .     S
C261   C271    1.429   .     S
C261   O316    1.266   .     A
C261   O318    1.262   .     A
C262   C263    1.392   .     A
C262   H293    1.082   .     S
C262   C288    1.403   .     A
C263   I304    2.131   .     S
C263   C850    1.415   .     S
C264   O317    1.290   .     A
C264   O319    1.272   .     A
C264   C270    1.458   .     S
C265   C266    1.422   .     A
C265   C267    1.418   .     A
C265   C848    1.415   1_554 S
C266   C269    1.414   .     A
C266   C289    1.421   .     A
C267   C268    1.410   .     A
C267   I298    2.146   .     S
C268   I303    2.146   .     S
C268   C280    1.409   .     A
C269   I302    2.160   .     S
C269   C280    1.401   .     A
C270   C336    1.354   .     S
C270   I364    2.140   .     S
C272   C285    1.485   .     S
C272   C279    1.423   .     A
C272   C281    1.420   .     A
C273   C276    1.456   .     S
C273   C469    1.356   .     S
C273   C477    1.502   .     S
C274   C275    1.427   .     S
C275   O320    1.268   .     A
C275   O314    1.280   .     A
C276   O315    1.267   .     A
C276   O321    1.272   .     A
C277   C280    1.463   .     S
C277   O309    1.278   .     A
C277   O307    1.273   .     A
C278   O310    1.295   .     A
C278   C279    1.483   .     S
C278   O308    1.285   .     A
C279   C283    1.405   .     A
C281   C287    1.419   .     A
C281   C284    1.486   .     S
C282   O311    1.221   .     D
C283   I305    2.157   .     S
C283   C286    1.408   .     A
C284   O312    1.221   .     D
C284   H880    1.084   .     S
C285   H296    1.084   .     S
C285   O313    1.221   .     D
C286   C288    1.419   .     A
C286   C287    1.417   .     A
C287   C876    1.418   .     S
C288   C874    1.411   .     S
C289   C290    1.403   .     A
C289   C873    1.411   1_554 S
C290   H292    1.081   .     S
C290   C291    1.393   .     A
C291   I297    2.135   .     S
C291   C872    1.418   1_554 S
H294   C477    1.085   .     S
H295   C869    1.084   1_554 S
I300   C336    2.143   .     S
I301   C469    2.145   .     S
O306   Zn323   1.937   .     S
O306   Zn324   1.932   .     S
O306   Zn322   1.968   .     S
O306   Zn325   1.932   .     S
O307   Zn323   1.920   .     S
O308   Zn325   1.932   .     S
O309   Zn324   1.923   .     S
O310   Zn322   1.913   .     S
O314   Zn322   1.930   .     S
O315   Zn325   1.936   .     S
O316   Zn323   1.934   .     S
O317   Zn324   1.946   .     S
O318   Zn325   1.936   .     S
O319   Zn322   1.927   .     S
O320   Zn323   1.946   .     S
O321   Zn324   1.936   .     S
C326   C336    1.429   .     S
C326   O381    1.266   .     A
C326   O383    1.262   .     A
C327   C328    1.392   .     A
C327   H358    1.082   .     S
C327   C353    1.403   .     A
C328   I369    2.131   .     S
C328   C915    1.415   .     S
C329   O382    1.290   .     A
C329   O384    1.272   .     A
C329   C335    1.458   .     S
C330   C331    1.422   .     A
C330   C332    1.418   .     A
C330   C913    1.415   1_554 S
C331   C334    1.414   .     A
C331   C354    1.421   .     A
C332   C333    1.410   .     A
C332   I363    2.146   .     S
C333   I368    2.146   .     S
C333   C345    1.409   .     A
C334   I367    2.160   .     S
C334   C345    1.401   .     A
C335   C206    1.354   1_655 S
C335   I234    2.140   1_655 S
C337   C350    1.485   .     S
C337   C344    1.423   .     A
C337   C346    1.420   .     A
C338   C341    1.456   .     S
C338   C534    1.356   .     S
C338   C542    1.502   .     S
C339   C340    1.427   .     S
C340   O385    1.268   .     A
C340   O379    1.280   .     A
C341   O380    1.267   .     A
C341   O386    1.272   .     A
C342   C345    1.463   .     S
C342   O374    1.278   .     A
C342   O372    1.273   .     A
C343   O375    1.295   .     A
C343   C344    1.483   .     S
C343   O373    1.285   .     A
C344   C348    1.405   .     A
C346   C352    1.419   .     A
C346   C349    1.486   .     S
C347   O376    1.221   .     D
C348   I370    2.157   .     S
C348   C351    1.408   .     A
C349   O377    1.221   .     D
C349   H945    1.084   .     S
C350   H361    1.084   .     S
C350   O378    1.221   .     D
C351   C353    1.419   .     A
C351   C352    1.417   .     A
C352   C941    1.418   .     S
C353   C939    1.411   .     S
C354   C355    1.403   .     A
C354   C938    1.411   1_554 S
C355   H357    1.081   .     S
C355   C356    1.393   .     A
C356   I362    2.135   .     S
C356   C937    1.418   1_554 S
H359   C542    1.085   .     S
H360   C934    1.084   1_554 S
I365   C206    2.143   1_655 S
I366   C534    2.145   .     S
O371   Zn388   1.937   .     S
O371   Zn389   1.932   .     S
O371   Zn387   1.968   .     S
O371   Zn390   1.932   .     S
O372   Zn388   1.920   .     S
O373   Zn390   1.932   .     S
O374   Zn389   1.923   .     S
O375   Zn387   1.913   .     S
O379   Zn387   1.930   .     S
O380   Zn390   1.936   .     S
O381   Zn388   1.934   .     S
O382   Zn389   1.946   .     S
O383   Zn390   1.936   .     S
O384   Zn387   1.927   .     S
O385   Zn388   1.946   .     S
O386   Zn389   1.936   .     S
C391   C401    1.429   .     S
C391   O446    1.266   .     A
C391   O448    1.262   .     A
C392   C393    1.392   .     A
C392   H423    1.082   .     S
C392   C418    1.403   .     A
C393   I434    2.131   .     S
C393   C980    1.415   .     S
C394   O447    1.290   .     A
C394   O449    1.272   .     A
C394   C400    1.458   .     S
C395   C396    1.422   .     A
C395   C397    1.418   .     A
C395   C978    1.415   1_554 S
C396   C399    1.414   .     A
C396   C419    1.421   .     A
C397   C398    1.410   .     A
C397   I428    2.146   .     S
C398   I433    2.146   .     S
C398   C410    1.409   .     A
C399   I432    2.160   .     S
C399   C410    1.401   .     A
C400   C466    1.354   .     S
C400   I494    2.140   .     S
C401   C530    1.354   1_455 S
C401   I560    2.143   1_455 S
C402   C415    1.485   .     S
C402   C409    1.423   .     A
C402   C411    1.420   .     A
C403   C406    1.456   .     S
C403   C14     1.356   1_565 S
C403   C22     1.502   1_565 S
C404   C405    1.427   .     S
C405   O450    1.268   .     A
C405   O444    1.280   .     A
C406   O445    1.267   .     A
C406   O451    1.272   .     A
C407   C410    1.463   .     S
C407   O439    1.278   .     A
C407   O437    1.273   .     A
C408   O440    1.295   .     A
C408   C409    1.483   .     S
C408   O438    1.285   .     A
C409   C413    1.405   .     A
C411   C417    1.419   .     A
C411   C414    1.486   .     S
C412   O441    1.221   .     D
C413   I435    2.157   .     S
C413   C416    1.408   .     A
C414   O442    1.221   .     D
C414   H1010   1.084   .     S
C415   H426    1.084   .     S
C415   O443    1.221   .     D
C416   C418    1.419   .     A
C416   C417    1.417   .     A
C417   C1006   1.418   .     S
C418   C1004   1.411   .     S
C419   C420    1.403   .     A
C419   C1003   1.411   1_554 S
C420   H422    1.081   .     S
C420   C421    1.393   .     A
C421   I427    2.135   .     S
C421   C1002   1.418   1_554 S
H424   C22     1.085   1_565 S
H425   C999    1.084   1_554 S
I429   C530    2.140   1_455 S
I430   C466    2.143   .     S
I431   C14     2.145   1_565 S
O436   Zn453   1.937   .     S
O436   Zn454   1.932   .     S
O436   Zn452   1.968   .     S
O436   Zn455   1.932   .     S
O437   Zn453   1.920   .     S
O438   Zn455   1.932   .     S
O439   Zn454   1.923   .     S
O440   Zn452   1.913   .     S
O444   Zn452   1.930   .     S
O445   Zn455   1.936   .     S
O446   Zn453   1.934   .     S
O447   Zn454   1.946   .     S
O448   Zn455   1.936   .     S
O449   Zn452   1.927   .     S
O450   Zn453   1.946   .     S
O451   Zn454   1.936   .     S
C456   C466    1.429   .     S
C456   O511    1.266   .     A
C456   O513    1.262   .     A
C457   C458    1.392   .     A
C457   H488    1.082   .     S
C457   C483    1.403   .     A
C458   I499    2.131   .     S
C458   C1045   1.415   .     S
C459   O512    1.290   .     A
C459   O514    1.272   .     A
C459   C465    1.458   .     S
C460   C461    1.422   .     A
C460   C462    1.418   .     A
C460   C1043   1.415   1_554 S
C461   C464    1.414   .     A
C461   C484    1.421   .     A
C462   C463    1.410   .     A
C462   I493    2.146   .     S
C463   I498    2.146   .     S
C463   C475    1.409   .     A
C464   I497    2.160   .     S
C464   C475    1.401   .     A
C465   C531    1.354   .     S
C465   I559    2.140   .     S
C467   C480    1.485   .     S
C467   C474    1.423   .     A
C467   C476    1.420   .     A
C468   C471    1.456   .     S
C468   C79     1.356   1_565 S
C468   C87     1.502   1_565 S
C469   C470    1.427   .     S
C470   O515    1.268   .     A
C470   O509    1.280   .     A
C471   O510    1.267   .     A
C471   O516    1.272   .     A
C472   C475    1.463   .     S
C472   O504    1.278   .     A
C472   O502    1.273   .     A
C473   O505    1.295   .     A
C473   C474    1.483   .     S
C473   O503    1.285   .     A
C474   C478    1.405   .     A
C476   C482    1.419   .     A
C476   C479    1.486   .     S
C477   O506    1.221   .     D
C478   I500    2.157   .     S
C478   C481    1.408   .     A
C479   O507    1.221   .     D
C479   H1075   1.084   .     S
C480   H491    1.084   .     S
C480   O508    1.221   .     D
C481   C483    1.419   .     A
C481   C482    1.417   .     A
C482   C1071   1.418   .     S
C483   C1069   1.411   .     S
C484   C485    1.403   .     A
C484   C1068   1.411   1_554 S
C485   H487    1.081   .     S
C485   C486    1.393   .     A
C486   I492    2.135   .     S
C486   C1067   1.418   1_554 S
H489   C87     1.085   1_565 S
H490   C1064   1.084   1_554 S
I495   C531    2.143   .     S
I496   C79     2.145   1_565 S
O501   Zn518   1.937   .     S
O501   Zn519   1.932   .     S
O501   Zn517   1.968   .     S
O501   Zn520   1.932   .     S
O502   Zn518   1.920   .     S
O503   Zn520   1.932   .     S
O504   Zn519   1.923   .     S
O505   Zn517   1.913   .     S
O509   Zn517   1.930   .     S
O510   Zn520   1.936   .     S
O511   Zn518   1.934   .     S
O512   Zn519   1.946   .     S
O513   Zn520   1.936   .     S
O514   Zn517   1.927   .     S
O515   Zn518   1.946   .     S
O516   Zn519   1.936   .     S
C521   C531    1.429   .     S
C521   O576    1.266   .     A
C521   O578    1.262   .     A
C522   C523    1.392   .     A
C522   H553    1.082   .     S
C522   C548    1.403   .     A
C523   I564    2.131   .     S
C523   C1110   1.415   .     S
C524   O577    1.290   .     A
C524   O579    1.272   .     A
C524   C530    1.458   .     S
C525   C526    1.422   .     A
C525   C527    1.418   .     A
C525   C1108   1.415   1_554 S
C526   C529    1.414   .     A
C526   C549    1.421   .     A
C527   C528    1.410   .     A
C527   I558    2.146   .     S
C528   I563    2.146   .     S
C528   C540    1.409   .     A
C529   I562    2.160   .     S
C529   C540    1.401   .     A
C530   C401    1.354   1_655 S
C530   I429    2.140   1_655 S
C532   C545    1.485   .     S
C532   C539    1.423   .     A
C532   C541    1.420   .     A
C533   C536    1.456   .     S
C533   C144    1.356   1_565 S
C533   C152    1.502   1_565 S
C534   C535    1.427   .     S
C535   O580    1.268   .     A
C535   O574    1.280   .     A
C536   O575    1.267   .     A
C536   O581    1.272   .     A
C537   C540    1.463   .     S
C537   O569    1.278   .     A
C537   O567    1.273   .     A
C538   O570    1.295   .     A
C538   C539    1.483   .     S
C538   O568    1.285   .     A
C539   C543    1.405   .     A
C541   C547    1.419   .     A
C541   C544    1.486   .     S
C542   O571    1.221   .     D
C543   I565    2.157   .     S
C543   C546    1.408   .     A
C544   O572    1.221   .     D
C544   H1140   1.084   .     S
C545   H556    1.084   .     S
C545   O573    1.221   .     D
C546   C548    1.419   .     A
C546   C547    1.417   .     A
C547   C1136   1.418   .     S
C548   C1134   1.411   .     S
C549   C550    1.403   .     A
C549   C1133   1.411   1_554 S
C550   H552    1.081   .     S
C550   C551    1.393   .     A
C551   I557    2.135   .     S
C551   C1132   1.418   1_554 S
H554   C152    1.085   1_565 S
H555   C1129   1.084   1_554 S
I560   C401    2.143   1_655 S
I561   C144    2.145   1_565 S
O566   Zn583   1.937   .     S
O566   Zn584   1.932   .     S
O566   Zn582   1.968   .     S
O566   Zn585   1.932   .     S
O567   Zn583   1.920   .     S
O568   Zn585   1.932   .     S
O569   Zn584   1.923   .     S
O570   Zn582   1.913   .     S
O574   Zn582   1.930   .     S
O575   Zn585   1.936   .     S
O576   Zn583   1.934   .     S
O577   Zn584   1.946   .     S
O578   Zn585   1.936   .     S
O579   Zn582   1.927   .     S
O580   Zn583   1.946   .     S
O581   Zn584   1.936   .     S
C586   C596    1.429   .     S
C586   O641    1.266   .     A
C586   O643    1.262   .     A
C587   C588    1.392   .     A
C587   H618    1.082   .     S
C587   C613    1.403   .     A
C588   I629    2.131   .     S
C588   C5      1.415   1_556 S
C589   O642    1.290   .     A
C589   O644    1.272   .     A
C589   C595    1.458   .     S
C590   C591    1.422   .     A
C590   C592    1.418   .     A
C591   C594    1.414   .     A
C591   C614    1.421   .     A
C592   C593    1.410   .     A
C592   I623    2.146   .     S
C593   I628    2.146   .     S
C593   C605    1.409   .     A
C594   I627    2.160   .     S
C594   C605    1.401   .     A
C595   C661    1.354   .     S
C595   I689    2.140   .     S
C596   C725    1.354   1_455 S
C596   I755    2.143   1_455 S
C597   C610    1.485   .     S
C597   C604    1.423   .     A
C597   C606    1.420   .     A
C598   C601    1.456   .     S
C598   C794    1.356   .     S
C598   C802    1.502   .     S
C599   C600    1.427   .     S
C599   C988    1.356   1_545 S
C599   I1016   2.145   1_545 S
C600   O645    1.268   .     A
C600   O639    1.280   .     A
C601   O640    1.267   .     A
C601   O646    1.272   .     A
C602   C605    1.463   .     S
C602   O634    1.278   .     A
C602   O632    1.273   .     A
C603   O635    1.295   .     A
C603   C604    1.483   .     S
C603   O633    1.285   .     A
C604   C608    1.405   .     A
C606   C612    1.419   .     A
C606   C609    1.486   .     S
C607   O636    1.221   .     D
C607   C988    1.502   1_545 S
C607   H1009   1.085   1_545 S
C608   I630    2.157   .     S
C608   C611    1.408   .     A
C609   O637    1.221   .     D
C609   H35     1.084   1_556 S
C610   H621    1.084   .     S
C610   O638    1.221   .     D
C611   C613    1.419   .     A
C611   C612    1.417   .     A
C612   C31     1.418   1_556 S
C613   C29     1.411   1_556 S
C614   C615    1.403   .     A
C615   H617    1.081   .     S
C615   C616    1.393   .     A
C616   I622    2.135   .     S
H619   C802    1.085   .     S
I624   C725    2.140   1_455 S
I625   C661    2.143   .     S
I626   C794    2.145   .     S
O631   Zn648   1.937   .     S
O631   Zn649   1.932   .     S
O631   Zn647   1.968   .     S
O631   Zn650   1.932   .     S
O632   Zn648   1.920   .     S
O633   Zn650   1.932   .     S
O634   Zn649   1.923   .     S
O635   Zn647   1.913   .     S
O639   Zn647   1.930   .     S
O640   Zn650   1.936   .     S
O641   Zn648   1.934   .     S
O642   Zn649   1.946   .     S
O643   Zn650   1.936   .     S
O644   Zn647   1.927   .     S
O645   Zn648   1.946   .     S
O646   Zn649   1.936   .     S
C651   C661    1.429   .     S
C651   O706    1.266   .     A
C651   O708    1.262   .     A
C652   C653    1.392   .     A
C652   H683    1.082   .     S
C652   C678    1.403   .     A
C653   I694    2.131   .     S
C653   C70     1.415   1_556 S
C654   O707    1.290   .     A
C654   O709    1.272   .     A
C654   C660    1.458   .     S
C655   C656    1.422   .     A
C655   C657    1.418   .     A
C656   C659    1.414   .     A
C656   C679    1.421   .     A
C657   C658    1.410   .     A
C657   I688    2.146   .     S
C658   I693    2.146   .     S
C658   C670    1.409   .     A
C659   I692    2.160   .     S
C659   C670    1.401   .     A
C660   C726    1.354   .     S
C660   I754    2.140   .     S
C662   C675    1.485   .     S
C662   C669    1.423   .     A
C662   C671    1.420   .     A
C663   C666    1.456   .     S
C663   C859    1.356   .     S
C663   C867    1.502   .     S
C664   C665    1.427   .     S
C664   C1053   1.356   1_545 S
C664   I1081   2.145   1_545 S
C665   O710    1.268   .     A
C665   O704    1.280   .     A
C666   O705    1.267   .     A
C666   O711    1.272   .     A
C667   C670    1.463   .     S
C667   O699    1.278   .     A
C667   O697    1.273   .     A
C668   O700    1.295   .     A
C668   C669    1.483   .     S
C668   O698    1.285   .     A
C669   C673    1.405   .     A
C671   C677    1.419   .     A
C671   C674    1.486   .     S
C672   O701    1.221   .     D
C672   C1053   1.502   1_545 S
C672   H1074   1.085   1_545 S
C673   I695    2.157   .     S
C673   C676    1.408   .     A
C674   O702    1.221   .     D
C674   H100    1.084   1_556 S
C675   H686    1.084   .     S
C675   O703    1.221   .     D
C676   C678    1.419   .     A
C676   C677    1.417   .     A
C677   C96     1.418   1_556 S
C678   C94     1.411   1_556 S
C679   C680    1.403   .     A
C680   H682    1.081   .     S
C680   C681    1.393   .     A
C681   I687    2.135   .     S
H684   C867    1.085   .     S
I690   C726    2.143   .     S
I691   C859    2.145   .     S
O696   Zn713   1.937   .     S
O696   Zn714   1.932   .     S
O696   Zn712   1.968   .     S
O696   Zn715   1.932   .     S
O697   Zn713   1.920   .     S
O698   Zn715   1.932   .     S
O699   Zn714   1.923   .     S
O700   Zn712   1.913   .     S
O704   Zn712   1.930   .     S
O705   Zn715   1.936   .     S
O706   Zn713   1.934   .     S
O707   Zn714   1.946   .     S
O708   Zn715   1.936   .     S
O709   Zn712   1.927   .     S
O710   Zn713   1.946   .     S
O711   Zn714   1.936   .     S
C716   C726    1.429   .     S
C716   O771    1.266   .     A
C716   O773    1.262   .     A
C717   C718    1.392   .     A
C717   H748    1.082   .     S
C717   C743    1.403   .     A
C718   I759    2.131   .     S
C718   C135    1.415   1_556 S
C719   O772    1.290   .     A
C719   O774    1.272   .     A
C719   C725    1.458   .     S
C720   C721    1.422   .     A
C720   C722    1.418   .     A
C721   C724    1.414   .     A
C721   C744    1.421   .     A
C722   C723    1.410   .     A
C722   I753    2.146   .     S
C723   I758    2.146   .     S
C723   C735    1.409   .     A
C724   I757    2.160   .     S
C724   C735    1.401   .     A
C725   C596    1.354   1_655 S
C725   I624    2.140   1_655 S
C727   C740    1.485   .     S
C727   C734    1.423   .     A
C727   C736    1.420   .     A
C728   C731    1.456   .     S
C728   C924    1.356   .     S
C728   C932    1.502   .     S
C729   C730    1.427   .     S
C729   C1118   1.356   1_545 S
C729   I1146   2.145   1_545 S
C730   O775    1.268   .     A
C730   O769    1.280   .     A
C731   O770    1.267   .     A
C731   O776    1.272   .     A
C732   C735    1.463   .     S
C732   O764    1.278   .     A
C732   O762    1.273   .     A
C733   O765    1.295   .     A
C733   C734    1.483   .     S
C733   O763    1.285   .     A
C734   C738    1.405   .     A
C736   C742    1.419   .     A
C736   C739    1.486   .     S
C737   O766    1.221   .     D
C737   C1118   1.502   1_545 S
C737   H1139   1.085   1_545 S
C738   I760    2.157   .     S
C738   C741    1.408   .     A
C739   O767    1.221   .     D
C739   H165    1.084   1_556 S
C740   H751    1.084   .     S
C740   O768    1.221   .     D
C741   C743    1.419   .     A
C741   C742    1.417   .     A
C742   C161    1.418   1_556 S
C743   C159    1.411   1_556 S
C744   C745    1.403   .     A
C745   H747    1.081   .     S
C745   C746    1.393   .     A
C746   I752    2.135   .     S
H749   C932    1.085   .     S
I755   C596    2.143   1_655 S
I756   C924    2.145   .     S
O761   Zn778   1.937   .     S
O761   Zn779   1.932   .     S
O761   Zn777   1.968   .     S
O761   Zn780   1.932   .     S
O762   Zn778   1.920   .     S
O763   Zn780   1.932   .     S
O764   Zn779   1.923   .     S
O765   Zn777   1.913   .     S
O769   Zn777   1.930   .     S
O770   Zn780   1.936   .     S
O771   Zn778   1.934   .     S
O772   Zn779   1.946   .     S
O773   Zn780   1.936   .     S
O774   Zn777   1.927   .     S
O775   Zn778   1.946   .     S
O776   Zn779   1.936   .     S
C781   C791    1.429   .     S
C781   O836    1.266   .     A
C781   O838    1.262   .     A
C782   C783    1.392   .     A
C782   H813    1.082   .     S
C782   C808    1.403   .     A
C783   I824    2.131   .     S
C783   C200    1.415   1_556 S
C784   O837    1.290   .     A
C784   O839    1.272   .     A
C784   C790    1.458   .     S
C785   C786    1.422   .     A
C785   C787    1.418   .     A
C786   C789    1.414   .     A
C786   C809    1.421   .     A
C787   C788    1.410   .     A
C787   I818    2.146   .     S
C788   I823    2.146   .     S
C788   C800    1.409   .     A
C789   I822    2.160   .     S
C789   C800    1.401   .     A
C790   C856    1.354   .     S
C790   I884    2.140   .     S
C791   C920    1.354   1_455 S
C791   I950    2.143   1_455 S
C792   C805    1.485   .     S
C792   C799    1.423   .     A
C792   C801    1.420   .     A
C793   C796    1.456   .     S
C793   C989    1.356   .     S
C793   C997    1.502   .     S
C794   C795    1.427   .     S
C795   O840    1.268   .     A
C795   O834    1.280   .     A
C796   O835    1.267   .     A
C796   O841    1.272   .     A
C797   C800    1.463   .     S
C797   O829    1.278   .     A
C797   O827    1.273   .     A
C798   O830    1.295   .     A
C798   C799    1.483   .     S
C798   O828    1.285   .     A
C799   C803    1.405   .     A
C801   C807    1.419   .     A
C801   C804    1.486   .     S
C802   O831    1.221   .     D
C803   I825    2.157   .     S
C803   C806    1.408   .     A
C804   O832    1.221   .     D
C804   H230    1.084   1_556 S
C805   H816    1.084   .     S
C805   O833    1.221   .     D
C806   C808    1.419   .     A
C806   C807    1.417   .     A
C807   C226    1.418   1_556 S
C808   C224    1.411   1_556 S
C809   C810    1.403   .     A
C810   H812    1.081   .     S
C810   C811    1.393   .     A
C811   I817    2.135   .     S
H814   C997    1.085   .     S
I819   C920    2.140   1_455 S
I820   C856    2.143   .     S
I821   C989    2.145   .     S
O826   Zn843   1.937   .     S
O826   Zn844   1.932   .     S
O826   Zn842   1.968   .     S
O826   Zn845   1.932   .     S
O827   Zn843   1.920   .     S
O828   Zn845   1.932   .     S
O829   Zn844   1.923   .     S
O830   Zn842   1.913   .     S
O834   Zn842   1.930   .     S
O835   Zn845   1.936   .     S
O836   Zn843   1.934   .     S
O837   Zn844   1.946   .     S
O838   Zn845   1.936   .     S
O839   Zn842   1.927   .     S
O840   Zn843   1.946   .     S
O841   Zn844   1.936   .     S
C846   C856    1.429   .     S
C846   O901    1.266   .     A
C846   O903    1.262   .     A
C847   C848    1.392   .     A
C847   H878    1.082   .     S
C847   C873    1.403   .     A
C848   I889    2.131   .     S
C848   C265    1.415   1_556 S
C849   O902    1.290   .     A
C849   O904    1.272   .     A
C849   C855    1.458   .     S
C850   C851    1.422   .     A
C850   C852    1.418   .     A
C851   C854    1.414   .     A
C851   C874    1.421   .     A
C852   C853    1.410   .     A
C852   I883    2.146   .     S
C853   I888    2.146   .     S
C853   C865    1.409   .     A
C854   I887    2.160   .     S
C854   C865    1.401   .     A
C855   C921    1.354   .     S
C855   I949    2.140   .     S
C857   C870    1.485   .     S
C857   C864    1.423   .     A
C857   C866    1.420   .     A
C858   C861    1.456   .     S
C858   C1054   1.356   .     S
C858   C1062   1.502   .     S
C859   C860    1.427   .     S
C860   O905    1.268   .     A
C860   O899    1.280   .     A
C861   O900    1.267   .     A
C861   O906    1.272   .     A
C862   C865    1.463   .     S
C862   O894    1.278   .     A
C862   O892    1.273   .     A
C863   O895    1.295   .     A
C863   C864    1.483   .     S
C863   O893    1.285   .     A
C864   C868    1.405   .     A
C866   C872    1.419   .     A
C866   C869    1.486   .     S
C867   O896    1.221   .     D
C868   I890    2.157   .     S
C868   C871    1.408   .     A
C869   O897    1.221   .     D
C869   H295    1.084   1_556 S
C870   H881    1.084   .     S
C870   O898    1.221   .     D
C871   C873    1.419   .     A
C871   C872    1.417   .     A
C872   C291    1.418   1_556 S
C873   C289    1.411   1_556 S
C874   C875    1.403   .     A
C875   H877    1.081   .     S
C875   C876    1.393   .     A
C876   I882    2.135   .     S
H879   C1062   1.085   .     S
I885   C921    2.143   .     S
I886   C1054   2.145   .     S
O891   Zn908   1.937   .     S
O891   Zn909   1.932   .     S
O891   Zn907   1.968   .     S
O891   Zn910   1.932   .     S
O892   Zn908   1.920   .     S
O893   Zn910   1.932   .     S
O894   Zn909   1.923   .     S
O895   Zn907   1.913   .     S
O899   Zn907   1.930   .     S
O900   Zn910   1.936   .     S
O901   Zn908   1.934   .     S
O902   Zn909   1.946   .     S
O903   Zn910   1.936   .     S
O904   Zn907   1.927   .     S
O905   Zn908   1.946   .     S
O906   Zn909   1.936   .     S
C911   C921    1.429   .     S
C911   O966    1.266   .     A
C911   O968    1.262   .     A
C912   C913    1.392   .     A
C912   H943    1.082   .     S
C912   C938    1.403   .     A
C913   I954    2.131   .     S
C913   C330    1.415   1_556 S
C914   O967    1.290   .     A
C914   O969    1.272   .     A
C914   C920    1.458   .     S
C915   C916    1.422   .     A
C915   C917    1.418   .     A
C916   C919    1.414   .     A
C916   C939    1.421   .     A
C917   C918    1.410   .     A
C917   I948    2.146   .     S
C918   I953    2.146   .     S
C918   C930    1.409   .     A
C919   I952    2.160   .     S
C919   C930    1.401   .     A
C920   C791    1.354   1_655 S
C920   I819    2.140   1_655 S
C922   C935    1.485   .     S
C922   C929    1.423   .     A
C922   C931    1.420   .     A
C923   C926    1.456   .     S
C923   C1119   1.356   .     S
C923   C1127   1.502   .     S
C924   C925    1.427   .     S
C925   O970    1.268   .     A
C925   O964    1.280   .     A
C926   O965    1.267   .     A
C926   O971    1.272   .     A
C927   C930    1.463   .     S
C927   O959    1.278   .     A
C927   O957    1.273   .     A
C928   O960    1.295   .     A
C928   C929    1.483   .     S
C928   O958    1.285   .     A
C929   C933    1.405   .     A
C931   C937    1.419   .     A
C931   C934    1.486   .     S
C932   O961    1.221   .     D
C933   I955    2.157   .     S
C933   C936    1.408   .     A
C934   O962    1.221   .     D
C934   H360    1.084   1_556 S
C935   H946    1.084   .     S
C935   O963    1.221   .     D
C936   C938    1.419   .     A
C936   C937    1.417   .     A
C937   C356    1.418   1_556 S
C938   C354    1.411   1_556 S
C939   C940    1.403   .     A
C940   H942    1.081   .     S
C940   C941    1.393   .     A
C941   I947    2.135   .     S
H944   C1127   1.085   .     S
I950   C791    2.143   1_655 S
I951   C1119   2.145   .     S
O956   Zn973   1.937   .     S
O956   Zn974   1.932   .     S
O956   Zn972   1.968   .     S
O956   Zn975   1.932   .     S
O957   Zn973   1.920   .     S
O958   Zn975   1.932   .     S
O959   Zn974   1.923   .     S
O960   Zn972   1.913   .     S
O964   Zn972   1.930   .     S
O965   Zn975   1.936   .     S
O966   Zn973   1.934   .     S
O967   Zn974   1.946   .     S
O968   Zn975   1.936   .     S
O969   Zn972   1.927   .     S
O970   Zn973   1.946   .     S
O971   Zn974   1.936   .     S
C976   C986    1.429   .     S
C976   O1031   1.266   .     A
C976   O1033   1.262   .     A
C977   C978    1.392   .     A
C977   H1008   1.082   .     S
C977   C1003   1.403   .     A
C978   I1019   2.131   .     S
C978   C395    1.415   1_556 S
C979   O1032   1.290   .     A
C979   O1034   1.272   .     A
C979   C985    1.458   .     S
C980   C981    1.422   .     A
C980   C982    1.418   .     A
C981   C984    1.414   .     A
C981   C1004   1.421   .     A
C982   C983    1.410   .     A
C982   I1013   2.146   .     S
C983   I1018   2.146   .     S
C983   C995    1.409   .     A
C984   I1017   2.160   .     S
C984   C995    1.401   .     A
C985   C1051   1.354   .     S
C985   I1079   2.140   .     S
C986   C1115   1.354   1_455 S
C986   I1145   2.143   1_455 S
C987   C1000   1.485   .     S
C987   C994    1.423   .     A
C987   C996    1.420   .     A
C988   C991    1.456   .     S
C988   C599    1.356   1_565 S
C988   C607    1.502   1_565 S
C989   C990    1.427   .     S
C990   O1035   1.268   .     A
C990   O1029   1.280   .     A
C991   O1030   1.267   .     A
C991   O1036   1.272   .     A
C992   C995    1.463   .     S
C992   O1024   1.278   .     A
C992   O1022   1.273   .     A
C993   O1025   1.295   .     A
C993   C994    1.483   .     S
C993   O1023   1.285   .     A
C994   C998    1.405   .     A
C996   C1002   1.419   .     A
C996   C999    1.486   .     S
C997   O1026   1.221   .     D
C998   I1020   2.157   .     S
C998   C1001   1.408   .     A
C999   O1027   1.221   .     D
C999   H425    1.084   1_556 S
C1000  H1011   1.084   .     S
C1000  O1028   1.221   .     D
C1001  C1003   1.419   .     A
C1001  C1002   1.417   .     A
C1002  C421    1.418   1_556 S
C1003  C419    1.411   1_556 S
C1004  C1005   1.403   .     A
C1005  H1007   1.081   .     S
C1005  C1006   1.393   .     A
C1006  I1012   2.135   .     S
H1009  C607    1.085   1_565 S
I1014  C1115   2.140   1_455 S
I1015  C1051   2.143   .     S
I1016  C599    2.145   1_565 S
O1021  Zn1038  1.937   .     S
O1021  Zn1039  1.932   .     S
O1021  Zn1037  1.968   .     S
O1021  Zn1040  1.932   .     S
O1022  Zn1038  1.920   .     S
O1023  Zn1040  1.932   .     S
O1024  Zn1039  1.923   .     S
O1025  Zn1037  1.913   .     S
O1029  Zn1037  1.930   .     S
O1030  Zn1040  1.936   .     S
O1031  Zn1038  1.934   .     S
O1032  Zn1039  1.946   .     S
O1033  Zn1040  1.936   .     S
O1034  Zn1037  1.927   .     S
O1035  Zn1038  1.946   .     S
O1036  Zn1039  1.936   .     S
C1041  C1051   1.429   .     S
C1041  O1096   1.266   .     A
C1041  O1098   1.262   .     A
C1042  C1043   1.392   .     A
C1042  H1073   1.082   .     S
C1042  C1068   1.403   .     A
C1043  I1084   2.131   .     S
C1043  C460    1.415   1_556 S
C1044  O1097   1.290   .     A
C1044  O1099   1.272   .     A
C1044  C1050   1.458   .     S
C1045  C1046   1.422   .     A
C1045  C1047   1.418   .     A
C1046  C1049   1.414   .     A
C1046  C1069   1.421   .     A
C1047  C1048   1.410   .     A
C1047  I1078   2.146   .     S
C1048  I1083   2.146   .     S
C1048  C1060   1.409   .     A
C1049  I1082   2.160   .     S
C1049  C1060   1.401   .     A
C1050  C1116   1.354   .     S
C1050  I1144   2.140   .     S
C1052  C1065   1.485   .     S
C1052  C1059   1.423   .     A
C1052  C1061   1.420   .     A
C1053  C1056   1.456   .     S
C1053  C664    1.356   1_565 S
C1053  C672    1.502   1_565 S
C1054  C1055   1.427   .     S
C1055  O1100   1.268   .     A
C1055  O1094   1.280   .     A
C1056  O1095   1.267   .     A
C1056  O1101   1.272   .     A
C1057  C1060   1.463   .     S
C1057  O1089   1.278   .     A
C1057  O1087   1.273   .     A
C1058  O1090   1.295   .     A
C1058  C1059   1.483   .     S
C1058  O1088   1.285   .     A
C1059  C1063   1.405   .     A
C1061  C1067   1.419   .     A
C1061  C1064   1.486   .     S
C1062  O1091   1.221   .     D
C1063  I1085   2.157   .     S
C1063  C1066   1.408   .     A
C1064  O1092   1.221   .     D
C1064  H490    1.084   1_556 S
C1065  H1076   1.084   .     S
C1065  O1093   1.221   .     D
C1066  C1068   1.419   .     A
C1066  C1067   1.417   .     A
C1067  C486    1.418   1_556 S
C1068  C484    1.411   1_556 S
C1069  C1070   1.403   .     A
C1070  H1072   1.081   .     S
C1070  C1071   1.393   .     A
C1071  I1077   2.135   .     S
H1074  C672    1.085   1_565 S
I1080  C1116   2.143   .     S
I1081  C664    2.145   1_565 S
O1086  Zn1103  1.937   .     S
O1086  Zn1104  1.932   .     S
O1086  Zn1102  1.968   .     S
O1086  Zn1105  1.932   .     S
O1087  Zn1103  1.920   .     S
O1088  Zn1105  1.932   .     S
O1089  Zn1104  1.923   .     S
O1090  Zn1102  1.913   .     S
O1094  Zn1102  1.930   .     S
O1095  Zn1105  1.936   .     S
O1096  Zn1103  1.934   .     S
O1097  Zn1104  1.946   .     S
O1098  Zn1105  1.936   .     S
O1099  Zn1102  1.927   .     S
O1100  Zn1103  1.946   .     S
O1101  Zn1104  1.936   .     S
C1106  C1116   1.429   .     S
C1106  O1161   1.266   .     A
C1106  O1163   1.262   .     A
C1107  C1108   1.392   .     A
C1107  H1138   1.082   .     S
C1107  C1133   1.403   .     A
C1108  I1149   2.131   .     S
C1108  C525    1.415   1_556 S
C1109  O1162   1.290   .     A
C1109  O1164   1.272   .     A
C1109  C1115   1.458   .     S
C1110  C1111   1.422   .     A
C1110  C1112   1.418   .     A
C1111  C1114   1.414   .     A
C1111  C1134   1.421   .     A
C1112  C1113   1.410   .     A
C1112  I1143   2.146   .     S
C1113  I1148   2.146   .     S
C1113  C1125   1.409   .     A
C1114  I1147   2.160   .     S
C1114  C1125   1.401   .     A
C1115  C986    1.354   1_655 S
C1115  I1014   2.140   1_655 S
C1117  C1130   1.485   .     S
C1117  C1124   1.423   .     A
C1117  C1126   1.420   .     A
C1118  C1121   1.456   .     S
C1118  C729    1.356   1_565 S
C1118  C737    1.502   1_565 S
C1119  C1120   1.427   .     S
C1120  O1165   1.268   .     A
C1120  O1159   1.280   .     A
C1121  O1160   1.267   .     A
C1121  O1166   1.272   .     A
C1122  C1125   1.463   .     S
C1122  O1154   1.278   .     A
C1122  O1152   1.273   .     A
C1123  O1155   1.295   .     A
C1123  C1124   1.483   .     S
C1123  O1153   1.285   .     A
C1124  C1128   1.405   .     A
C1126  C1132   1.419   .     A
C1126  C1129   1.486   .     S
C1127  O1156   1.221   .     D
C1128  I1150   2.157   .     S
C1128  C1131   1.408   .     A
C1129  O1157   1.221   .     D
C1129  H555    1.084   1_556 S
C1130  H1141   1.084   .     S
C1130  O1158   1.221   .     D
C1131  C1133   1.419   .     A
C1131  C1132   1.417   .     A
C1132  C551    1.418   1_556 S
C1133  C549    1.411   1_556 S
C1134  C1135   1.403   .     A
C1135  H1137   1.081   .     S
C1135  C1136   1.393   .     A
C1136  I1142   2.135   .     S
H1139  C737    1.085   1_565 S
I1145  C986    2.143   1_655 S
I1146  C729    2.145   1_565 S
O1151  Zn1168  1.937   .     S
O1151  Zn1169  1.932   .     S
O1151  Zn1167  1.968   .     S
O1151  Zn1170  1.932   .     S
O1152  Zn1168  1.920   .     S
O1153  Zn1170  1.932   .     S
O1154  Zn1169  1.923   .     S
O1155  Zn1167  1.913   .     S
O1159  Zn1167  1.930   .     S
O1160  Zn1170  1.936   .     S
O1161  Zn1168  1.934   .     S
O1162  Zn1169  1.946   .     S
O1163  Zn1170  1.936   .     S
O1164  Zn1167  1.927   .     S
O1165  Zn1168  1.946   .     S
O1166  Zn1169  1.936   .     S
