data_str_m1_o10_o16_pcu_sym.13
_audit_creation_date              2020-01-03
_audit_creation_method            'Materials Studio'
_symmetry_space_group_name_H-M    'P1'
_symmetry_Int_Tables_number       1
_symmetry_cell_setting            triclinic
loop_
_symmetry_equiv_pos_as_xyz
  x,y,z
_cell_length_a                    32.6337
_cell_length_b                    32.6545
_cell_length_c                    31.0697
_cell_angle_alpha                 96.5576
_cell_angle_beta                  74.8202
_cell_angle_gamma                 98.4364
loop_
_atom_site_label
_atom_site_type_symbol
_atom_site_fract_x
_atom_site_fract_y
_atom_site_fract_z
_atom_site_U_iso_or_equiv
_atom_site_adp_type
_atom_site_occupancy
C1     C     0.05308   0.16006   0.25945   0.00000  Uiso   1.00
C2     C     0.17569   0.16744   0.05806   0.00000  Uiso   1.00
C3     C     0.20660   0.10381   0.06015   0.00000  Uiso   1.00
C4     C     0.28066   0.17368   0.24021   0.00000  Uiso   1.00
C5     C     0.14566   0.19605   0.41851   0.00000  Uiso   1.00
C6     C     0.32629   0.17582   0.23683   0.00000  Uiso   1.00
C7     C     0.00758   0.15664   0.26488   0.00000  Uiso   1.00
C8     C     0.17990   0.32287   0.23671   0.00000  Uiso   1.00
C9     C     0.15124   0.01239   0.26464   0.00000  Uiso   1.00
C10    C     0.15597   0.05618   0.26039   0.00000  Uiso   1.00
C11    C     0.17647   0.27795   0.24022   0.00000  Uiso   1.00
C12    C     0.15899   0.25465   0.47004   0.00000  Uiso   1.00
C13    C     0.18508   0.14818   0.12953   0.00000  Uiso   1.00
C14    C     0.14824   0.18430   0.37087   0.00000  Uiso   1.00
C15    C     0.20334   0.09119   0.01628   0.00000  Uiso   1.00
C16    C     0.19103   0.14085   0.08139   0.00000  Uiso   1.00
C17    C     0.14450   0.23818   0.43285   0.00000  Uiso   1.00
C18    C     0.17405   0.22913   0.49437   0.00000  Uiso   1.00
C19    C     0.16795   0.18518   0.48530   0.00000  Uiso   1.00
C20    C     0.15436   0.16854   0.44625   0.00000  Uiso   1.00
C21    C     0.17766   0.15735   0.01227   0.00000  Uiso   1.00
C22    C     0.18513   0.11651   0.49403   0.00000  Uiso   1.00
C23    C     0.16978   0.10028   0.45678   0.00000  Uiso   1.00
C24    C     0.15082   0.12500   0.43545   0.00000  Uiso   1.00
H25    H     0.16912   0.06746   0.44630   0.00000  Uiso   1.00
H26    H     0.11894   0.01029   0.32964   0.00000  Uiso   1.00
H27    H     0.22680   0.05554   0.46382   0.00000  Uiso   1.00
H28    H     0.15600   0.20597   0.11082   0.00000  Uiso   1.00
H29    H     0.20001   0.27745   0.02530   0.00000  Uiso   1.00
H30    H     0.12835   0.07652   0.40175   0.00000  Uiso   1.00
H31    H     0.13717   0.25947   0.41237   0.00000  Uiso   1.00
H32    H     0.16184   0.28801   0.47761   0.00000  Uiso   1.00
H33    H     0.01523   0.19336   0.21087   0.00000  Uiso   1.00
H34    H     0.25221   0.09431   0.08974   0.00000  Uiso   1.00
H35    H     0.23056   0.05017   0.06694   0.00000  Uiso   1.00
H36    H     0.33125   0.12303   0.31517   0.00000  Uiso   1.00
H37    H     0.23094   0.32212   0.18683   0.00000  Uiso   1.00
H38    H     0.08778   0.00194   0.29306   0.00000  Uiso   1.00
N39    N     0.22337   0.07836   0.08484   0.00000  Uiso   1.00
N40    N     0.11615   0.32852   0.29881   0.00000  Uiso   1.00
O41    O     0.16667   0.16667   0.25000   0.00000  Uiso   1.00
O42    O     0.15451   0.12637   0.15458   0.00000  Uiso   1.00
O43    O     0.12940   0.20391   0.34968   0.00000  Uiso   1.00
O44    O     0.20824   0.17759   0.14606   0.00000  Uiso   1.00
O45    O     0.17451   0.15880   0.34968   0.00000  Uiso   1.00
O46    O     0.31373   0.13437   0.29869   0.00000  Uiso   1.00
O47    O     0.21253   0.00933   0.20479   0.00000  Uiso   1.00
O48    O     0.21719   0.05386   0.49663   0.00000  Uiso   1.00
O49    O     0.15228   0.19919   0.08017   0.00000  Uiso   1.00
O50    O     0.19840   0.24676   0.02362   0.00000  Uiso   1.00
O51    O     0.12771   0.10701   0.40517   0.00000  Uiso   1.00
O52    O     0.17930   0.08019   0.28213   0.00000  Uiso   1.00
O53    O     0.14632   0.26085   0.27014   0.00000  Uiso   1.00
O54    O     0.07412   0.13291   0.23413   0.00000  Uiso   1.00
O55    O     0.26693   0.19272   0.21360   0.00000  Uiso   1.00
O56    O     0.07071   0.18878   0.28213   0.00000  Uiso   1.00
O57    O     0.25491   0.15226   0.27013   0.00000  Uiso   1.00
O58    O     0.13760   0.06944   0.23413   0.00000  Uiso   1.00
O59    O     0.20345   0.25620   0.21361   0.00000  Uiso   1.00
Zn60   Zn    0.19338   0.13994   0.28734   0.00000  Uiso   1.00
Zn61   Zn    0.13379   0.12458   0.21875   0.00000  Uiso   1.00
Zn62   Zn    0.21056   0.19775   0.20657   0.00000  Uiso   1.00
Zn63   Zn    0.12893   0.20439   0.28734   0.00000  Uiso   1.00
C64    C     0.38642   0.16006   0.25945   0.00000  Uiso   1.00
C65    C     0.50902   0.16744   0.05806   0.00000  Uiso   1.00
C66    C     0.53993   0.10381   0.06015   0.00000  Uiso   1.00
C67    C     0.61399   0.17368   0.24021   0.00000  Uiso   1.00
C68    C     0.47899   0.19605   0.41851   0.00000  Uiso   1.00
C69    C     0.65962   0.17582   0.23683   0.00000  Uiso   1.00
C70    C     0.34092   0.15664   0.26488   0.00000  Uiso   1.00
C71    C     0.51323   0.32287   0.23671   0.00000  Uiso   1.00
C72    C     0.48458   0.01239   0.26464   0.00000  Uiso   1.00
C73    C     0.48931   0.05618   0.26039   0.00000  Uiso   1.00
C74    C     0.50980   0.27795   0.24022   0.00000  Uiso   1.00
C75    C     0.49233   0.25465   0.47004   0.00000  Uiso   1.00
C76    C     0.51841   0.14818   0.12953   0.00000  Uiso   1.00
C77    C     0.48157   0.18430   0.37087   0.00000  Uiso   1.00
C78    C     0.53667   0.09119   0.01628   0.00000  Uiso   1.00
C79    C     0.52436   0.14085   0.08139   0.00000  Uiso   1.00
C80    C     0.47783   0.23818   0.43285   0.00000  Uiso   1.00
C81    C     0.50738   0.22913   0.49437   0.00000  Uiso   1.00
C82    C     0.50128   0.18518   0.48530   0.00000  Uiso   1.00
C83    C     0.48769   0.16854   0.44625   0.00000  Uiso   1.00
C84    C     0.51100   0.15735   0.01227   0.00000  Uiso   1.00
C85    C     0.51847   0.11651   0.49403   0.00000  Uiso   1.00
C86    C     0.50311   0.10028   0.45678   0.00000  Uiso   1.00
C87    C     0.48415   0.12500   0.43545   0.00000  Uiso   1.00
H88    H     0.50245   0.06746   0.44630   0.00000  Uiso   1.00
H89    H     0.45227   0.01029   0.32964   0.00000  Uiso   1.00
H90    H     0.56013   0.05554   0.46382   0.00000  Uiso   1.00
H91    H     0.48933   0.20597   0.11082   0.00000  Uiso   1.00
H92    H     0.53335   0.27745   0.02530   0.00000  Uiso   1.00
H93    H     0.46169   0.07652   0.40175   0.00000  Uiso   1.00
H94    H     0.47050   0.25947   0.41237   0.00000  Uiso   1.00
H95    H     0.49517   0.28801   0.47761   0.00000  Uiso   1.00
H96    H     0.34856   0.19336   0.21087   0.00000  Uiso   1.00
H97    H     0.58554   0.09431   0.08974   0.00000  Uiso   1.00
H98    H     0.56389   0.05017   0.06694   0.00000  Uiso   1.00
H99    H     0.66458   0.12303   0.31517   0.00000  Uiso   1.00
H100   H     0.56427   0.32212   0.18683   0.00000  Uiso   1.00
H101   H     0.42112   0.00194   0.29306   0.00000  Uiso   1.00
N102   N     0.55671   0.07836   0.08484   0.00000  Uiso   1.00
N103   N     0.44949   0.32852   0.29881   0.00000  Uiso   1.00
O104   O     0.50000   0.16667   0.25000   0.00000  Uiso   1.00
O105   O     0.48784   0.12637   0.15458   0.00000  Uiso   1.00
O106   O     0.46274   0.20391   0.34968   0.00000  Uiso   1.00
O107   O     0.54157   0.17759   0.14606   0.00000  Uiso   1.00
O108   O     0.50785   0.15880   0.34968   0.00000  Uiso   1.00
O109   O     0.64706   0.13437   0.29869   0.00000  Uiso   1.00
O110   O     0.54586   0.00933   0.20479   0.00000  Uiso   1.00
O111   O     0.55052   0.05386   0.49663   0.00000  Uiso   1.00
O112   O     0.48561   0.19919   0.08017   0.00000  Uiso   1.00
O113   O     0.53173   0.24676   0.02362   0.00000  Uiso   1.00
O114   O     0.46104   0.10701   0.40517   0.00000  Uiso   1.00
O115   O     0.51264   0.08019   0.28213   0.00000  Uiso   1.00
O116   O     0.47965   0.26085   0.27014   0.00000  Uiso   1.00
O117   O     0.40745   0.13291   0.23413   0.00000  Uiso   1.00
O118   O     0.60026   0.19272   0.21360   0.00000  Uiso   1.00
O119   O     0.40405   0.18878   0.28213   0.00000  Uiso   1.00
O120   O     0.58824   0.15226   0.27013   0.00000  Uiso   1.00
O121   O     0.47093   0.06944   0.23413   0.00000  Uiso   1.00
O122   O     0.53678   0.25620   0.21361   0.00000  Uiso   1.00
Zn123  Zn    0.52672   0.13994   0.28734   0.00000  Uiso   1.00
Zn124  Zn    0.46713   0.12458   0.21875   0.00000  Uiso   1.00
Zn125  Zn    0.54389   0.19775   0.20657   0.00000  Uiso   1.00
Zn126  Zn    0.46226   0.20439   0.28734   0.00000  Uiso   1.00
C127   C     0.71975   0.16006   0.25945   0.00000  Uiso   1.00
C128   C     0.84235   0.16744   0.05806   0.00000  Uiso   1.00
C129   C     0.87326   0.10381   0.06015   0.00000  Uiso   1.00
C130   C     0.94732   0.17368   0.24021   0.00000  Uiso   1.00
C131   C     0.81232   0.19605   0.41851   0.00000  Uiso   1.00
C132   C     0.99295   0.17582   0.23683   0.00000  Uiso   1.00
C133   C     0.67425   0.15664   0.26488   0.00000  Uiso   1.00
C134   C     0.84657   0.32287   0.23671   0.00000  Uiso   1.00
C135   C     0.81791   0.01239   0.26464   0.00000  Uiso   1.00
C136   C     0.82264   0.05618   0.26039   0.00000  Uiso   1.00
C137   C     0.84314   0.27795   0.24022   0.00000  Uiso   1.00
C138   C     0.82566   0.25465   0.47004   0.00000  Uiso   1.00
C139   C     0.85174   0.14818   0.12953   0.00000  Uiso   1.00
C140   C     0.81491   0.18430   0.37087   0.00000  Uiso   1.00
C141   C     0.87001   0.09119   0.01628   0.00000  Uiso   1.00
C142   C     0.85769   0.14085   0.08139   0.00000  Uiso   1.00
C143   C     0.81116   0.23818   0.43285   0.00000  Uiso   1.00
C144   C     0.84072   0.22913   0.49437   0.00000  Uiso   1.00
C145   C     0.83462   0.18518   0.48530   0.00000  Uiso   1.00
C146   C     0.82102   0.16854   0.44625   0.00000  Uiso   1.00
C147   C     0.84433   0.15735   0.01227   0.00000  Uiso   1.00
C148   C     0.85180   0.11651   0.49403   0.00000  Uiso   1.00
C149   C     0.83645   0.10028   0.45678   0.00000  Uiso   1.00
C150   C     0.81749   0.12500   0.43545   0.00000  Uiso   1.00
H151   H     0.83578   0.06746   0.44630   0.00000  Uiso   1.00
H152   H     0.78561   0.01029   0.32964   0.00000  Uiso   1.00
H153   H     0.89346   0.05554   0.46382   0.00000  Uiso   1.00
H154   H     0.82266   0.20597   0.11082   0.00000  Uiso   1.00
H155   H     0.86668   0.27745   0.02530   0.00000  Uiso   1.00
H156   H     0.79502   0.07652   0.40175   0.00000  Uiso   1.00
H157   H     0.80384   0.25947   0.41237   0.00000  Uiso   1.00
H158   H     0.82851   0.28801   0.47761   0.00000  Uiso   1.00
H159   H     0.68190   0.19336   0.21087   0.00000  Uiso   1.00
H160   H     0.91887   0.09431   0.08974   0.00000  Uiso   1.00
H161   H     0.89722   0.05017   0.06694   0.00000  Uiso   1.00
H162   H     0.99791   0.12303   0.31517   0.00000  Uiso   1.00
H163   H     0.89760   0.32212   0.18683   0.00000  Uiso   1.00
H164   H     0.75445   0.00194   0.29306   0.00000  Uiso   1.00
N165   N     0.89004   0.07836   0.08484   0.00000  Uiso   1.00
N166   N     0.78282   0.32852   0.29881   0.00000  Uiso   1.00
O167   O     0.83333   0.16667   0.25000   0.00000  Uiso   1.00
O168   O     0.82118   0.12637   0.15458   0.00000  Uiso   1.00
O169   O     0.79607   0.20391   0.34968   0.00000  Uiso   1.00
O170   O     0.87491   0.17759   0.14606   0.00000  Uiso   1.00
O171   O     0.84118   0.15880   0.34968   0.00000  Uiso   1.00
O172   O     0.98040   0.13437   0.29869   0.00000  Uiso   1.00
O173   O     0.87919   0.00933   0.20479   0.00000  Uiso   1.00
O174   O     0.88386   0.05386   0.49663   0.00000  Uiso   1.00
O175   O     0.81894   0.19919   0.08017   0.00000  Uiso   1.00
O176   O     0.86507   0.24676   0.02362   0.00000  Uiso   1.00
O177   O     0.79437   0.10701   0.40517   0.00000  Uiso   1.00
O178   O     0.84597   0.08019   0.28213   0.00000  Uiso   1.00
O179   O     0.81298   0.26085   0.27014   0.00000  Uiso   1.00
O180   O     0.74078   0.13291   0.23413   0.00000  Uiso   1.00
O181   O     0.93360   0.19272   0.21360   0.00000  Uiso   1.00
O182   O     0.73738   0.18878   0.28213   0.00000  Uiso   1.00
O183   O     0.92158   0.15226   0.27013   0.00000  Uiso   1.00
O184   O     0.80426   0.06944   0.23413   0.00000  Uiso   1.00
O185   O     0.87012   0.25620   0.21361   0.00000  Uiso   1.00
Zn186  Zn    0.86005   0.13994   0.28734   0.00000  Uiso   1.00
Zn187  Zn    0.80046   0.12458   0.21875   0.00000  Uiso   1.00
Zn188  Zn    0.87723   0.19775   0.20657   0.00000  Uiso   1.00
Zn189  Zn    0.79560   0.20439   0.28734   0.00000  Uiso   1.00
C190   C     0.05308   0.49339   0.25945   0.00000  Uiso   1.00
C191   C     0.17569   0.50078   0.05806   0.00000  Uiso   1.00
C192   C     0.20660   0.43715   0.06015   0.00000  Uiso   1.00
C193   C     0.28066   0.50702   0.24021   0.00000  Uiso   1.00
C194   C     0.14566   0.52938   0.41851   0.00000  Uiso   1.00
C195   C     0.32629   0.50916   0.23683   0.00000  Uiso   1.00
C196   C     0.00758   0.48998   0.26488   0.00000  Uiso   1.00
C197   C     0.17990   0.65620   0.23671   0.00000  Uiso   1.00
C198   C     0.15124   0.34572   0.26464   0.00000  Uiso   1.00
C199   C     0.15597   0.38951   0.26039   0.00000  Uiso   1.00
C200   C     0.17647   0.61128   0.24022   0.00000  Uiso   1.00
C201   C     0.15899   0.58799   0.47004   0.00000  Uiso   1.00
C202   C     0.18508   0.48151   0.12953   0.00000  Uiso   1.00
C203   C     0.14824   0.51764   0.37087   0.00000  Uiso   1.00
C204   C     0.20334   0.42452   0.01628   0.00000  Uiso   1.00
C205   C     0.19103   0.47418   0.08139   0.00000  Uiso   1.00
C206   C     0.14450   0.57152   0.43285   0.00000  Uiso   1.00
C207   C     0.17405   0.56247   0.49437   0.00000  Uiso   1.00
C208   C     0.16795   0.51852   0.48530   0.00000  Uiso   1.00
C209   C     0.15436   0.50187   0.44625   0.00000  Uiso   1.00
C210   C     0.17766   0.49068   0.01227   0.00000  Uiso   1.00
C211   C     0.18513   0.44985   0.49403   0.00000  Uiso   1.00
C212   C     0.16978   0.43361   0.45678   0.00000  Uiso   1.00
C213   C     0.15082   0.45833   0.43545   0.00000  Uiso   1.00
H214   H     0.16912   0.40080   0.44630   0.00000  Uiso   1.00
H215   H     0.11894   0.34362   0.32964   0.00000  Uiso   1.00
H216   H     0.22680   0.38887   0.46382   0.00000  Uiso   1.00
H217   H     0.15600   0.53931   0.11082   0.00000  Uiso   1.00
H218   H     0.20001   0.61078   0.02530   0.00000  Uiso   1.00
H219   H     0.12835   0.40985   0.40175   0.00000  Uiso   1.00
H220   H     0.13717   0.59280   0.41237   0.00000  Uiso   1.00
H221   H     0.16184   0.62134   0.47761   0.00000  Uiso   1.00
H222   H     0.01523   0.52670   0.21087   0.00000  Uiso   1.00
H223   H     0.25221   0.42765   0.08974   0.00000  Uiso   1.00
H224   H     0.23056   0.38350   0.06694   0.00000  Uiso   1.00
H225   H     0.33125   0.45636   0.31517   0.00000  Uiso   1.00
H226   H     0.23094   0.65545   0.18683   0.00000  Uiso   1.00
H227   H     0.08778   0.33528   0.29306   0.00000  Uiso   1.00
N228   N     0.22337   0.41169   0.08484   0.00000  Uiso   1.00
N229   N     0.11615   0.66185   0.29881   0.00000  Uiso   1.00
O230   O     0.16667   0.50000   0.25000   0.00000  Uiso   1.00
O231   O     0.15451   0.45970   0.15458   0.00000  Uiso   1.00
O232   O     0.12940   0.53724   0.34968   0.00000  Uiso   1.00
O233   O     0.20824   0.51092   0.14606   0.00000  Uiso   1.00
O234   O     0.17451   0.49213   0.34968   0.00000  Uiso   1.00
O235   O     0.31373   0.46770   0.29869   0.00000  Uiso   1.00
O236   O     0.21253   0.34266   0.20479   0.00000  Uiso   1.00
O237   O     0.21719   0.38720   0.49663   0.00000  Uiso   1.00
O238   O     0.15228   0.53253   0.08017   0.00000  Uiso   1.00
O239   O     0.19840   0.58009   0.02362   0.00000  Uiso   1.00
O240   O     0.12771   0.44034   0.40517   0.00000  Uiso   1.00
O241   O     0.17930   0.41352   0.28213   0.00000  Uiso   1.00
O242   O     0.14632   0.59418   0.27014   0.00000  Uiso   1.00
O243   O     0.07412   0.46625   0.23413   0.00000  Uiso   1.00
O244   O     0.26693   0.52605   0.21360   0.00000  Uiso   1.00
O245   O     0.07071   0.52211   0.28213   0.00000  Uiso   1.00
O246   O     0.25491   0.48559   0.27013   0.00000  Uiso   1.00
O247   O     0.13760   0.40277   0.23413   0.00000  Uiso   1.00
O248   O     0.20345   0.58953   0.21361   0.00000  Uiso   1.00
Zn249  Zn    0.19338   0.47327   0.28734   0.00000  Uiso   1.00
Zn250  Zn    0.13379   0.45791   0.21875   0.00000  Uiso   1.00
Zn251  Zn    0.21056   0.53109   0.20657   0.00000  Uiso   1.00
Zn252  Zn    0.12893   0.53773   0.28734   0.00000  Uiso   1.00
C253   C     0.38642   0.49339   0.25945   0.00000  Uiso   1.00
C254   C     0.50902   0.50078   0.05806   0.00000  Uiso   1.00
C255   C     0.53993   0.43715   0.06015   0.00000  Uiso   1.00
C256   C     0.61399   0.50702   0.24021   0.00000  Uiso   1.00
C257   C     0.47899   0.52938   0.41851   0.00000  Uiso   1.00
C258   C     0.65962   0.50916   0.23683   0.00000  Uiso   1.00
C259   C     0.34092   0.48998   0.26488   0.00000  Uiso   1.00
C260   C     0.51323   0.65620   0.23671   0.00000  Uiso   1.00
C261   C     0.48458   0.34572   0.26464   0.00000  Uiso   1.00
C262   C     0.48931   0.38951   0.26039   0.00000  Uiso   1.00
C263   C     0.50980   0.61128   0.24022   0.00000  Uiso   1.00
C264   C     0.49233   0.58799   0.47004   0.00000  Uiso   1.00
C265   C     0.51841   0.48151   0.12953   0.00000  Uiso   1.00
C266   C     0.48157   0.51764   0.37087   0.00000  Uiso   1.00
C267   C     0.53667   0.42452   0.01628   0.00000  Uiso   1.00
C268   C     0.52436   0.47418   0.08139   0.00000  Uiso   1.00
C269   C     0.47783   0.57152   0.43285   0.00000  Uiso   1.00
C270   C     0.50738   0.56247   0.49437   0.00000  Uiso   1.00
C271   C     0.50128   0.51852   0.48530   0.00000  Uiso   1.00
C272   C     0.48769   0.50187   0.44625   0.00000  Uiso   1.00
C273   C     0.51100   0.49068   0.01227   0.00000  Uiso   1.00
C274   C     0.51847   0.44985   0.49403   0.00000  Uiso   1.00
C275   C     0.50311   0.43361   0.45678   0.00000  Uiso   1.00
C276   C     0.48415   0.45833   0.43545   0.00000  Uiso   1.00
H277   H     0.50245   0.40080   0.44630   0.00000  Uiso   1.00
H278   H     0.45227   0.34362   0.32964   0.00000  Uiso   1.00
H279   H     0.56013   0.38887   0.46382   0.00000  Uiso   1.00
H280   H     0.48933   0.53931   0.11082   0.00000  Uiso   1.00
H281   H     0.53335   0.61078   0.02530   0.00000  Uiso   1.00
H282   H     0.46169   0.40985   0.40175   0.00000  Uiso   1.00
H283   H     0.47050   0.59280   0.41237   0.00000  Uiso   1.00
H284   H     0.49517   0.62134   0.47761   0.00000  Uiso   1.00
H285   H     0.34856   0.52670   0.21087   0.00000  Uiso   1.00
H286   H     0.58554   0.42765   0.08974   0.00000  Uiso   1.00
H287   H     0.56389   0.38350   0.06694   0.00000  Uiso   1.00
H288   H     0.66458   0.45636   0.31517   0.00000  Uiso   1.00
H289   H     0.56427   0.65545   0.18683   0.00000  Uiso   1.00
H290   H     0.42112   0.33528   0.29306   0.00000  Uiso   1.00
N291   N     0.55671   0.41169   0.08484   0.00000  Uiso   1.00
N292   N     0.44949   0.66185   0.29881   0.00000  Uiso   1.00
O293   O     0.50000   0.50000   0.25000   0.00000  Uiso   1.00
O294   O     0.48784   0.45970   0.15458   0.00000  Uiso   1.00
O295   O     0.46274   0.53724   0.34968   0.00000  Uiso   1.00
O296   O     0.54157   0.51092   0.14606   0.00000  Uiso   1.00
O297   O     0.50785   0.49213   0.34968   0.00000  Uiso   1.00
O298   O     0.64706   0.46770   0.29869   0.00000  Uiso   1.00
O299   O     0.54586   0.34266   0.20479   0.00000  Uiso   1.00
O300   O     0.55052   0.38720   0.49663   0.00000  Uiso   1.00
O301   O     0.48561   0.53253   0.08017   0.00000  Uiso   1.00
O302   O     0.53173   0.58009   0.02362   0.00000  Uiso   1.00
O303   O     0.46104   0.44034   0.40517   0.00000  Uiso   1.00
O304   O     0.51264   0.41352   0.28213   0.00000  Uiso   1.00
O305   O     0.47965   0.59418   0.27014   0.00000  Uiso   1.00
O306   O     0.40745   0.46625   0.23413   0.00000  Uiso   1.00
O307   O     0.60026   0.52605   0.21360   0.00000  Uiso   1.00
O308   O     0.40405   0.52211   0.28213   0.00000  Uiso   1.00
O309   O     0.58824   0.48559   0.27013   0.00000  Uiso   1.00
O310   O     0.47093   0.40277   0.23413   0.00000  Uiso   1.00
O311   O     0.53678   0.58953   0.21361   0.00000  Uiso   1.00
Zn312  Zn    0.52672   0.47327   0.28734   0.00000  Uiso   1.00
Zn313  Zn    0.46713   0.45791   0.21875   0.00000  Uiso   1.00
Zn314  Zn    0.54389   0.53109   0.20657   0.00000  Uiso   1.00
Zn315  Zn    0.46226   0.53773   0.28734   0.00000  Uiso   1.00
C316   C     0.71975   0.49339   0.25945   0.00000  Uiso   1.00
C317   C     0.84235   0.50078   0.05806   0.00000  Uiso   1.00
C318   C     0.87326   0.43715   0.06015   0.00000  Uiso   1.00
C319   C     0.94732   0.50702   0.24021   0.00000  Uiso   1.00
C320   C     0.81232   0.52938   0.41851   0.00000  Uiso   1.00
C321   C     0.99295   0.50916   0.23683   0.00000  Uiso   1.00
C322   C     0.67425   0.48998   0.26488   0.00000  Uiso   1.00
C323   C     0.84657   0.65620   0.23671   0.00000  Uiso   1.00
C324   C     0.81791   0.34572   0.26464   0.00000  Uiso   1.00
C325   C     0.82264   0.38951   0.26039   0.00000  Uiso   1.00
C326   C     0.84314   0.61128   0.24022   0.00000  Uiso   1.00
C327   C     0.82566   0.58799   0.47004   0.00000  Uiso   1.00
C328   C     0.85174   0.48151   0.12953   0.00000  Uiso   1.00
C329   C     0.81491   0.51764   0.37087   0.00000  Uiso   1.00
C330   C     0.87001   0.42452   0.01628   0.00000  Uiso   1.00
C331   C     0.85769   0.47418   0.08139   0.00000  Uiso   1.00
C332   C     0.81116   0.57152   0.43285   0.00000  Uiso   1.00
C333   C     0.84072   0.56247   0.49437   0.00000  Uiso   1.00
C334   C     0.83462   0.51852   0.48530   0.00000  Uiso   1.00
C335   C     0.82102   0.50187   0.44625   0.00000  Uiso   1.00
C336   C     0.84433   0.49068   0.01227   0.00000  Uiso   1.00
C337   C     0.85180   0.44985   0.49403   0.00000  Uiso   1.00
C338   C     0.83645   0.43361   0.45678   0.00000  Uiso   1.00
C339   C     0.81749   0.45833   0.43545   0.00000  Uiso   1.00
H340   H     0.83578   0.40080   0.44630   0.00000  Uiso   1.00
H341   H     0.78561   0.34362   0.32964   0.00000  Uiso   1.00
H342   H     0.89346   0.38887   0.46382   0.00000  Uiso   1.00
H343   H     0.82266   0.53931   0.11082   0.00000  Uiso   1.00
H344   H     0.86668   0.61078   0.02530   0.00000  Uiso   1.00
H345   H     0.79502   0.40985   0.40175   0.00000  Uiso   1.00
H346   H     0.80384   0.59280   0.41237   0.00000  Uiso   1.00
H347   H     0.82851   0.62134   0.47761   0.00000  Uiso   1.00
H348   H     0.68190   0.52670   0.21087   0.00000  Uiso   1.00
H349   H     0.91887   0.42765   0.08974   0.00000  Uiso   1.00
H350   H     0.89722   0.38350   0.06694   0.00000  Uiso   1.00
H351   H     0.99791   0.45636   0.31517   0.00000  Uiso   1.00
H352   H     0.89760   0.65545   0.18683   0.00000  Uiso   1.00
H353   H     0.75445   0.33528   0.29306   0.00000  Uiso   1.00
N354   N     0.89004   0.41169   0.08484   0.00000  Uiso   1.00
N355   N     0.78282   0.66185   0.29881   0.00000  Uiso   1.00
O356   O     0.83333   0.50000   0.25000   0.00000  Uiso   1.00
O357   O     0.82118   0.45970   0.15458   0.00000  Uiso   1.00
O358   O     0.79607   0.53724   0.34968   0.00000  Uiso   1.00
O359   O     0.87491   0.51092   0.14606   0.00000  Uiso   1.00
O360   O     0.84118   0.49213   0.34968   0.00000  Uiso   1.00
O361   O     0.98040   0.46770   0.29869   0.00000  Uiso   1.00
O362   O     0.87919   0.34266   0.20479   0.00000  Uiso   1.00
O363   O     0.88386   0.38720   0.49663   0.00000  Uiso   1.00
O364   O     0.81894   0.53253   0.08017   0.00000  Uiso   1.00
O365   O     0.86507   0.58009   0.02362   0.00000  Uiso   1.00
O366   O     0.79437   0.44034   0.40517   0.00000  Uiso   1.00
O367   O     0.84597   0.41352   0.28213   0.00000  Uiso   1.00
O368   O     0.81298   0.59418   0.27014   0.00000  Uiso   1.00
O369   O     0.74078   0.46625   0.23413   0.00000  Uiso   1.00
O370   O     0.93360   0.52605   0.21360   0.00000  Uiso   1.00
O371   O     0.73738   0.52211   0.28213   0.00000  Uiso   1.00
O372   O     0.92158   0.48559   0.27013   0.00000  Uiso   1.00
O373   O     0.80426   0.40277   0.23413   0.00000  Uiso   1.00
O374   O     0.87012   0.58953   0.21361   0.00000  Uiso   1.00
Zn375  Zn    0.86005   0.47327   0.28734   0.00000  Uiso   1.00
Zn376  Zn    0.80046   0.45791   0.21875   0.00000  Uiso   1.00
Zn377  Zn    0.87723   0.53109   0.20657   0.00000  Uiso   1.00
Zn378  Zn    0.79560   0.53773   0.28734   0.00000  Uiso   1.00
C379   C     0.05308   0.82672   0.25945   0.00000  Uiso   1.00
C380   C     0.17569   0.83411   0.05806   0.00000  Uiso   1.00
C381   C     0.20660   0.77048   0.06015   0.00000  Uiso   1.00
C382   C     0.28066   0.84035   0.24021   0.00000  Uiso   1.00
C383   C     0.14566   0.86272   0.41851   0.00000  Uiso   1.00
C384   C     0.32629   0.84249   0.23683   0.00000  Uiso   1.00
C385   C     0.00758   0.82331   0.26488   0.00000  Uiso   1.00
C386   C     0.17990   0.98954   0.23671   0.00000  Uiso   1.00
C387   C     0.15124   0.67905   0.26464   0.00000  Uiso   1.00
C388   C     0.15597   0.72284   0.26039   0.00000  Uiso   1.00
C389   C     0.17647   0.94461   0.24022   0.00000  Uiso   1.00
C390   C     0.15899   0.92132   0.47004   0.00000  Uiso   1.00
C391   C     0.18508   0.81484   0.12953   0.00000  Uiso   1.00
C392   C     0.14824   0.85097   0.37087   0.00000  Uiso   1.00
C393   C     0.20334   0.75786   0.01628   0.00000  Uiso   1.00
C394   C     0.19103   0.80752   0.08139   0.00000  Uiso   1.00
C395   C     0.14450   0.90485   0.43285   0.00000  Uiso   1.00
C396   C     0.17405   0.89580   0.49437   0.00000  Uiso   1.00
C397   C     0.16795   0.85185   0.48530   0.00000  Uiso   1.00
C398   C     0.15436   0.83521   0.44625   0.00000  Uiso   1.00
C399   C     0.17766   0.82401   0.01227   0.00000  Uiso   1.00
C400   C     0.18513   0.78318   0.49403   0.00000  Uiso   1.00
C401   C     0.16978   0.76695   0.45678   0.00000  Uiso   1.00
C402   C     0.15082   0.79166   0.43545   0.00000  Uiso   1.00
H403   H     0.16912   0.73413   0.44630   0.00000  Uiso   1.00
H404   H     0.11894   0.67695   0.32964   0.00000  Uiso   1.00
H405   H     0.22680   0.72221   0.46382   0.00000  Uiso   1.00
H406   H     0.15600   0.87264   0.11082   0.00000  Uiso   1.00
H407   H     0.20001   0.94412   0.02530   0.00000  Uiso   1.00
H408   H     0.12835   0.74319   0.40175   0.00000  Uiso   1.00
H409   H     0.13717   0.92613   0.41237   0.00000  Uiso   1.00
H410   H     0.16184   0.95467   0.47761   0.00000  Uiso   1.00
H411   H     0.01523   0.86003   0.21087   0.00000  Uiso   1.00
H412   H     0.25221   0.76098   0.08974   0.00000  Uiso   1.00
H413   H     0.23056   0.71683   0.06694   0.00000  Uiso   1.00
H414   H     0.33125   0.78970   0.31517   0.00000  Uiso   1.00
H415   H     0.23094   0.98879   0.18683   0.00000  Uiso   1.00
H416   H     0.08778   0.66861   0.29306   0.00000  Uiso   1.00
N417   N     0.22337   0.74503   0.08484   0.00000  Uiso   1.00
N418   N     0.11615   0.99519   0.29881   0.00000  Uiso   1.00
O419   O     0.16667   0.83333   0.25000   0.00000  Uiso   1.00
O420   O     0.15451   0.79304   0.15458   0.00000  Uiso   1.00
O421   O     0.12940   0.87058   0.34968   0.00000  Uiso   1.00
O422   O     0.20824   0.84425   0.14606   0.00000  Uiso   1.00
O423   O     0.17451   0.82546   0.34968   0.00000  Uiso   1.00
O424   O     0.31373   0.80104   0.29869   0.00000  Uiso   1.00
O425   O     0.21253   0.67600   0.20479   0.00000  Uiso   1.00
O426   O     0.21719   0.72053   0.49663   0.00000  Uiso   1.00
O427   O     0.15228   0.86586   0.08017   0.00000  Uiso   1.00
O428   O     0.19840   0.91342   0.02362   0.00000  Uiso   1.00
O429   O     0.12771   0.77367   0.40517   0.00000  Uiso   1.00
O430   O     0.17930   0.74686   0.28213   0.00000  Uiso   1.00
O431   O     0.14632   0.92751   0.27014   0.00000  Uiso   1.00
O432   O     0.07412   0.79958   0.23413   0.00000  Uiso   1.00
O433   O     0.26693   0.85939   0.21360   0.00000  Uiso   1.00
O434   O     0.07071   0.85544   0.28213   0.00000  Uiso   1.00
O435   O     0.25491   0.81892   0.27013   0.00000  Uiso   1.00
O436   O     0.13760   0.73610   0.23413   0.00000  Uiso   1.00
O437   O     0.20345   0.92286   0.21361   0.00000  Uiso   1.00
Zn438  Zn    0.19338   0.80661   0.28734   0.00000  Uiso   1.00
Zn439  Zn    0.13379   0.79124   0.21875   0.00000  Uiso   1.00
Zn440  Zn    0.21056   0.86442   0.20657   0.00000  Uiso   1.00
Zn441  Zn    0.12893   0.87106   0.28734   0.00000  Uiso   1.00
C442   C     0.38642   0.82672   0.25945   0.00000  Uiso   1.00
C443   C     0.50902   0.83411   0.05806   0.00000  Uiso   1.00
C444   C     0.53993   0.77048   0.06015   0.00000  Uiso   1.00
C445   C     0.61399   0.84035   0.24021   0.00000  Uiso   1.00
C446   C     0.47899   0.86272   0.41851   0.00000  Uiso   1.00
C447   C     0.65962   0.84249   0.23683   0.00000  Uiso   1.00
C448   C     0.34092   0.82331   0.26488   0.00000  Uiso   1.00
C449   C     0.51323   0.98954   0.23671   0.00000  Uiso   1.00
C450   C     0.48458   0.67905   0.26464   0.00000  Uiso   1.00
C451   C     0.48931   0.72284   0.26039   0.00000  Uiso   1.00
C452   C     0.50980   0.94461   0.24022   0.00000  Uiso   1.00
C453   C     0.49233   0.92132   0.47004   0.00000  Uiso   1.00
C454   C     0.51841   0.81484   0.12953   0.00000  Uiso   1.00
C455   C     0.48157   0.85097   0.37087   0.00000  Uiso   1.00
C456   C     0.53667   0.75786   0.01628   0.00000  Uiso   1.00
C457   C     0.52436   0.80752   0.08139   0.00000  Uiso   1.00
C458   C     0.47783   0.90485   0.43285   0.00000  Uiso   1.00
C459   C     0.50738   0.89580   0.49437   0.00000  Uiso   1.00
C460   C     0.50128   0.85185   0.48530   0.00000  Uiso   1.00
C461   C     0.48769   0.83521   0.44625   0.00000  Uiso   1.00
C462   C     0.51100   0.82401   0.01227   0.00000  Uiso   1.00
C463   C     0.51847   0.78318   0.49403   0.00000  Uiso   1.00
C464   C     0.50311   0.76695   0.45678   0.00000  Uiso   1.00
C465   C     0.48415   0.79166   0.43545   0.00000  Uiso   1.00
H466   H     0.50245   0.73413   0.44630   0.00000  Uiso   1.00
H467   H     0.45227   0.67695   0.32964   0.00000  Uiso   1.00
H468   H     0.56013   0.72221   0.46382   0.00000  Uiso   1.00
H469   H     0.48933   0.87264   0.11082   0.00000  Uiso   1.00
H470   H     0.53335   0.94412   0.02530   0.00000  Uiso   1.00
H471   H     0.46169   0.74319   0.40175   0.00000  Uiso   1.00
H472   H     0.47050   0.92613   0.41237   0.00000  Uiso   1.00
H473   H     0.49517   0.95467   0.47761   0.00000  Uiso   1.00
H474   H     0.34856   0.86003   0.21087   0.00000  Uiso   1.00
H475   H     0.58554   0.76098   0.08974   0.00000  Uiso   1.00
H476   H     0.56389   0.71683   0.06694   0.00000  Uiso   1.00
H477   H     0.66458   0.78970   0.31517   0.00000  Uiso   1.00
H478   H     0.56427   0.98879   0.18683   0.00000  Uiso   1.00
H479   H     0.42112   0.66861   0.29306   0.00000  Uiso   1.00
N480   N     0.55671   0.74503   0.08484   0.00000  Uiso   1.00
N481   N     0.44949   0.99519   0.29881   0.00000  Uiso   1.00
O482   O     0.50000   0.83333   0.25000   0.00000  Uiso   1.00
O483   O     0.48784   0.79304   0.15458   0.00000  Uiso   1.00
O484   O     0.46274   0.87058   0.34968   0.00000  Uiso   1.00
O485   O     0.54157   0.84425   0.14606   0.00000  Uiso   1.00
O486   O     0.50785   0.82546   0.34968   0.00000  Uiso   1.00
O487   O     0.64706   0.80104   0.29869   0.00000  Uiso   1.00
O488   O     0.54586   0.67600   0.20479   0.00000  Uiso   1.00
O489   O     0.55052   0.72053   0.49663   0.00000  Uiso   1.00
O490   O     0.48561   0.86586   0.08017   0.00000  Uiso   1.00
O491   O     0.53173   0.91342   0.02362   0.00000  Uiso   1.00
O492   O     0.46104   0.77367   0.40517   0.00000  Uiso   1.00
O493   O     0.51264   0.74686   0.28213   0.00000  Uiso   1.00
O494   O     0.47965   0.92751   0.27014   0.00000  Uiso   1.00
O495   O     0.40745   0.79958   0.23413   0.00000  Uiso   1.00
O496   O     0.60026   0.85939   0.21360   0.00000  Uiso   1.00
O497   O     0.40405   0.85544   0.28213   0.00000  Uiso   1.00
O498   O     0.58824   0.81892   0.27013   0.00000  Uiso   1.00
O499   O     0.47093   0.73610   0.23413   0.00000  Uiso   1.00
O500   O     0.53678   0.92286   0.21361   0.00000  Uiso   1.00
Zn501  Zn    0.52672   0.80661   0.28734   0.00000  Uiso   1.00
Zn502  Zn    0.46713   0.79124   0.21875   0.00000  Uiso   1.00
Zn503  Zn    0.54389   0.86442   0.20657   0.00000  Uiso   1.00
Zn504  Zn    0.46226   0.87106   0.28734   0.00000  Uiso   1.00
C505   C     0.71975   0.82672   0.25945   0.00000  Uiso   1.00
C506   C     0.84235   0.83411   0.05806   0.00000  Uiso   1.00
C507   C     0.87326   0.77048   0.06015   0.00000  Uiso   1.00
C508   C     0.94732   0.84035   0.24021   0.00000  Uiso   1.00
C509   C     0.81232   0.86272   0.41851   0.00000  Uiso   1.00
C510   C     0.99295   0.84249   0.23683   0.00000  Uiso   1.00
C511   C     0.67425   0.82331   0.26488   0.00000  Uiso   1.00
C512   C     0.84657   0.98954   0.23671   0.00000  Uiso   1.00
C513   C     0.81791   0.67905   0.26464   0.00000  Uiso   1.00
C514   C     0.82264   0.72284   0.26039   0.00000  Uiso   1.00
C515   C     0.84314   0.94461   0.24022   0.00000  Uiso   1.00
C516   C     0.82566   0.92132   0.47004   0.00000  Uiso   1.00
C517   C     0.85174   0.81484   0.12953   0.00000  Uiso   1.00
C518   C     0.81491   0.85097   0.37087   0.00000  Uiso   1.00
C519   C     0.87001   0.75786   0.01628   0.00000  Uiso   1.00
C520   C     0.85769   0.80752   0.08139   0.00000  Uiso   1.00
C521   C     0.81116   0.90485   0.43285   0.00000  Uiso   1.00
C522   C     0.84072   0.89580   0.49437   0.00000  Uiso   1.00
C523   C     0.83462   0.85185   0.48530   0.00000  Uiso   1.00
C524   C     0.82102   0.83521   0.44625   0.00000  Uiso   1.00
C525   C     0.84433   0.82401   0.01227   0.00000  Uiso   1.00
C526   C     0.85180   0.78318   0.49403   0.00000  Uiso   1.00
C527   C     0.83645   0.76695   0.45678   0.00000  Uiso   1.00
C528   C     0.81749   0.79166   0.43545   0.00000  Uiso   1.00
H529   H     0.83578   0.73413   0.44630   0.00000  Uiso   1.00
H530   H     0.78561   0.67695   0.32964   0.00000  Uiso   1.00
H531   H     0.89346   0.72221   0.46382   0.00000  Uiso   1.00
H532   H     0.82266   0.87264   0.11082   0.00000  Uiso   1.00
H533   H     0.86668   0.94412   0.02530   0.00000  Uiso   1.00
H534   H     0.79502   0.74319   0.40175   0.00000  Uiso   1.00
H535   H     0.80384   0.92613   0.41237   0.00000  Uiso   1.00
H536   H     0.82851   0.95467   0.47761   0.00000  Uiso   1.00
H537   H     0.68190   0.86003   0.21087   0.00000  Uiso   1.00
H538   H     0.91887   0.76098   0.08974   0.00000  Uiso   1.00
H539   H     0.89722   0.71683   0.06694   0.00000  Uiso   1.00
H540   H     0.99791   0.78970   0.31517   0.00000  Uiso   1.00
H541   H     0.89760   0.98879   0.18683   0.00000  Uiso   1.00
H542   H     0.75445   0.66861   0.29306   0.00000  Uiso   1.00
N543   N     0.89004   0.74503   0.08484   0.00000  Uiso   1.00
N544   N     0.78282   0.99519   0.29881   0.00000  Uiso   1.00
O545   O     0.83333   0.83333   0.25000   0.00000  Uiso   1.00
O546   O     0.82118   0.79304   0.15458   0.00000  Uiso   1.00
O547   O     0.79607   0.87058   0.34968   0.00000  Uiso   1.00
O548   O     0.87491   0.84425   0.14606   0.00000  Uiso   1.00
O549   O     0.84118   0.82546   0.34968   0.00000  Uiso   1.00
O550   O     0.98040   0.80104   0.29869   0.00000  Uiso   1.00
O551   O     0.87919   0.67600   0.20479   0.00000  Uiso   1.00
O552   O     0.88386   0.72053   0.49663   0.00000  Uiso   1.00
O553   O     0.81894   0.86586   0.08017   0.00000  Uiso   1.00
O554   O     0.86507   0.91342   0.02362   0.00000  Uiso   1.00
O555   O     0.79437   0.77367   0.40517   0.00000  Uiso   1.00
O556   O     0.84597   0.74686   0.28213   0.00000  Uiso   1.00
O557   O     0.81298   0.92751   0.27014   0.00000  Uiso   1.00
O558   O     0.74078   0.79958   0.23413   0.00000  Uiso   1.00
O559   O     0.93360   0.85939   0.21360   0.00000  Uiso   1.00
O560   O     0.73738   0.85544   0.28213   0.00000  Uiso   1.00
O561   O     0.92158   0.81892   0.27013   0.00000  Uiso   1.00
O562   O     0.80426   0.73610   0.23413   0.00000  Uiso   1.00
O563   O     0.87012   0.92286   0.21361   0.00000  Uiso   1.00
Zn564  Zn    0.86005   0.80661   0.28734   0.00000  Uiso   1.00
Zn565  Zn    0.80046   0.79124   0.21875   0.00000  Uiso   1.00
Zn566  Zn    0.87723   0.86442   0.20657   0.00000  Uiso   1.00
Zn567  Zn    0.79560   0.87106   0.28734   0.00000  Uiso   1.00
C568   C     0.05308   0.16006   0.75945   0.00000  Uiso   1.00
C569   C     0.17569   0.16744   0.55806   0.00000  Uiso   1.00
C570   C     0.20660   0.10381   0.56015   0.00000  Uiso   1.00
C571   C     0.28066   0.17368   0.74021   0.00000  Uiso   1.00
C572   C     0.14566   0.19605   0.91851   0.00000  Uiso   1.00
C573   C     0.32629   0.17582   0.73683   0.00000  Uiso   1.00
C574   C     0.00758   0.15664   0.76488   0.00000  Uiso   1.00
C575   C     0.17990   0.32287   0.73671   0.00000  Uiso   1.00
C576   C     0.15124   0.01239   0.76464   0.00000  Uiso   1.00
C577   C     0.15597   0.05618   0.76039   0.00000  Uiso   1.00
C578   C     0.17647   0.27795   0.74022   0.00000  Uiso   1.00
C579   C     0.15899   0.25465   0.97004   0.00000  Uiso   1.00
C580   C     0.18508   0.14818   0.62953   0.00000  Uiso   1.00
C581   C     0.14824   0.18430   0.87087   0.00000  Uiso   1.00
C582   C     0.20334   0.09119   0.51628   0.00000  Uiso   1.00
C583   C     0.19103   0.14085   0.58139   0.00000  Uiso   1.00
C584   C     0.14450   0.23818   0.93285   0.00000  Uiso   1.00
C585   C     0.17405   0.22913   0.99437   0.00000  Uiso   1.00
C586   C     0.16795   0.18518   0.98530   0.00000  Uiso   1.00
C587   C     0.15436   0.16854   0.94625   0.00000  Uiso   1.00
C588   C     0.17766   0.15735   0.51227   0.00000  Uiso   1.00
C589   C     0.18513   0.11651   0.99403   0.00000  Uiso   1.00
C590   C     0.16978   0.10028   0.95678   0.00000  Uiso   1.00
C591   C     0.15082   0.12500   0.93545   0.00000  Uiso   1.00
H592   H     0.16912   0.06746   0.94630   0.00000  Uiso   1.00
H593   H     0.11894   0.01029   0.82964   0.00000  Uiso   1.00
H594   H     0.22680   0.05554   0.96382   0.00000  Uiso   1.00
H595   H     0.15600   0.20597   0.61082   0.00000  Uiso   1.00
H596   H     0.20001   0.27745   0.52530   0.00000  Uiso   1.00
H597   H     0.12835   0.07652   0.90175   0.00000  Uiso   1.00
H598   H     0.13717   0.25947   0.91237   0.00000  Uiso   1.00
H599   H     0.16184   0.28801   0.97761   0.00000  Uiso   1.00
H600   H     0.01523   0.19336   0.71087   0.00000  Uiso   1.00
H601   H     0.25221   0.09431   0.58974   0.00000  Uiso   1.00
H602   H     0.23056   0.05017   0.56694   0.00000  Uiso   1.00
H603   H     0.33125   0.12303   0.81517   0.00000  Uiso   1.00
H604   H     0.23094   0.32212   0.68683   0.00000  Uiso   1.00
H605   H     0.08778   0.00194   0.79306   0.00000  Uiso   1.00
N606   N     0.22337   0.07836   0.58484   0.00000  Uiso   1.00
N607   N     0.11615   0.32852   0.79881   0.00000  Uiso   1.00
O608   O     0.16667   0.16667   0.75000   0.00000  Uiso   1.00
O609   O     0.15451   0.12637   0.65458   0.00000  Uiso   1.00
O610   O     0.12940   0.20391   0.84968   0.00000  Uiso   1.00
O611   O     0.20824   0.17759   0.64606   0.00000  Uiso   1.00
O612   O     0.17451   0.15880   0.84968   0.00000  Uiso   1.00
O613   O     0.31373   0.13437   0.79869   0.00000  Uiso   1.00
O614   O     0.21253   0.00933   0.70479   0.00000  Uiso   1.00
O615   O     0.21719   0.05386   0.99663   0.00000  Uiso   1.00
O616   O     0.15228   0.19919   0.58017   0.00000  Uiso   1.00
O617   O     0.19840   0.24676   0.52362   0.00000  Uiso   1.00
O618   O     0.12771   0.10701   0.90517   0.00000  Uiso   1.00
O619   O     0.17930   0.08019   0.78213   0.00000  Uiso   1.00
O620   O     0.14632   0.26085   0.77014   0.00000  Uiso   1.00
O621   O     0.07412   0.13291   0.73413   0.00000  Uiso   1.00
O622   O     0.26693   0.19272   0.71360   0.00000  Uiso   1.00
O623   O     0.07071   0.18878   0.78213   0.00000  Uiso   1.00
O624   O     0.25491   0.15226   0.77013   0.00000  Uiso   1.00
O625   O     0.13760   0.06944   0.73413   0.00000  Uiso   1.00
O626   O     0.20345   0.25620   0.71361   0.00000  Uiso   1.00
Zn627  Zn    0.19338   0.13994   0.78734   0.00000  Uiso   1.00
Zn628  Zn    0.13379   0.12458   0.71875   0.00000  Uiso   1.00
Zn629  Zn    0.21056   0.19775   0.70657   0.00000  Uiso   1.00
Zn630  Zn    0.12893   0.20439   0.78734   0.00000  Uiso   1.00
C631   C     0.38642   0.16006   0.75945   0.00000  Uiso   1.00
C632   C     0.50902   0.16744   0.55806   0.00000  Uiso   1.00
C633   C     0.53993   0.10381   0.56015   0.00000  Uiso   1.00
C634   C     0.61399   0.17368   0.74021   0.00000  Uiso   1.00
C635   C     0.47899   0.19605   0.91851   0.00000  Uiso   1.00
C636   C     0.65962   0.17582   0.73683   0.00000  Uiso   1.00
C637   C     0.34092   0.15664   0.76488   0.00000  Uiso   1.00
C638   C     0.51323   0.32287   0.73671   0.00000  Uiso   1.00
C639   C     0.48458   0.01239   0.76464   0.00000  Uiso   1.00
C640   C     0.48931   0.05618   0.76039   0.00000  Uiso   1.00
C641   C     0.50980   0.27795   0.74022   0.00000  Uiso   1.00
C642   C     0.49233   0.25465   0.97004   0.00000  Uiso   1.00
C643   C     0.51841   0.14818   0.62953   0.00000  Uiso   1.00
C644   C     0.48157   0.18430   0.87087   0.00000  Uiso   1.00
C645   C     0.53667   0.09119   0.51628   0.00000  Uiso   1.00
C646   C     0.52436   0.14085   0.58139   0.00000  Uiso   1.00
C647   C     0.47783   0.23818   0.93285   0.00000  Uiso   1.00
C648   C     0.50738   0.22913   0.99437   0.00000  Uiso   1.00
C649   C     0.50128   0.18518   0.98530   0.00000  Uiso   1.00
C650   C     0.48769   0.16854   0.94625   0.00000  Uiso   1.00
C651   C     0.51100   0.15735   0.51227   0.00000  Uiso   1.00
C652   C     0.51847   0.11651   0.99403   0.00000  Uiso   1.00
C653   C     0.50311   0.10028   0.95678   0.00000  Uiso   1.00
C654   C     0.48415   0.12500   0.93545   0.00000  Uiso   1.00
H655   H     0.50245   0.06746   0.94630   0.00000  Uiso   1.00
H656   H     0.45227   0.01029   0.82964   0.00000  Uiso   1.00
H657   H     0.56013   0.05554   0.96382   0.00000  Uiso   1.00
H658   H     0.48933   0.20597   0.61082   0.00000  Uiso   1.00
H659   H     0.53335   0.27745   0.52530   0.00000  Uiso   1.00
H660   H     0.46169   0.07652   0.90175   0.00000  Uiso   1.00
H661   H     0.47050   0.25947   0.91237   0.00000  Uiso   1.00
H662   H     0.49517   0.28801   0.97761   0.00000  Uiso   1.00
H663   H     0.34856   0.19336   0.71087   0.00000  Uiso   1.00
H664   H     0.58554   0.09431   0.58974   0.00000  Uiso   1.00
H665   H     0.56389   0.05017   0.56694   0.00000  Uiso   1.00
H666   H     0.66458   0.12303   0.81517   0.00000  Uiso   1.00
H667   H     0.56427   0.32212   0.68683   0.00000  Uiso   1.00
H668   H     0.42112   0.00194   0.79306   0.00000  Uiso   1.00
N669   N     0.55671   0.07836   0.58484   0.00000  Uiso   1.00
N670   N     0.44949   0.32852   0.79881   0.00000  Uiso   1.00
O671   O     0.50000   0.16667   0.75000   0.00000  Uiso   1.00
O672   O     0.48784   0.12637   0.65458   0.00000  Uiso   1.00
O673   O     0.46274   0.20391   0.84968   0.00000  Uiso   1.00
O674   O     0.54157   0.17759   0.64606   0.00000  Uiso   1.00
O675   O     0.50785   0.15880   0.84968   0.00000  Uiso   1.00
O676   O     0.64706   0.13437   0.79869   0.00000  Uiso   1.00
O677   O     0.54586   0.00933   0.70479   0.00000  Uiso   1.00
O678   O     0.55052   0.05386   0.99663   0.00000  Uiso   1.00
O679   O     0.48561   0.19919   0.58017   0.00000  Uiso   1.00
O680   O     0.53173   0.24676   0.52362   0.00000  Uiso   1.00
O681   O     0.46104   0.10701   0.90517   0.00000  Uiso   1.00
O682   O     0.51264   0.08019   0.78213   0.00000  Uiso   1.00
O683   O     0.47965   0.26085   0.77014   0.00000  Uiso   1.00
O684   O     0.40745   0.13291   0.73413   0.00000  Uiso   1.00
O685   O     0.60026   0.19272   0.71360   0.00000  Uiso   1.00
O686   O     0.40405   0.18878   0.78213   0.00000  Uiso   1.00
O687   O     0.58824   0.15226   0.77013   0.00000  Uiso   1.00
O688   O     0.47093   0.06944   0.73413   0.00000  Uiso   1.00
O689   O     0.53678   0.25620   0.71361   0.00000  Uiso   1.00
Zn690  Zn    0.52672   0.13994   0.78734   0.00000  Uiso   1.00
Zn691  Zn    0.46713   0.12458   0.71875   0.00000  Uiso   1.00
Zn692  Zn    0.54389   0.19775   0.70657   0.00000  Uiso   1.00
Zn693  Zn    0.46226   0.20439   0.78734   0.00000  Uiso   1.00
C694   C     0.71975   0.16006   0.75945   0.00000  Uiso   1.00
C695   C     0.84235   0.16744   0.55806   0.00000  Uiso   1.00
C696   C     0.87326   0.10381   0.56015   0.00000  Uiso   1.00
C697   C     0.94732   0.17368   0.74021   0.00000  Uiso   1.00
C698   C     0.81232   0.19605   0.91851   0.00000  Uiso   1.00
C699   C     0.99295   0.17582   0.73683   0.00000  Uiso   1.00
C700   C     0.67425   0.15664   0.76488   0.00000  Uiso   1.00
C701   C     0.84657   0.32287   0.73671   0.00000  Uiso   1.00
C702   C     0.81791   0.01239   0.76464   0.00000  Uiso   1.00
C703   C     0.82264   0.05618   0.76039   0.00000  Uiso   1.00
C704   C     0.84314   0.27795   0.74022   0.00000  Uiso   1.00
C705   C     0.82566   0.25465   0.97004   0.00000  Uiso   1.00
C706   C     0.85174   0.14818   0.62953   0.00000  Uiso   1.00
C707   C     0.81491   0.18430   0.87087   0.00000  Uiso   1.00
C708   C     0.87001   0.09119   0.51628   0.00000  Uiso   1.00
C709   C     0.85769   0.14085   0.58139   0.00000  Uiso   1.00
C710   C     0.81116   0.23818   0.93285   0.00000  Uiso   1.00
C711   C     0.84072   0.22913   0.99437   0.00000  Uiso   1.00
C712   C     0.83462   0.18518   0.98530   0.00000  Uiso   1.00
C713   C     0.82102   0.16854   0.94625   0.00000  Uiso   1.00
C714   C     0.84433   0.15735   0.51227   0.00000  Uiso   1.00
C715   C     0.85180   0.11651   0.99403   0.00000  Uiso   1.00
C716   C     0.83645   0.10028   0.95678   0.00000  Uiso   1.00
C717   C     0.81749   0.12500   0.93545   0.00000  Uiso   1.00
H718   H     0.83578   0.06746   0.94630   0.00000  Uiso   1.00
H719   H     0.78561   0.01029   0.82964   0.00000  Uiso   1.00
H720   H     0.89346   0.05554   0.96382   0.00000  Uiso   1.00
H721   H     0.82266   0.20597   0.61082   0.00000  Uiso   1.00
H722   H     0.86668   0.27745   0.52530   0.00000  Uiso   1.00
H723   H     0.79502   0.07652   0.90175   0.00000  Uiso   1.00
H724   H     0.80384   0.25947   0.91237   0.00000  Uiso   1.00
H725   H     0.82851   0.28801   0.97761   0.00000  Uiso   1.00
H726   H     0.68190   0.19336   0.71087   0.00000  Uiso   1.00
H727   H     0.91887   0.09431   0.58974   0.00000  Uiso   1.00
H728   H     0.89722   0.05017   0.56694   0.00000  Uiso   1.00
H729   H     0.99791   0.12303   0.81517   0.00000  Uiso   1.00
H730   H     0.89760   0.32212   0.68683   0.00000  Uiso   1.00
H731   H     0.75445   0.00194   0.79306   0.00000  Uiso   1.00
N732   N     0.89004   0.07836   0.58484   0.00000  Uiso   1.00
N733   N     0.78282   0.32852   0.79881   0.00000  Uiso   1.00
O734   O     0.83333   0.16667   0.75000   0.00000  Uiso   1.00
O735   O     0.82118   0.12637   0.65458   0.00000  Uiso   1.00
O736   O     0.79607   0.20391   0.84968   0.00000  Uiso   1.00
O737   O     0.87491   0.17759   0.64606   0.00000  Uiso   1.00
O738   O     0.84118   0.15880   0.84968   0.00000  Uiso   1.00
O739   O     0.98040   0.13437   0.79869   0.00000  Uiso   1.00
O740   O     0.87919   0.00933   0.70479   0.00000  Uiso   1.00
O741   O     0.88386   0.05386   0.99663   0.00000  Uiso   1.00
O742   O     0.81894   0.19919   0.58017   0.00000  Uiso   1.00
O743   O     0.86507   0.24676   0.52362   0.00000  Uiso   1.00
O744   O     0.79437   0.10701   0.90517   0.00000  Uiso   1.00
O745   O     0.84597   0.08019   0.78213   0.00000  Uiso   1.00
O746   O     0.81298   0.26085   0.77014   0.00000  Uiso   1.00
O747   O     0.74078   0.13291   0.73413   0.00000  Uiso   1.00
O748   O     0.93360   0.19272   0.71360   0.00000  Uiso   1.00
O749   O     0.73738   0.18878   0.78213   0.00000  Uiso   1.00
O750   O     0.92158   0.15226   0.77013   0.00000  Uiso   1.00
O751   O     0.80426   0.06944   0.73413   0.00000  Uiso   1.00
O752   O     0.87012   0.25620   0.71361   0.00000  Uiso   1.00
Zn753  Zn    0.86005   0.13994   0.78734   0.00000  Uiso   1.00
Zn754  Zn    0.80046   0.12458   0.71875   0.00000  Uiso   1.00
Zn755  Zn    0.87723   0.19775   0.70657   0.00000  Uiso   1.00
Zn756  Zn    0.79560   0.20439   0.78734   0.00000  Uiso   1.00
C757   C     0.05308   0.49339   0.75945   0.00000  Uiso   1.00
C758   C     0.17569   0.50078   0.55806   0.00000  Uiso   1.00
C759   C     0.20660   0.43715   0.56015   0.00000  Uiso   1.00
C760   C     0.28066   0.50702   0.74021   0.00000  Uiso   1.00
C761   C     0.14566   0.52938   0.91851   0.00000  Uiso   1.00
C762   C     0.32629   0.50916   0.73683   0.00000  Uiso   1.00
C763   C     0.00758   0.48998   0.76488   0.00000  Uiso   1.00
C764   C     0.17990   0.65620   0.73671   0.00000  Uiso   1.00
C765   C     0.15124   0.34572   0.76464   0.00000  Uiso   1.00
C766   C     0.15597   0.38951   0.76039   0.00000  Uiso   1.00
C767   C     0.17647   0.61128   0.74022   0.00000  Uiso   1.00
C768   C     0.15899   0.58799   0.97004   0.00000  Uiso   1.00
C769   C     0.18508   0.48151   0.62953   0.00000  Uiso   1.00
C770   C     0.14824   0.51764   0.87087   0.00000  Uiso   1.00
C771   C     0.20334   0.42452   0.51628   0.00000  Uiso   1.00
C772   C     0.19103   0.47418   0.58139   0.00000  Uiso   1.00
C773   C     0.14450   0.57152   0.93285   0.00000  Uiso   1.00
C774   C     0.17405   0.56247   0.99437   0.00000  Uiso   1.00
C775   C     0.16795   0.51852   0.98530   0.00000  Uiso   1.00
C776   C     0.15436   0.50187   0.94625   0.00000  Uiso   1.00
C777   C     0.17766   0.49068   0.51227   0.00000  Uiso   1.00
C778   C     0.18513   0.44985   0.99403   0.00000  Uiso   1.00
C779   C     0.16978   0.43361   0.95678   0.00000  Uiso   1.00
C780   C     0.15082   0.45833   0.93545   0.00000  Uiso   1.00
H781   H     0.16912   0.40080   0.94630   0.00000  Uiso   1.00
H782   H     0.11894   0.34362   0.82964   0.00000  Uiso   1.00
H783   H     0.22680   0.38887   0.96382   0.00000  Uiso   1.00
H784   H     0.15600   0.53931   0.61082   0.00000  Uiso   1.00
H785   H     0.20001   0.61078   0.52530   0.00000  Uiso   1.00
H786   H     0.12835   0.40985   0.90175   0.00000  Uiso   1.00
H787   H     0.13717   0.59280   0.91237   0.00000  Uiso   1.00
H788   H     0.16184   0.62134   0.97761   0.00000  Uiso   1.00
H789   H     0.01523   0.52670   0.71087   0.00000  Uiso   1.00
H790   H     0.25221   0.42765   0.58974   0.00000  Uiso   1.00
H791   H     0.23056   0.38350   0.56694   0.00000  Uiso   1.00
H792   H     0.33125   0.45636   0.81517   0.00000  Uiso   1.00
H793   H     0.23094   0.65545   0.68683   0.00000  Uiso   1.00
H794   H     0.08778   0.33528   0.79306   0.00000  Uiso   1.00
N795   N     0.22337   0.41169   0.58484   0.00000  Uiso   1.00
N796   N     0.11615   0.66185   0.79881   0.00000  Uiso   1.00
O797   O     0.16667   0.50000   0.75000   0.00000  Uiso   1.00
O798   O     0.15451   0.45970   0.65458   0.00000  Uiso   1.00
O799   O     0.12940   0.53724   0.84968   0.00000  Uiso   1.00
O800   O     0.20824   0.51092   0.64606   0.00000  Uiso   1.00
O801   O     0.17451   0.49213   0.84968   0.00000  Uiso   1.00
O802   O     0.31373   0.46770   0.79869   0.00000  Uiso   1.00
O803   O     0.21253   0.34266   0.70479   0.00000  Uiso   1.00
O804   O     0.21719   0.38720   0.99663   0.00000  Uiso   1.00
O805   O     0.15228   0.53253   0.58017   0.00000  Uiso   1.00
O806   O     0.19840   0.58009   0.52362   0.00000  Uiso   1.00
O807   O     0.12771   0.44034   0.90517   0.00000  Uiso   1.00
O808   O     0.17930   0.41352   0.78213   0.00000  Uiso   1.00
O809   O     0.14632   0.59418   0.77014   0.00000  Uiso   1.00
O810   O     0.07412   0.46625   0.73413   0.00000  Uiso   1.00
O811   O     0.26693   0.52605   0.71360   0.00000  Uiso   1.00
O812   O     0.07071   0.52211   0.78213   0.00000  Uiso   1.00
O813   O     0.25491   0.48559   0.77013   0.00000  Uiso   1.00
O814   O     0.13760   0.40277   0.73413   0.00000  Uiso   1.00
O815   O     0.20345   0.58953   0.71361   0.00000  Uiso   1.00
Zn816  Zn    0.19338   0.47327   0.78734   0.00000  Uiso   1.00
Zn817  Zn    0.13379   0.45791   0.71875   0.00000  Uiso   1.00
Zn818  Zn    0.21056   0.53109   0.70657   0.00000  Uiso   1.00
Zn819  Zn    0.12893   0.53773   0.78734   0.00000  Uiso   1.00
C820   C     0.38642   0.49339   0.75945   0.00000  Uiso   1.00
C821   C     0.50902   0.50078   0.55806   0.00000  Uiso   1.00
C822   C     0.53993   0.43715   0.56015   0.00000  Uiso   1.00
C823   C     0.61399   0.50702   0.74021   0.00000  Uiso   1.00
C824   C     0.47899   0.52938   0.91851   0.00000  Uiso   1.00
C825   C     0.65962   0.50916   0.73683   0.00000  Uiso   1.00
C826   C     0.34092   0.48998   0.76488   0.00000  Uiso   1.00
C827   C     0.51323   0.65620   0.73671   0.00000  Uiso   1.00
C828   C     0.48458   0.34572   0.76464   0.00000  Uiso   1.00
C829   C     0.48931   0.38951   0.76039   0.00000  Uiso   1.00
C830   C     0.50980   0.61128   0.74022   0.00000  Uiso   1.00
C831   C     0.49233   0.58799   0.97004   0.00000  Uiso   1.00
C832   C     0.51841   0.48151   0.62953   0.00000  Uiso   1.00
C833   C     0.48157   0.51764   0.87087   0.00000  Uiso   1.00
C834   C     0.53667   0.42452   0.51628   0.00000  Uiso   1.00
C835   C     0.52436   0.47418   0.58139   0.00000  Uiso   1.00
C836   C     0.47783   0.57152   0.93285   0.00000  Uiso   1.00
C837   C     0.50738   0.56247   0.99437   0.00000  Uiso   1.00
C838   C     0.50128   0.51852   0.98530   0.00000  Uiso   1.00
C839   C     0.48769   0.50187   0.94625   0.00000  Uiso   1.00
C840   C     0.51100   0.49068   0.51227   0.00000  Uiso   1.00
C841   C     0.51847   0.44985   0.99403   0.00000  Uiso   1.00
C842   C     0.50311   0.43361   0.95678   0.00000  Uiso   1.00
C843   C     0.48415   0.45833   0.93545   0.00000  Uiso   1.00
H844   H     0.50245   0.40080   0.94630   0.00000  Uiso   1.00
H845   H     0.45227   0.34362   0.82964   0.00000  Uiso   1.00
H846   H     0.56013   0.38887   0.96382   0.00000  Uiso   1.00
H847   H     0.48933   0.53931   0.61082   0.00000  Uiso   1.00
H848   H     0.53335   0.61078   0.52530   0.00000  Uiso   1.00
H849   H     0.46169   0.40985   0.90175   0.00000  Uiso   1.00
H850   H     0.47050   0.59280   0.91237   0.00000  Uiso   1.00
H851   H     0.49517   0.62134   0.97761   0.00000  Uiso   1.00
H852   H     0.34856   0.52670   0.71087   0.00000  Uiso   1.00
H853   H     0.58554   0.42765   0.58974   0.00000  Uiso   1.00
H854   H     0.56389   0.38350   0.56694   0.00000  Uiso   1.00
H855   H     0.66458   0.45636   0.81517   0.00000  Uiso   1.00
H856   H     0.56427   0.65545   0.68683   0.00000  Uiso   1.00
H857   H     0.42112   0.33528   0.79306   0.00000  Uiso   1.00
N858   N     0.55671   0.41169   0.58484   0.00000  Uiso   1.00
N859   N     0.44949   0.66185   0.79881   0.00000  Uiso   1.00
O860   O     0.50000   0.50000   0.75000   0.00000  Uiso   1.00
O861   O     0.48784   0.45970   0.65458   0.00000  Uiso   1.00
O862   O     0.46274   0.53724   0.84968   0.00000  Uiso   1.00
O863   O     0.54157   0.51092   0.64606   0.00000  Uiso   1.00
O864   O     0.50785   0.49213   0.84968   0.00000  Uiso   1.00
O865   O     0.64706   0.46770   0.79869   0.00000  Uiso   1.00
O866   O     0.54586   0.34266   0.70479   0.00000  Uiso   1.00
O867   O     0.55052   0.38720   0.99663   0.00000  Uiso   1.00
O868   O     0.48561   0.53253   0.58017   0.00000  Uiso   1.00
O869   O     0.53173   0.58009   0.52362   0.00000  Uiso   1.00
O870   O     0.46104   0.44034   0.90517   0.00000  Uiso   1.00
O871   O     0.51264   0.41352   0.78213   0.00000  Uiso   1.00
O872   O     0.47965   0.59418   0.77014   0.00000  Uiso   1.00
O873   O     0.40745   0.46625   0.73413   0.00000  Uiso   1.00
O874   O     0.60026   0.52605   0.71360   0.00000  Uiso   1.00
O875   O     0.40405   0.52211   0.78213   0.00000  Uiso   1.00
O876   O     0.58824   0.48559   0.77013   0.00000  Uiso   1.00
O877   O     0.47093   0.40277   0.73413   0.00000  Uiso   1.00
O878   O     0.53678   0.58953   0.71361   0.00000  Uiso   1.00
Zn879  Zn    0.52672   0.47327   0.78734   0.00000  Uiso   1.00
Zn880  Zn    0.46713   0.45791   0.71875   0.00000  Uiso   1.00
Zn881  Zn    0.54389   0.53109   0.70657   0.00000  Uiso   1.00
Zn882  Zn    0.46226   0.53773   0.78734   0.00000  Uiso   1.00
C883   C     0.71975   0.49339   0.75945   0.00000  Uiso   1.00
C884   C     0.84235   0.50078   0.55806   0.00000  Uiso   1.00
C885   C     0.87326   0.43715   0.56015   0.00000  Uiso   1.00
C886   C     0.94732   0.50702   0.74021   0.00000  Uiso   1.00
C887   C     0.81232   0.52938   0.91851   0.00000  Uiso   1.00
C888   C     0.99295   0.50916   0.73683   0.00000  Uiso   1.00
C889   C     0.67425   0.48998   0.76488   0.00000  Uiso   1.00
C890   C     0.84657   0.65620   0.73671   0.00000  Uiso   1.00
C891   C     0.81791   0.34572   0.76464   0.00000  Uiso   1.00
C892   C     0.82264   0.38951   0.76039   0.00000  Uiso   1.00
C893   C     0.84314   0.61128   0.74022   0.00000  Uiso   1.00
C894   C     0.82566   0.58799   0.97004   0.00000  Uiso   1.00
C895   C     0.85174   0.48151   0.62953   0.00000  Uiso   1.00
C896   C     0.81491   0.51764   0.87087   0.00000  Uiso   1.00
C897   C     0.87001   0.42452   0.51628   0.00000  Uiso   1.00
C898   C     0.85769   0.47418   0.58139   0.00000  Uiso   1.00
C899   C     0.81116   0.57152   0.93285   0.00000  Uiso   1.00
C900   C     0.84072   0.56247   0.99437   0.00000  Uiso   1.00
C901   C     0.83462   0.51852   0.98530   0.00000  Uiso   1.00
C902   C     0.82102   0.50187   0.94625   0.00000  Uiso   1.00
C903   C     0.84433   0.49068   0.51227   0.00000  Uiso   1.00
C904   C     0.85180   0.44985   0.99403   0.00000  Uiso   1.00
C905   C     0.83645   0.43361   0.95678   0.00000  Uiso   1.00
C906   C     0.81749   0.45833   0.93545   0.00000  Uiso   1.00
H907   H     0.83578   0.40080   0.94630   0.00000  Uiso   1.00
H908   H     0.78561   0.34362   0.82964   0.00000  Uiso   1.00
H909   H     0.89346   0.38887   0.96382   0.00000  Uiso   1.00
H910   H     0.82266   0.53931   0.61082   0.00000  Uiso   1.00
H911   H     0.86668   0.61078   0.52530   0.00000  Uiso   1.00
H912   H     0.79502   0.40985   0.90175   0.00000  Uiso   1.00
H913   H     0.80384   0.59280   0.91237   0.00000  Uiso   1.00
H914   H     0.82851   0.62134   0.97761   0.00000  Uiso   1.00
H915   H     0.68190   0.52670   0.71087   0.00000  Uiso   1.00
H916   H     0.91887   0.42765   0.58974   0.00000  Uiso   1.00
H917   H     0.89722   0.38350   0.56694   0.00000  Uiso   1.00
H918   H     0.99791   0.45636   0.81517   0.00000  Uiso   1.00
H919   H     0.89760   0.65545   0.68683   0.00000  Uiso   1.00
H920   H     0.75445   0.33528   0.79306   0.00000  Uiso   1.00
N921   N     0.89004   0.41169   0.58484   0.00000  Uiso   1.00
N922   N     0.78282   0.66185   0.79881   0.00000  Uiso   1.00
O923   O     0.83333   0.50000   0.75000   0.00000  Uiso   1.00
O924   O     0.82118   0.45970   0.65458   0.00000  Uiso   1.00
O925   O     0.79607   0.53724   0.84968   0.00000  Uiso   1.00
O926   O     0.87491   0.51092   0.64606   0.00000  Uiso   1.00
O927   O     0.84118   0.49213   0.84968   0.00000  Uiso   1.00
O928   O     0.98040   0.46770   0.79869   0.00000  Uiso   1.00
O929   O     0.87919   0.34266   0.70479   0.00000  Uiso   1.00
O930   O     0.88386   0.38720   0.99663   0.00000  Uiso   1.00
O931   O     0.81894   0.53253   0.58017   0.00000  Uiso   1.00
O932   O     0.86507   0.58009   0.52362   0.00000  Uiso   1.00
O933   O     0.79437   0.44034   0.90517   0.00000  Uiso   1.00
O934   O     0.84597   0.41352   0.78213   0.00000  Uiso   1.00
O935   O     0.81298   0.59418   0.77014   0.00000  Uiso   1.00
O936   O     0.74078   0.46625   0.73413   0.00000  Uiso   1.00
O937   O     0.93360   0.52605   0.71360   0.00000  Uiso   1.00
O938   O     0.73738   0.52211   0.78213   0.00000  Uiso   1.00
O939   O     0.92158   0.48559   0.77013   0.00000  Uiso   1.00
O940   O     0.80426   0.40277   0.73413   0.00000  Uiso   1.00
O941   O     0.87012   0.58953   0.71361   0.00000  Uiso   1.00
Zn942  Zn    0.86005   0.47327   0.78734   0.00000  Uiso   1.00
Zn943  Zn    0.80046   0.45791   0.71875   0.00000  Uiso   1.00
Zn944  Zn    0.87723   0.53109   0.70657   0.00000  Uiso   1.00
Zn945  Zn    0.79560   0.53773   0.78734   0.00000  Uiso   1.00
C946   C     0.05308   0.82672   0.75945   0.00000  Uiso   1.00
C947   C     0.17569   0.83411   0.55806   0.00000  Uiso   1.00
C948   C     0.20660   0.77048   0.56015   0.00000  Uiso   1.00
C949   C     0.28066   0.84035   0.74021   0.00000  Uiso   1.00
C950   C     0.14566   0.86272   0.91851   0.00000  Uiso   1.00
C951   C     0.32629   0.84249   0.73683   0.00000  Uiso   1.00
C952   C     0.00758   0.82331   0.76488   0.00000  Uiso   1.00
C953   C     0.17990   0.98954   0.73671   0.00000  Uiso   1.00
C954   C     0.15124   0.67905   0.76464   0.00000  Uiso   1.00
C955   C     0.15597   0.72284   0.76039   0.00000  Uiso   1.00
C956   C     0.17647   0.94461   0.74022   0.00000  Uiso   1.00
C957   C     0.15899   0.92132   0.97004   0.00000  Uiso   1.00
C958   C     0.18508   0.81484   0.62953   0.00000  Uiso   1.00
C959   C     0.14824   0.85097   0.87087   0.00000  Uiso   1.00
C960   C     0.20334   0.75786   0.51628   0.00000  Uiso   1.00
C961   C     0.19103   0.80752   0.58139   0.00000  Uiso   1.00
C962   C     0.14450   0.90485   0.93285   0.00000  Uiso   1.00
C963   C     0.17405   0.89580   0.99437   0.00000  Uiso   1.00
C964   C     0.16795   0.85185   0.98530   0.00000  Uiso   1.00
C965   C     0.15436   0.83521   0.94625   0.00000  Uiso   1.00
C966   C     0.17766   0.82401   0.51227   0.00000  Uiso   1.00
C967   C     0.18513   0.78318   0.99403   0.00000  Uiso   1.00
C968   C     0.16978   0.76695   0.95678   0.00000  Uiso   1.00
C969   C     0.15082   0.79166   0.93545   0.00000  Uiso   1.00
H970   H     0.16912   0.73413   0.94630   0.00000  Uiso   1.00
H971   H     0.11894   0.67695   0.82964   0.00000  Uiso   1.00
H972   H     0.22680   0.72221   0.96382   0.00000  Uiso   1.00
H973   H     0.15600   0.87264   0.61082   0.00000  Uiso   1.00
H974   H     0.20001   0.94412   0.52530   0.00000  Uiso   1.00
H975   H     0.12835   0.74319   0.90175   0.00000  Uiso   1.00
H976   H     0.13717   0.92613   0.91237   0.00000  Uiso   1.00
H977   H     0.16184   0.95467   0.97761   0.00000  Uiso   1.00
H978   H     0.01523   0.86003   0.71087   0.00000  Uiso   1.00
H979   H     0.25221   0.76098   0.58974   0.00000  Uiso   1.00
H980   H     0.23056   0.71683   0.56694   0.00000  Uiso   1.00
H981   H     0.33125   0.78970   0.81517   0.00000  Uiso   1.00
H982   H     0.23094   0.98879   0.68683   0.00000  Uiso   1.00
H983   H     0.08778   0.66861   0.79306   0.00000  Uiso   1.00
N984   N     0.22337   0.74503   0.58484   0.00000  Uiso   1.00
N985   N     0.11615   0.99519   0.79881   0.00000  Uiso   1.00
O986   O     0.16667   0.83333   0.75000   0.00000  Uiso   1.00
O987   O     0.15451   0.79304   0.65458   0.00000  Uiso   1.00
O988   O     0.12940   0.87058   0.84968   0.00000  Uiso   1.00
O989   O     0.20824   0.84425   0.64606   0.00000  Uiso   1.00
O990   O     0.17451   0.82546   0.84968   0.00000  Uiso   1.00
O991   O     0.31373   0.80104   0.79869   0.00000  Uiso   1.00
O992   O     0.21253   0.67600   0.70479   0.00000  Uiso   1.00
O993   O     0.21719   0.72053   0.99663   0.00000  Uiso   1.00
O994   O     0.15228   0.86586   0.58017   0.00000  Uiso   1.00
O995   O     0.19840   0.91342   0.52362   0.00000  Uiso   1.00
O996   O     0.12771   0.77367   0.90517   0.00000  Uiso   1.00
O997   O     0.17930   0.74686   0.78213   0.00000  Uiso   1.00
O998   O     0.14632   0.92751   0.77014   0.00000  Uiso   1.00
O999   O     0.07412   0.79958   0.73413   0.00000  Uiso   1.00
O1000  O     0.26693   0.85939   0.71360   0.00000  Uiso   1.00
O1001  O     0.07071   0.85544   0.78213   0.00000  Uiso   1.00
O1002  O     0.25491   0.81892   0.77013   0.00000  Uiso   1.00
O1003  O     0.13760   0.73610   0.73413   0.00000  Uiso   1.00
O1004  O     0.20345   0.92286   0.71361   0.00000  Uiso   1.00
Zn1005 Zn    0.19338   0.80661   0.78734   0.00000  Uiso   1.00
Zn1006 Zn    0.13379   0.79124   0.71875   0.00000  Uiso   1.00
Zn1007 Zn    0.21056   0.86442   0.70657   0.00000  Uiso   1.00
Zn1008 Zn    0.12893   0.87106   0.78734   0.00000  Uiso   1.00
C1009  C     0.38642   0.82672   0.75945   0.00000  Uiso   1.00
C1010  C     0.50902   0.83411   0.55806   0.00000  Uiso   1.00
C1011  C     0.53993   0.77048   0.56015   0.00000  Uiso   1.00
C1012  C     0.61399   0.84035   0.74021   0.00000  Uiso   1.00
C1013  C     0.47899   0.86272   0.91851   0.00000  Uiso   1.00
C1014  C     0.65962   0.84249   0.73683   0.00000  Uiso   1.00
C1015  C     0.34092   0.82331   0.76488   0.00000  Uiso   1.00
C1016  C     0.51323   0.98954   0.73671   0.00000  Uiso   1.00
C1017  C     0.48458   0.67905   0.76464   0.00000  Uiso   1.00
C1018  C     0.48931   0.72284   0.76039   0.00000  Uiso   1.00
C1019  C     0.50980   0.94461   0.74022   0.00000  Uiso   1.00
C1020  C     0.49233   0.92132   0.97004   0.00000  Uiso   1.00
C1021  C     0.51841   0.81484   0.62953   0.00000  Uiso   1.00
C1022  C     0.48157   0.85097   0.87087   0.00000  Uiso   1.00
C1023  C     0.53667   0.75786   0.51628   0.00000  Uiso   1.00
C1024  C     0.52436   0.80752   0.58139   0.00000  Uiso   1.00
C1025  C     0.47783   0.90485   0.93285   0.00000  Uiso   1.00
C1026  C     0.50738   0.89580   0.99437   0.00000  Uiso   1.00
C1027  C     0.50128   0.85185   0.98530   0.00000  Uiso   1.00
C1028  C     0.48769   0.83521   0.94625   0.00000  Uiso   1.00
C1029  C     0.51100   0.82401   0.51227   0.00000  Uiso   1.00
C1030  C     0.51847   0.78318   0.99403   0.00000  Uiso   1.00
C1031  C     0.50311   0.76695   0.95678   0.00000  Uiso   1.00
C1032  C     0.48415   0.79166   0.93545   0.00000  Uiso   1.00
H1033  H     0.50245   0.73413   0.94630   0.00000  Uiso   1.00
H1034  H     0.45227   0.67695   0.82964   0.00000  Uiso   1.00
H1035  H     0.56013   0.72221   0.96382   0.00000  Uiso   1.00
H1036  H     0.48933   0.87264   0.61082   0.00000  Uiso   1.00
H1037  H     0.53335   0.94412   0.52530   0.00000  Uiso   1.00
H1038  H     0.46169   0.74319   0.90175   0.00000  Uiso   1.00
H1039  H     0.47050   0.92613   0.91237   0.00000  Uiso   1.00
H1040  H     0.49517   0.95467   0.97761   0.00000  Uiso   1.00
H1041  H     0.34856   0.86003   0.71087   0.00000  Uiso   1.00
H1042  H     0.58554   0.76098   0.58974   0.00000  Uiso   1.00
H1043  H     0.56389   0.71683   0.56694   0.00000  Uiso   1.00
H1044  H     0.66458   0.78970   0.81517   0.00000  Uiso   1.00
H1045  H     0.56427   0.98879   0.68683   0.00000  Uiso   1.00
H1046  H     0.42112   0.66861   0.79306   0.00000  Uiso   1.00
N1047  N     0.55671   0.74503   0.58484   0.00000  Uiso   1.00
N1048  N     0.44949   0.99519   0.79881   0.00000  Uiso   1.00
O1049  O     0.50000   0.83333   0.75000   0.00000  Uiso   1.00
O1050  O     0.48784   0.79304   0.65458   0.00000  Uiso   1.00
O1051  O     0.46274   0.87058   0.84968   0.00000  Uiso   1.00
O1052  O     0.54157   0.84425   0.64606   0.00000  Uiso   1.00
O1053  O     0.50785   0.82546   0.84968   0.00000  Uiso   1.00
O1054  O     0.64706   0.80104   0.79869   0.00000  Uiso   1.00
O1055  O     0.54586   0.67600   0.70479   0.00000  Uiso   1.00
O1056  O     0.55052   0.72053   0.99663   0.00000  Uiso   1.00
O1057  O     0.48561   0.86586   0.58017   0.00000  Uiso   1.00
O1058  O     0.53173   0.91342   0.52362   0.00000  Uiso   1.00
O1059  O     0.46104   0.77367   0.90517   0.00000  Uiso   1.00
O1060  O     0.51264   0.74686   0.78213   0.00000  Uiso   1.00
O1061  O     0.47965   0.92751   0.77014   0.00000  Uiso   1.00
O1062  O     0.40745   0.79958   0.73413   0.00000  Uiso   1.00
O1063  O     0.60026   0.85939   0.71360   0.00000  Uiso   1.00
O1064  O     0.40405   0.85544   0.78213   0.00000  Uiso   1.00
O1065  O     0.58824   0.81892   0.77013   0.00000  Uiso   1.00
O1066  O     0.47093   0.73610   0.73413   0.00000  Uiso   1.00
O1067  O     0.53678   0.92286   0.71361   0.00000  Uiso   1.00
Zn1068 Zn    0.52672   0.80661   0.78734   0.00000  Uiso   1.00
Zn1069 Zn    0.46713   0.79124   0.71875   0.00000  Uiso   1.00
Zn1070 Zn    0.54389   0.86442   0.70657   0.00000  Uiso   1.00
Zn1071 Zn    0.46226   0.87106   0.78734   0.00000  Uiso   1.00
C1072  C     0.71975   0.82672   0.75945   0.00000  Uiso   1.00
C1073  C     0.84235   0.83411   0.55806   0.00000  Uiso   1.00
C1074  C     0.87326   0.77048   0.56015   0.00000  Uiso   1.00
C1075  C     0.94732   0.84035   0.74021   0.00000  Uiso   1.00
C1076  C     0.81232   0.86272   0.91851   0.00000  Uiso   1.00
C1077  C     0.99295   0.84249   0.73683   0.00000  Uiso   1.00
C1078  C     0.67425   0.82331   0.76488   0.00000  Uiso   1.00
C1079  C     0.84657   0.98954   0.73671   0.00000  Uiso   1.00
C1080  C     0.81791   0.67905   0.76464   0.00000  Uiso   1.00
C1081  C     0.82264   0.72284   0.76039   0.00000  Uiso   1.00
C1082  C     0.84314   0.94461   0.74022   0.00000  Uiso   1.00
C1083  C     0.82566   0.92132   0.97004   0.00000  Uiso   1.00
C1084  C     0.85174   0.81484   0.62953   0.00000  Uiso   1.00
C1085  C     0.81491   0.85097   0.87087   0.00000  Uiso   1.00
C1086  C     0.87001   0.75786   0.51628   0.00000  Uiso   1.00
C1087  C     0.85769   0.80752   0.58139   0.00000  Uiso   1.00
C1088  C     0.81116   0.90485   0.93285   0.00000  Uiso   1.00
C1089  C     0.84072   0.89580   0.99437   0.00000  Uiso   1.00
C1090  C     0.83462   0.85185   0.98530   0.00000  Uiso   1.00
C1091  C     0.82102   0.83521   0.94625   0.00000  Uiso   1.00
C1092  C     0.84433   0.82401   0.51227   0.00000  Uiso   1.00
C1093  C     0.85180   0.78318   0.99403   0.00000  Uiso   1.00
C1094  C     0.83645   0.76695   0.95678   0.00000  Uiso   1.00
C1095  C     0.81749   0.79166   0.93545   0.00000  Uiso   1.00
H1096  H     0.83578   0.73413   0.94630   0.00000  Uiso   1.00
H1097  H     0.78561   0.67695   0.82964   0.00000  Uiso   1.00
H1098  H     0.89346   0.72221   0.96382   0.00000  Uiso   1.00
H1099  H     0.82266   0.87264   0.61082   0.00000  Uiso   1.00
H1100  H     0.86668   0.94412   0.52530   0.00000  Uiso   1.00
H1101  H     0.79502   0.74319   0.90175   0.00000  Uiso   1.00
H1102  H     0.80384   0.92613   0.91237   0.00000  Uiso   1.00
H1103  H     0.82851   0.95467   0.97761   0.00000  Uiso   1.00
H1104  H     0.68190   0.86003   0.71087   0.00000  Uiso   1.00
H1105  H     0.91887   0.76098   0.58974   0.00000  Uiso   1.00
H1106  H     0.89722   0.71683   0.56694   0.00000  Uiso   1.00
H1107  H     0.99791   0.78970   0.81517   0.00000  Uiso   1.00
H1108  H     0.89760   0.98879   0.68683   0.00000  Uiso   1.00
H1109  H     0.75445   0.66861   0.79306   0.00000  Uiso   1.00
N1110  N     0.89004   0.74503   0.58484   0.00000  Uiso   1.00
N1111  N     0.78282   0.99519   0.79881   0.00000  Uiso   1.00
O1112  O     0.83333   0.83333   0.75000   0.00000  Uiso   1.00
O1113  O     0.82118   0.79304   0.65458   0.00000  Uiso   1.00
O1114  O     0.79607   0.87058   0.84968   0.00000  Uiso   1.00
O1115  O     0.87491   0.84425   0.64606   0.00000  Uiso   1.00
O1116  O     0.84118   0.82546   0.84968   0.00000  Uiso   1.00
O1117  O     0.98040   0.80104   0.79869   0.00000  Uiso   1.00
O1118  O     0.87919   0.67600   0.70479   0.00000  Uiso   1.00
O1119  O     0.88386   0.72053   0.99663   0.00000  Uiso   1.00
O1120  O     0.81894   0.86586   0.58017   0.00000  Uiso   1.00
O1121  O     0.86507   0.91342   0.52362   0.00000  Uiso   1.00
O1122  O     0.79437   0.77367   0.90517   0.00000  Uiso   1.00
O1123  O     0.84597   0.74686   0.78213   0.00000  Uiso   1.00
O1124  O     0.81298   0.92751   0.77014   0.00000  Uiso   1.00
O1125  O     0.74078   0.79958   0.73413   0.00000  Uiso   1.00
O1126  O     0.93360   0.85939   0.71360   0.00000  Uiso   1.00
O1127  O     0.73738   0.85544   0.78213   0.00000  Uiso   1.00
O1128  O     0.92158   0.81892   0.77013   0.00000  Uiso   1.00
O1129  O     0.80426   0.73610   0.73413   0.00000  Uiso   1.00
O1130  O     0.87012   0.92286   0.71361   0.00000  Uiso   1.00
Zn1131 Zn    0.86005   0.80661   0.78734   0.00000  Uiso   1.00
Zn1132 Zn    0.80046   0.79124   0.71875   0.00000  Uiso   1.00
Zn1133 Zn    0.87723   0.86442   0.70657   0.00000  Uiso   1.00
Zn1134 Zn    0.79560   0.87106   0.78734   0.00000  Uiso   1.00
loop_
_geom_bond_atom_site_label_1
_geom_bond_atom_site_label_2
_geom_bond_distance
_geom_bond_site_symmetry_2
_ccdc_geom_bond_type
C1     O54     1.270   .     A
C1     O56     1.269   .     A
C1     C7      1.439   .     S
C2     O49     1.388   .     S
C2     C16     1.411   .     A
C2     C21     1.410   .     A
C3     N39     1.442   .     S
C3     C15     1.405   .     A
C3     C16     1.407   .     A
C4     O55     1.290   .     A
C4     C6      1.457   .     S
C4     O57     1.276   .     A
C5     C20     1.418   .     A
C5     C14     1.469   .     S
C5     C17     1.400   .     A
C6     C70     1.345   .     S
C6     H96     1.088   .     S
C7     C132    1.345   1_455 S
C7     O172    1.384   1_455 S
C8     C11     1.469   .     S
C8     C198    1.348   .     S
C8     O236    1.388   .     S
C9     C10     1.433   .     S
C9     C386    1.348   1_545 S
C9     N418    1.437   1_545 S
C10    O52     1.275   .     A
C10    O58     1.275   .     A
C11    O53     1.274   .     A
C11    O59     1.277   .     A
C12    C17     1.385   .     A
C12    H32     1.083   .     S
C12    C18     1.402   .     A
C13    O42     1.273   .     A
C13    C16     1.453   .     S
C13    O44     1.279   .     A
C14    O45     1.285   .     A
C14    O43     1.283   .     A
C15    C589    1.416   1_554 S
C15    O615    1.382   1_554 S
C17    H31     1.084   .     S
C18    C19     1.425   .     A
C18    O617    1.383   .     S
C19    C20     1.423   .     A
C19    C588    1.424   .     S
C20    C24     1.418   .     A
C21    C586    1.424   1_554 S
C21    C589    1.417   1_554 S
C22    C23     1.399   .     A
C22    C588    1.417   .     S
C22    C582    1.416   .     S
C23    C24     1.399   .     A
C23    H25     1.083   .     S
C24    O51     1.384   .     S
H26    N418    1.046   1_545 S
H27    O48     0.990   .     S
H28    O49     0.987   .     S
H29    O50     0.992   .     S
H30    O51     0.992   .     S
H33    C132    1.088   1_455 S
H34    N39     1.045   .     S
H35    N39     1.044   .     S
H36    O46     0.992   .     S
H37    O236    0.990   .     S
H38    N418    1.046   1_545 S
N40    H215    1.046   .     S
N40    H227    1.046   .     S
N40    C198    1.437   .     S
O41    Zn61    1.947   .     S
O41    Zn62    1.943   .     S
O41    Zn63    1.937   .     S
O41    Zn60    1.963   .     S
O42    Zn61    1.935   .     S
O43    Zn63    1.943   .     S
O44    Zn62    1.937   .     S
O45    Zn60    1.930   .     S
O46    C70     1.384   .     S
O47    H415    0.990   1_545 S
O47    C386    1.388   1_545 S
O48    C582    1.382   .     S
O50    C585    1.383   1_554 S
O52    Zn60    1.936   .     S
O53    Zn63    1.940   .     S
O54    Zn61    1.932   .     S
O55    Zn62    1.941   .     S
O56    Zn63    1.937   .     S
O57    Zn60    1.931   .     S
O58    Zn61    1.944   .     S
O59    Zn62    1.937   .     S
C64    O117    1.270   .     A
C64    O119    1.269   .     A
C64    C70     1.439   .     S
C65    O112    1.388   .     S
C65    C79     1.411   .     A
C65    C84     1.410   .     A
C66    N102    1.442   .     S
C66    C78     1.405   .     A
C66    C79     1.407   .     A
C67    O118    1.290   .     A
C67    C69     1.457   .     S
C67    O120    1.276   .     A
C68    C83     1.418   .     A
C68    C77     1.469   .     S
C68    C80     1.400   .     A
C69    C133    1.345   .     S
C69    H159    1.088   .     S
C71    C74     1.469   .     S
C71    C261    1.348   .     S
C71    O299    1.388   .     S
C72    C73     1.433   .     S
C72    C449    1.348   1_545 S
C72    N481    1.437   1_545 S
C73    O115    1.275   .     A
C73    O121    1.275   .     A
C74    O116    1.274   .     A
C74    O122    1.277   .     A
C75    C80     1.385   .     A
C75    H95     1.083   .     S
C75    C81     1.402   .     A
C76    O105    1.273   .     A
C76    C79     1.453   .     S
C76    O107    1.279   .     A
C77    O108    1.285   .     A
C77    O106    1.283   .     A
C78    C652    1.416   1_554 S
C78    O678    1.382   1_554 S
C80    H94     1.084   .     S
C81    C82     1.425   .     A
C81    O680    1.383   .     S
C82    C83     1.423   .     A
C82    C651    1.424   .     S
C83    C87     1.418   .     A
C84    C649    1.424   1_554 S
C84    C652    1.417   1_554 S
C85    C86     1.399   .     A
C85    C651    1.417   .     S
C85    C645    1.416   .     S
C86    C87     1.399   .     A
C86    H88     1.083   .     S
C87    O114    1.384   .     S
H89    N481    1.046   1_545 S
H90    O111    0.990   .     S
H91    O112    0.987   .     S
H92    O113    0.992   .     S
H93    O114    0.992   .     S
H97    N102    1.045   .     S
H98    N102    1.044   .     S
H99    O109    0.992   .     S
H100   O299    0.990   .     S
H101   N481    1.046   1_545 S
N103   H278    1.046   .     S
N103   H290    1.046   .     S
N103   C261    1.437   .     S
O104   Zn124   1.947   .     S
O104   Zn125   1.943   .     S
O104   Zn126   1.937   .     S
O104   Zn123   1.963   .     S
O105   Zn124   1.935   .     S
O106   Zn126   1.943   .     S
O107   Zn125   1.937   .     S
O108   Zn123   1.930   .     S
O109   C133    1.384   .     S
O110   H478    0.990   1_545 S
O110   C449    1.388   1_545 S
O111   C645    1.382   .     S
O113   C648    1.383   1_554 S
O115   Zn123   1.936   .     S
O116   Zn126   1.940   .     S
O117   Zn124   1.932   .     S
O118   Zn125   1.941   .     S
O119   Zn126   1.937   .     S
O120   Zn123   1.931   .     S
O121   Zn124   1.944   .     S
O122   Zn125   1.937   .     S
C127   O180    1.270   .     A
C127   O182    1.269   .     A
C127   C133    1.439   .     S
C128   O175    1.388   .     S
C128   C142    1.411   .     A
C128   C147    1.410   .     A
C129   N165    1.442   .     S
C129   C141    1.405   .     A
C129   C142    1.407   .     A
C130   O181    1.290   .     A
C130   C132    1.457   .     S
C130   O183    1.276   .     A
C131   C146    1.418   .     A
C131   C140    1.469   .     S
C131   C143    1.400   .     A
C132   C7      1.345   1_655 S
C132   H33     1.088   1_655 S
C134   C137    1.469   .     S
C134   C324    1.348   .     S
C134   O362    1.388   .     S
C135   C136    1.433   .     S
C135   C512    1.348   1_545 S
C135   N544    1.437   1_545 S
C136   O178    1.275   .     A
C136   O184    1.275   .     A
C137   O179    1.274   .     A
C137   O185    1.277   .     A
C138   C143    1.385   .     A
C138   H158    1.083   .     S
C138   C144    1.402   .     A
C139   O168    1.273   .     A
C139   C142    1.453   .     S
C139   O170    1.279   .     A
C140   O171    1.285   .     A
C140   O169    1.283   .     A
C141   C715    1.416   1_554 S
C141   O741    1.382   1_554 S
C143   H157    1.084   .     S
C144   C145    1.425   .     A
C144   O743    1.383   .     S
C145   C146    1.423   .     A
C145   C714    1.424   .     S
C146   C150    1.418   .     A
C147   C712    1.424   1_554 S
C147   C715    1.417   1_554 S
C148   C149    1.399   .     A
C148   C714    1.417   .     S
C148   C708    1.416   .     S
C149   C150    1.399   .     A
C149   H151    1.083   .     S
C150   O177    1.384   .     S
H152   N544    1.046   1_545 S
H153   O174    0.990   .     S
H154   O175    0.987   .     S
H155   O176    0.992   .     S
H156   O177    0.992   .     S
H160   N165    1.045   .     S
H161   N165    1.044   .     S
H162   O172    0.992   .     S
H163   O362    0.990   .     S
H164   N544    1.046   1_545 S
N166   H341    1.046   .     S
N166   H353    1.046   .     S
N166   C324    1.437   .     S
O167   Zn187   1.947   .     S
O167   Zn188   1.943   .     S
O167   Zn189   1.937   .     S
O167   Zn186   1.963   .     S
O168   Zn187   1.935   .     S
O169   Zn189   1.943   .     S
O170   Zn188   1.937   .     S
O171   Zn186   1.930   .     S
O172   C7      1.384   1_655 S
O173   H541    0.990   1_545 S
O173   C512    1.388   1_545 S
O174   C708    1.382   .     S
O176   C711    1.383   1_554 S
O178   Zn186   1.936   .     S
O179   Zn189   1.940   .     S
O180   Zn187   1.932   .     S
O181   Zn188   1.941   .     S
O182   Zn189   1.937   .     S
O183   Zn186   1.931   .     S
O184   Zn187   1.944   .     S
O185   Zn188   1.937   .     S
C190   O243    1.270   .     A
C190   O245    1.269   .     A
C190   C196    1.439   .     S
C191   O238    1.388   .     S
C191   C205    1.411   .     A
C191   C210    1.410   .     A
C192   N228    1.442   .     S
C192   C204    1.405   .     A
C192   C205    1.407   .     A
C193   O244    1.290   .     A
C193   C195    1.457   .     S
C193   O246    1.276   .     A
C194   C209    1.418   .     A
C194   C203    1.469   .     S
C194   C206    1.400   .     A
C195   C259    1.345   .     S
C195   H285    1.088   .     S
C196   C321    1.345   1_455 S
C196   O361    1.384   1_455 S
C197   C200    1.469   .     S
C197   C387    1.348   .     S
C197   O425    1.388   .     S
C198   C199    1.433   .     S
C199   O241    1.275   .     A
C199   O247    1.275   .     A
C200   O242    1.274   .     A
C200   O248    1.277   .     A
C201   C206    1.385   .     A
C201   H221    1.083   .     S
C201   C207    1.402   .     A
C202   O231    1.273   .     A
C202   C205    1.453   .     S
C202   O233    1.279   .     A
C203   O234    1.285   .     A
C203   O232    1.283   .     A
C204   C778    1.416   1_554 S
C204   O804    1.382   1_554 S
C206   H220    1.084   .     S
C207   C208    1.425   .     A
C207   O806    1.383   .     S
C208   C209    1.423   .     A
C208   C777    1.424   .     S
C209   C213    1.418   .     A
C210   C775    1.424   1_554 S
C210   C778    1.417   1_554 S
C211   C212    1.399   .     A
C211   C777    1.417   .     S
C211   C771    1.416   .     S
C212   C213    1.399   .     A
C212   H214    1.083   .     S
C213   O240    1.384   .     S
H216   O237    0.990   .     S
H217   O238    0.987   .     S
H218   O239    0.992   .     S
H219   O240    0.992   .     S
H222   C321    1.088   1_455 S
H223   N228    1.045   .     S
H224   N228    1.044   .     S
H225   O235    0.992   .     S
H226   O425    0.990   .     S
N229   H404    1.046   .     S
N229   H416    1.046   .     S
N229   C387    1.437   .     S
O230   Zn250   1.947   .     S
O230   Zn251   1.943   .     S
O230   Zn252   1.937   .     S
O230   Zn249   1.963   .     S
O231   Zn250   1.935   .     S
O232   Zn252   1.943   .     S
O233   Zn251   1.937   .     S
O234   Zn249   1.930   .     S
O235   C259    1.384   .     S
O237   C771    1.382   .     S
O239   C774    1.383   1_554 S
O241   Zn249   1.936   .     S
O242   Zn252   1.940   .     S
O243   Zn250   1.932   .     S
O244   Zn251   1.941   .     S
O245   Zn252   1.937   .     S
O246   Zn249   1.931   .     S
O247   Zn250   1.944   .     S
O248   Zn251   1.937   .     S
C253   O306    1.270   .     A
C253   O308    1.269   .     A
C253   C259    1.439   .     S
C254   O301    1.388   .     S
C254   C268    1.411   .     A
C254   C273    1.410   .     A
C255   N291    1.442   .     S
C255   C267    1.405   .     A
C255   C268    1.407   .     A
C256   O307    1.290   .     A
C256   C258    1.457   .     S
C256   O309    1.276   .     A
C257   C272    1.418   .     A
C257   C266    1.469   .     S
C257   C269    1.400   .     A
C258   C322    1.345   .     S
C258   H348    1.088   .     S
C260   C263    1.469   .     S
C260   C450    1.348   .     S
C260   O488    1.388   .     S
C261   C262    1.433   .     S
C262   O304    1.275   .     A
C262   O310    1.275   .     A
C263   O305    1.274   .     A
C263   O311    1.277   .     A
C264   C269    1.385   .     A
C264   H284    1.083   .     S
C264   C270    1.402   .     A
C265   O294    1.273   .     A
C265   C268    1.453   .     S
C265   O296    1.279   .     A
C266   O297    1.285   .     A
C266   O295    1.283   .     A
C267   C841    1.416   1_554 S
C267   O867    1.382   1_554 S
C269   H283    1.084   .     S
C270   C271    1.425   .     A
C270   O869    1.383   .     S
C271   C272    1.423   .     A
C271   C840    1.424   .     S
C272   C276    1.418   .     A
C273   C838    1.424   1_554 S
C273   C841    1.417   1_554 S
C274   C275    1.399   .     A
C274   C840    1.417   .     S
C274   C834    1.416   .     S
C275   C276    1.399   .     A
C275   H277    1.083   .     S
C276   O303    1.384   .     S
H279   O300    0.990   .     S
H280   O301    0.987   .     S
H281   O302    0.992   .     S
H282   O303    0.992   .     S
H286   N291    1.045   .     S
H287   N291    1.044   .     S
H288   O298    0.992   .     S
H289   O488    0.990   .     S
N292   H467    1.046   .     S
N292   H479    1.046   .     S
N292   C450    1.437   .     S
O293   Zn313   1.947   .     S
O293   Zn314   1.943   .     S
O293   Zn315   1.937   .     S
O293   Zn312   1.963   .     S
O294   Zn313   1.935   .     S
O295   Zn315   1.943   .     S
O296   Zn314   1.937   .     S
O297   Zn312   1.930   .     S
O298   C322    1.384   .     S
O300   C834    1.382   .     S
O302   C837    1.383   1_554 S
O304   Zn312   1.936   .     S
O305   Zn315   1.940   .     S
O306   Zn313   1.932   .     S
O307   Zn314   1.941   .     S
O308   Zn315   1.937   .     S
O309   Zn312   1.931   .     S
O310   Zn313   1.944   .     S
O311   Zn314   1.937   .     S
C316   O369    1.270   .     A
C316   O371    1.269   .     A
C316   C322    1.439   .     S
C317   O364    1.388   .     S
C317   C331    1.411   .     A
C317   C336    1.410   .     A
C318   N354    1.442   .     S
C318   C330    1.405   .     A
C318   C331    1.407   .     A
C319   O370    1.290   .     A
C319   C321    1.457   .     S
C319   O372    1.276   .     A
C320   C335    1.418   .     A
C320   C329    1.469   .     S
C320   C332    1.400   .     A
C321   C196    1.345   1_655 S
C321   H222    1.088   1_655 S
C323   C326    1.469   .     S
C323   C513    1.348   .     S
C323   O551    1.388   .     S
C324   C325    1.433   .     S
C325   O367    1.275   .     A
C325   O373    1.275   .     A
C326   O368    1.274   .     A
C326   O374    1.277   .     A
C327   C332    1.385   .     A
C327   H347    1.083   .     S
C327   C333    1.402   .     A
C328   O357    1.273   .     A
C328   C331    1.453   .     S
C328   O359    1.279   .     A
C329   O360    1.285   .     A
C329   O358    1.283   .     A
C330   C904    1.416   1_554 S
C330   O930    1.382   1_554 S
C332   H346    1.084   .     S
C333   C334    1.425   .     A
C333   O932    1.383   .     S
C334   C335    1.423   .     A
C334   C903    1.424   .     S
C335   C339    1.418   .     A
C336   C901    1.424   1_554 S
C336   C904    1.417   1_554 S
C337   C338    1.399   .     A
C337   C903    1.417   .     S
C337   C897    1.416   .     S
C338   C339    1.399   .     A
C338   H340    1.083   .     S
C339   O366    1.384   .     S
H342   O363    0.990   .     S
H343   O364    0.987   .     S
H344   O365    0.992   .     S
H345   O366    0.992   .     S
H349   N354    1.045   .     S
H350   N354    1.044   .     S
H351   O361    0.992   .     S
H352   O551    0.990   .     S
N355   H530    1.046   .     S
N355   H542    1.046   .     S
N355   C513    1.437   .     S
O356   Zn376   1.947   .     S
O356   Zn377   1.943   .     S
O356   Zn378   1.937   .     S
O356   Zn375   1.963   .     S
O357   Zn376   1.935   .     S
O358   Zn378   1.943   .     S
O359   Zn377   1.937   .     S
O360   Zn375   1.930   .     S
O361   C196    1.384   1_655 S
O363   C897    1.382   .     S
O365   C900    1.383   1_554 S
O367   Zn375   1.936   .     S
O368   Zn378   1.940   .     S
O369   Zn376   1.932   .     S
O370   Zn377   1.941   .     S
O371   Zn378   1.937   .     S
O372   Zn375   1.931   .     S
O373   Zn376   1.944   .     S
O374   Zn377   1.937   .     S
C379   O432    1.270   .     A
C379   O434    1.269   .     A
C379   C385    1.439   .     S
C380   O427    1.388   .     S
C380   C394    1.411   .     A
C380   C399    1.410   .     A
C381   N417    1.442   .     S
C381   C393    1.405   .     A
C381   C394    1.407   .     A
C382   O433    1.290   .     A
C382   C384    1.457   .     S
C382   O435    1.276   .     A
C383   C398    1.418   .     A
C383   C392    1.469   .     S
C383   C395    1.400   .     A
C384   C448    1.345   .     S
C384   H474    1.088   .     S
C385   C510    1.345   1_455 S
C385   O550    1.384   1_455 S
C386   C389    1.469   .     S
C386   C9      1.348   1_565 S
C386   O47     1.388   1_565 S
C387   C388    1.433   .     S
C388   O430    1.275   .     A
C388   O436    1.275   .     A
C389   O431    1.274   .     A
C389   O437    1.277   .     A
C390   C395    1.385   .     A
C390   H410    1.083   .     S
C390   C396    1.402   .     A
C391   O420    1.273   .     A
C391   C394    1.453   .     S
C391   O422    1.279   .     A
C392   O423    1.285   .     A
C392   O421    1.283   .     A
C393   C967    1.416   1_554 S
C393   O993    1.382   1_554 S
C395   H409    1.084   .     S
C396   C397    1.425   .     A
C396   O995    1.383   .     S
C397   C398    1.423   .     A
C397   C966    1.424   .     S
C398   C402    1.418   .     A
C399   C964    1.424   1_554 S
C399   C967    1.417   1_554 S
C400   C401    1.399   .     A
C400   C966    1.417   .     S
C400   C960    1.416   .     S
C401   C402    1.399   .     A
C401   H403    1.083   .     S
C402   O429    1.384   .     S
H405   O426    0.990   .     S
H406   O427    0.987   .     S
H407   O428    0.992   .     S
H408   O429    0.992   .     S
H411   C510    1.088   1_455 S
H412   N417    1.045   .     S
H413   N417    1.044   .     S
H414   O424    0.992   .     S
H415   O47     0.990   1_565 S
N418   H26     1.046   1_565 S
N418   H38     1.046   1_565 S
N418   C9      1.437   1_565 S
O419   Zn439   1.947   .     S
O419   Zn440   1.943   .     S
O419   Zn441   1.937   .     S
O419   Zn438   1.963   .     S
O420   Zn439   1.935   .     S
O421   Zn441   1.943   .     S
O422   Zn440   1.937   .     S
O423   Zn438   1.930   .     S
O424   C448    1.384   .     S
O426   C960    1.382   .     S
O428   C963    1.383   1_554 S
O430   Zn438   1.936   .     S
O431   Zn441   1.940   .     S
O432   Zn439   1.932   .     S
O433   Zn440   1.941   .     S
O434   Zn441   1.937   .     S
O435   Zn438   1.931   .     S
O436   Zn439   1.944   .     S
O437   Zn440   1.937   .     S
C442   O495    1.270   .     A
C442   O497    1.269   .     A
C442   C448    1.439   .     S
C443   O490    1.388   .     S
C443   C457    1.411   .     A
C443   C462    1.410   .     A
C444   N480    1.442   .     S
C444   C456    1.405   .     A
C444   C457    1.407   .     A
C445   O496    1.290   .     A
C445   C447    1.457   .     S
C445   O498    1.276   .     A
C446   C461    1.418   .     A
C446   C455    1.469   .     S
C446   C458    1.400   .     A
C447   C511    1.345   .     S
C447   H537    1.088   .     S
C449   C452    1.469   .     S
C449   C72     1.348   1_565 S
C449   O110    1.388   1_565 S
C450   C451    1.433   .     S
C451   O493    1.275   .     A
C451   O499    1.275   .     A
C452   O494    1.274   .     A
C452   O500    1.277   .     A
C453   C458    1.385   .     A
C453   H473    1.083   .     S
C453   C459    1.402   .     A
C454   O483    1.273   .     A
C454   C457    1.453   .     S
C454   O485    1.279   .     A
C455   O486    1.285   .     A
C455   O484    1.283   .     A
C456   C1030   1.416   1_554 S
C456   O1056   1.382   1_554 S
C458   H472    1.084   .     S
C459   C460    1.425   .     A
C459   O1058   1.383   .     S
C460   C461    1.423   .     A
C460   C1029   1.424   .     S
C461   C465    1.418   .     A
C462   C1027   1.424   1_554 S
C462   C1030   1.417   1_554 S
C463   C464    1.399   .     A
C463   C1029   1.417   .     S
C463   C1023   1.416   .     S
C464   C465    1.399   .     A
C464   H466    1.083   .     S
C465   O492    1.384   .     S
H468   O489    0.990   .     S
H469   O490    0.987   .     S
H470   O491    0.992   .     S
H471   O492    0.992   .     S
H475   N480    1.045   .     S
H476   N480    1.044   .     S
H477   O487    0.992   .     S
H478   O110    0.990   1_565 S
N481   H89     1.046   1_565 S
N481   H101    1.046   1_565 S
N481   C72     1.437   1_565 S
O482   Zn502   1.947   .     S
O482   Zn503   1.943   .     S
O482   Zn504   1.937   .     S
O482   Zn501   1.963   .     S
O483   Zn502   1.935   .     S
O484   Zn504   1.943   .     S
O485   Zn503   1.937   .     S
O486   Zn501   1.930   .     S
O487   C511    1.384   .     S
O489   C1023   1.382   .     S
O491   C1026   1.383   1_554 S
O493   Zn501   1.936   .     S
O494   Zn504   1.940   .     S
O495   Zn502   1.932   .     S
O496   Zn503   1.941   .     S
O497   Zn504   1.937   .     S
O498   Zn501   1.931   .     S
O499   Zn502   1.944   .     S
O500   Zn503   1.937   .     S
C505   O558    1.270   .     A
C505   O560    1.269   .     A
C505   C511    1.439   .     S
C506   O553    1.388   .     S
C506   C520    1.411   .     A
C506   C525    1.410   .     A
C507   N543    1.442   .     S
C507   C519    1.405   .     A
C507   C520    1.407   .     A
C508   O559    1.290   .     A
C508   C510    1.457   .     S
C508   O561    1.276   .     A
C509   C524    1.418   .     A
C509   C518    1.469   .     S
C509   C521    1.400   .     A
C510   C385    1.345   1_655 S
C510   H411    1.088   1_655 S
C512   C515    1.469   .     S
C512   C135    1.348   1_565 S
C512   O173    1.388   1_565 S
C513   C514    1.433   .     S
C514   O556    1.275   .     A
C514   O562    1.275   .     A
C515   O557    1.274   .     A
C515   O563    1.277   .     A
C516   C521    1.385   .     A
C516   H536    1.083   .     S
C516   C522    1.402   .     A
C517   O546    1.273   .     A
C517   C520    1.453   .     S
C517   O548    1.279   .     A
C518   O549    1.285   .     A
C518   O547    1.283   .     A
C519   C1093   1.416   1_554 S
C519   O1119   1.382   1_554 S
C521   H535    1.084   .     S
C522   C523    1.425   .     A
C522   O1121   1.383   .     S
C523   C524    1.423   .     A
C523   C1092   1.424   .     S
C524   C528    1.418   .     A
C525   C1090   1.424   1_554 S
C525   C1093   1.417   1_554 S
C526   C527    1.399   .     A
C526   C1092   1.417   .     S
C526   C1086   1.416   .     S
C527   C528    1.399   .     A
C527   H529    1.083   .     S
C528   O555    1.384   .     S
H531   O552    0.990   .     S
H532   O553    0.987   .     S
H533   O554    0.992   .     S
H534   O555    0.992   .     S
H538   N543    1.045   .     S
H539   N543    1.044   .     S
H540   O550    0.992   .     S
H541   O173    0.990   1_565 S
N544   H152    1.046   1_565 S
N544   H164    1.046   1_565 S
N544   C135    1.437   1_565 S
O545   Zn565   1.947   .     S
O545   Zn566   1.943   .     S
O545   Zn567   1.937   .     S
O545   Zn564   1.963   .     S
O546   Zn565   1.935   .     S
O547   Zn567   1.943   .     S
O548   Zn566   1.937   .     S
O549   Zn564   1.930   .     S
O550   C385    1.384   1_655 S
O552   C1086   1.382   .     S
O554   C1089   1.383   1_554 S
O556   Zn564   1.936   .     S
O557   Zn567   1.940   .     S
O558   Zn565   1.932   .     S
O559   Zn566   1.941   .     S
O560   Zn567   1.937   .     S
O561   Zn564   1.931   .     S
O562   Zn565   1.944   .     S
O563   Zn566   1.937   .     S
C568   O621    1.270   .     A
C568   O623    1.269   .     A
C568   C574    1.439   .     S
C569   O616    1.388   .     S
C569   C583    1.411   .     A
C569   C588    1.410   .     A
C570   N606    1.442   .     S
C570   C582    1.405   .     A
C570   C583    1.407   .     A
C571   O622    1.290   .     A
C571   C573    1.457   .     S
C571   O624    1.276   .     A
C572   C587    1.418   .     A
C572   C581    1.469   .     S
C572   C584    1.400   .     A
C573   C637    1.345   .     S
C573   H663    1.088   .     S
C574   C699    1.345   1_455 S
C574   O739    1.384   1_455 S
C575   C578    1.469   .     S
C575   C765    1.348   .     S
C575   O803    1.388   .     S
C576   C577    1.433   .     S
C576   C953    1.348   1_545 S
C576   N985    1.437   1_545 S
C577   O619    1.275   .     A
C577   O625    1.275   .     A
C578   O620    1.274   .     A
C578   O626    1.277   .     A
C579   C584    1.385   .     A
C579   H599    1.083   .     S
C579   C585    1.402   .     A
C580   O609    1.273   .     A
C580   C583    1.453   .     S
C580   O611    1.279   .     A
C581   O612    1.285   .     A
C581   O610    1.283   .     A
C584   H598    1.084   .     S
C585   C586    1.425   .     A
C585   O50     1.383   1_556 S
C586   C587    1.423   .     A
C586   C21     1.424   1_556 S
C587   C591    1.418   .     A
C589   C590    1.399   .     A
C589   C21     1.417   1_556 S
C589   C15     1.416   1_556 S
C590   C591    1.399   .     A
C590   H592    1.083   .     S
C591   O618    1.384   .     S
H593   N985    1.046   1_545 S
H594   O615    0.990   .     S
H595   O616    0.987   .     S
H596   O617    0.992   .     S
H597   O618    0.992   .     S
H600   C699    1.088   1_455 S
H601   N606    1.045   .     S
H602   N606    1.044   .     S
H603   O613    0.992   .     S
H604   O803    0.990   .     S
H605   N985    1.046   1_545 S
N607   H782    1.046   .     S
N607   H794    1.046   .     S
N607   C765    1.437   .     S
O608   Zn628   1.947   .     S
O608   Zn629   1.943   .     S
O608   Zn630   1.937   .     S
O608   Zn627   1.963   .     S
O609   Zn628   1.935   .     S
O610   Zn630   1.943   .     S
O611   Zn629   1.937   .     S
O612   Zn627   1.930   .     S
O613   C637    1.384   .     S
O614   H982    0.990   1_545 S
O614   C953    1.388   1_545 S
O615   C15     1.382   1_556 S
O619   Zn627   1.936   .     S
O620   Zn630   1.940   .     S
O621   Zn628   1.932   .     S
O622   Zn629   1.941   .     S
O623   Zn630   1.937   .     S
O624   Zn627   1.931   .     S
O625   Zn628   1.944   .     S
O626   Zn629   1.937   .     S
C631   O684    1.270   .     A
C631   O686    1.269   .     A
C631   C637    1.439   .     S
C632   O679    1.388   .     S
C632   C646    1.411   .     A
C632   C651    1.410   .     A
C633   N669    1.442   .     S
C633   C645    1.405   .     A
C633   C646    1.407   .     A
C634   O685    1.290   .     A
C634   C636    1.457   .     S
C634   O687    1.276   .     A
C635   C650    1.418   .     A
C635   C644    1.469   .     S
C635   C647    1.400   .     A
C636   C700    1.345   .     S
C636   H726    1.088   .     S
C638   C641    1.469   .     S
C638   C828    1.348   .     S
C638   O866    1.388   .     S
C639   C640    1.433   .     S
C639   C1016   1.348   1_545 S
C639   N1048   1.437   1_545 S
C640   O682    1.275   .     A
C640   O688    1.275   .     A
C641   O683    1.274   .     A
C641   O689    1.277   .     A
C642   C647    1.385   .     A
C642   H662    1.083   .     S
C642   C648    1.402   .     A
C643   O672    1.273   .     A
C643   C646    1.453   .     S
C643   O674    1.279   .     A
C644   O675    1.285   .     A
C644   O673    1.283   .     A
C647   H661    1.084   .     S
C648   C649    1.425   .     A
C648   O113    1.383   1_556 S
C649   C650    1.423   .     A
C649   C84     1.424   1_556 S
C650   C654    1.418   .     A
C652   C653    1.399   .     A
C652   C84     1.417   1_556 S
C652   C78     1.416   1_556 S
C653   C654    1.399   .     A
C653   H655    1.083   .     S
C654   O681    1.384   .     S
H656   N1048   1.046   1_545 S
H657   O678    0.990   .     S
H658   O679    0.987   .     S
H659   O680    0.992   .     S
H660   O681    0.992   .     S
H664   N669    1.045   .     S
H665   N669    1.044   .     S
H666   O676    0.992   .     S
H667   O866    0.990   .     S
H668   N1048   1.046   1_545 S
N670   H845    1.046   .     S
N670   H857    1.046   .     S
N670   C828    1.437   .     S
O671   Zn691   1.947   .     S
O671   Zn692   1.943   .     S
O671   Zn693   1.937   .     S
O671   Zn690   1.963   .     S
O672   Zn691   1.935   .     S
O673   Zn693   1.943   .     S
O674   Zn692   1.937   .     S
O675   Zn690   1.930   .     S
O676   C700    1.384   .     S
O677   H1045   0.990   1_545 S
O677   C1016   1.388   1_545 S
O678   C78     1.382   1_556 S
O682   Zn690   1.936   .     S
O683   Zn693   1.940   .     S
O684   Zn691   1.932   .     S
O685   Zn692   1.941   .     S
O686   Zn693   1.937   .     S
O687   Zn690   1.931   .     S
O688   Zn691   1.944   .     S
O689   Zn692   1.937   .     S
C694   O747    1.270   .     A
C694   O749    1.269   .     A
C694   C700    1.439   .     S
C695   O742    1.388   .     S
C695   C709    1.411   .     A
C695   C714    1.410   .     A
C696   N732    1.442   .     S
C696   C708    1.405   .     A
C696   C709    1.407   .     A
C697   O748    1.290   .     A
C697   C699    1.457   .     S
C697   O750    1.276   .     A
C698   C713    1.418   .     A
C698   C707    1.469   .     S
C698   C710    1.400   .     A
C699   C574    1.345   1_655 S
C699   H600    1.088   1_655 S
C701   C704    1.469   .     S
C701   C891    1.348   .     S
C701   O929    1.388   .     S
C702   C703    1.433   .     S
C702   C1079   1.348   1_545 S
C702   N1111   1.437   1_545 S
C703   O745    1.275   .     A
C703   O751    1.275   .     A
C704   O746    1.274   .     A
C704   O752    1.277   .     A
C705   C710    1.385   .     A
C705   H725    1.083   .     S
C705   C711    1.402   .     A
C706   O735    1.273   .     A
C706   C709    1.453   .     S
C706   O737    1.279   .     A
C707   O738    1.285   .     A
C707   O736    1.283   .     A
C710   H724    1.084   .     S
C711   C712    1.425   .     A
C711   O176    1.383   1_556 S
C712   C713    1.423   .     A
C712   C147    1.424   1_556 S
C713   C717    1.418   .     A
C715   C716    1.399   .     A
C715   C147    1.417   1_556 S
C715   C141    1.416   1_556 S
C716   C717    1.399   .     A
C716   H718    1.083   .     S
C717   O744    1.384   .     S
H719   N1111   1.046   1_545 S
H720   O741    0.990   .     S
H721   O742    0.987   .     S
H722   O743    0.992   .     S
H723   O744    0.992   .     S
H727   N732    1.045   .     S
H728   N732    1.044   .     S
H729   O739    0.992   .     S
H730   O929    0.990   .     S
H731   N1111   1.046   1_545 S
N733   H908    1.046   .     S
N733   H920    1.046   .     S
N733   C891    1.437   .     S
O734   Zn754   1.947   .     S
O734   Zn755   1.943   .     S
O734   Zn756   1.937   .     S
O734   Zn753   1.963   .     S
O735   Zn754   1.935   .     S
O736   Zn756   1.943   .     S
O737   Zn755   1.937   .     S
O738   Zn753   1.930   .     S
O739   C574    1.384   1_655 S
O740   H1108   0.990   1_545 S
O740   C1079   1.388   1_545 S
O741   C141    1.382   1_556 S
O745   Zn753   1.936   .     S
O746   Zn756   1.940   .     S
O747   Zn754   1.932   .     S
O748   Zn755   1.941   .     S
O749   Zn756   1.937   .     S
O750   Zn753   1.931   .     S
O751   Zn754   1.944   .     S
O752   Zn755   1.937   .     S
C757   O810    1.270   .     A
C757   O812    1.269   .     A
C757   C763    1.439   .     S
C758   O805    1.388   .     S
C758   C772    1.411   .     A
C758   C777    1.410   .     A
C759   N795    1.442   .     S
C759   C771    1.405   .     A
C759   C772    1.407   .     A
C760   O811    1.290   .     A
C760   C762    1.457   .     S
C760   O813    1.276   .     A
C761   C776    1.418   .     A
C761   C770    1.469   .     S
C761   C773    1.400   .     A
C762   C826    1.345   .     S
C762   H852    1.088   .     S
C763   C888    1.345   1_455 S
C763   O928    1.384   1_455 S
C764   C767    1.469   .     S
C764   C954    1.348   .     S
C764   O992    1.388   .     S
C765   C766    1.433   .     S
C766   O808    1.275   .     A
C766   O814    1.275   .     A
C767   O809    1.274   .     A
C767   O815    1.277   .     A
C768   C773    1.385   .     A
C768   H788    1.083   .     S
C768   C774    1.402   .     A
C769   O798    1.273   .     A
C769   C772    1.453   .     S
C769   O800    1.279   .     A
C770   O801    1.285   .     A
C770   O799    1.283   .     A
C773   H787    1.084   .     S
C774   C775    1.425   .     A
C774   O239    1.383   1_556 S
C775   C776    1.423   .     A
C775   C210    1.424   1_556 S
C776   C780    1.418   .     A
C778   C779    1.399   .     A
C778   C210    1.417   1_556 S
C778   C204    1.416   1_556 S
C779   C780    1.399   .     A
C779   H781    1.083   .     S
C780   O807    1.384   .     S
H783   O804    0.990   .     S
H784   O805    0.987   .     S
H785   O806    0.992   .     S
H786   O807    0.992   .     S
H789   C888    1.088   1_455 S
H790   N795    1.045   .     S
H791   N795    1.044   .     S
H792   O802    0.992   .     S
H793   O992    0.990   .     S
N796   H971    1.046   .     S
N796   H983    1.046   .     S
N796   C954    1.437   .     S
O797   Zn817   1.947   .     S
O797   Zn818   1.943   .     S
O797   Zn819   1.937   .     S
O797   Zn816   1.963   .     S
O798   Zn817   1.935   .     S
O799   Zn819   1.943   .     S
O800   Zn818   1.937   .     S
O801   Zn816   1.930   .     S
O802   C826    1.384   .     S
O804   C204    1.382   1_556 S
O808   Zn816   1.936   .     S
O809   Zn819   1.940   .     S
O810   Zn817   1.932   .     S
O811   Zn818   1.941   .     S
O812   Zn819   1.937   .     S
O813   Zn816   1.931   .     S
O814   Zn817   1.944   .     S
O815   Zn818   1.937   .     S
C820   O873    1.270   .     A
C820   O875    1.269   .     A
C820   C826    1.439   .     S
C821   O868    1.388   .     S
C821   C835    1.411   .     A
C821   C840    1.410   .     A
C822   N858    1.442   .     S
C822   C834    1.405   .     A
C822   C835    1.407   .     A
C823   O874    1.290   .     A
C823   C825    1.457   .     S
C823   O876    1.276   .     A
C824   C839    1.418   .     A
C824   C833    1.469   .     S
C824   C836    1.400   .     A
C825   C889    1.345   .     S
C825   H915    1.088   .     S
C827   C830    1.469   .     S
C827   C1017   1.348   .     S
C827   O1055   1.388   .     S
C828   C829    1.433   .     S
C829   O871    1.275   .     A
C829   O877    1.275   .     A
C830   O872    1.274   .     A
C830   O878    1.277   .     A
C831   C836    1.385   .     A
C831   H851    1.083   .     S
C831   C837    1.402   .     A
C832   O861    1.273   .     A
C832   C835    1.453   .     S
C832   O863    1.279   .     A
C833   O864    1.285   .     A
C833   O862    1.283   .     A
C836   H850    1.084   .     S
C837   C838    1.425   .     A
C837   O302    1.383   1_556 S
C838   C839    1.423   .     A
C838   C273    1.424   1_556 S
C839   C843    1.418   .     A
C841   C842    1.399   .     A
C841   C273    1.417   1_556 S
C841   C267    1.416   1_556 S
C842   C843    1.399   .     A
C842   H844    1.083   .     S
C843   O870    1.384   .     S
H846   O867    0.990   .     S
H847   O868    0.987   .     S
H848   O869    0.992   .     S
H849   O870    0.992   .     S
H853   N858    1.045   .     S
H854   N858    1.044   .     S
H855   O865    0.992   .     S
H856   O1055   0.990   .     S
N859   H1034   1.046   .     S
N859   H1046   1.046   .     S
N859   C1017   1.437   .     S
O860   Zn880   1.947   .     S
O860   Zn881   1.943   .     S
O860   Zn882   1.937   .     S
O860   Zn879   1.963   .     S
O861   Zn880   1.935   .     S
O862   Zn882   1.943   .     S
O863   Zn881   1.937   .     S
O864   Zn879   1.930   .     S
O865   C889    1.384   .     S
O867   C267    1.382   1_556 S
O871   Zn879   1.936   .     S
O872   Zn882   1.940   .     S
O873   Zn880   1.932   .     S
O874   Zn881   1.941   .     S
O875   Zn882   1.937   .     S
O876   Zn879   1.931   .     S
O877   Zn880   1.944   .     S
O878   Zn881   1.937   .     S
C883   O936    1.270   .     A
C883   O938    1.269   .     A
C883   C889    1.439   .     S
C884   O931    1.388   .     S
C884   C898    1.411   .     A
C884   C903    1.410   .     A
C885   N921    1.442   .     S
C885   C897    1.405   .     A
C885   C898    1.407   .     A
C886   O937    1.290   .     A
C886   C888    1.457   .     S
C886   O939    1.276   .     A
C887   C902    1.418   .     A
C887   C896    1.469   .     S
C887   C899    1.400   .     A
C888   C763    1.345   1_655 S
C888   H789    1.088   1_655 S
C890   C893    1.469   .     S
C890   C1080   1.348   .     S
C890   O1118   1.388   .     S
C891   C892    1.433   .     S
C892   O934    1.275   .     A
C892   O940    1.275   .     A
C893   O935    1.274   .     A
C893   O941    1.277   .     A
C894   C899    1.385   .     A
C894   H914    1.083   .     S
C894   C900    1.402   .     A
C895   O924    1.273   .     A
C895   C898    1.453   .     S
C895   O926    1.279   .     A
C896   O927    1.285   .     A
C896   O925    1.283   .     A
C899   H913    1.084   .     S
C900   C901    1.425   .     A
C900   O365    1.383   1_556 S
C901   C902    1.423   .     A
C901   C336    1.424   1_556 S
C902   C906    1.418   .     A
C904   C905    1.399   .     A
C904   C336    1.417   1_556 S
C904   C330    1.416   1_556 S
C905   C906    1.399   .     A
C905   H907    1.083   .     S
C906   O933    1.384   .     S
H909   O930    0.990   .     S
H910   O931    0.987   .     S
H911   O932    0.992   .     S
H912   O933    0.992   .     S
H916   N921    1.045   .     S
H917   N921    1.044   .     S
H918   O928    0.992   .     S
H919   O1118   0.990   .     S
N922   H1097   1.046   .     S
N922   H1109   1.046   .     S
N922   C1080   1.437   .     S
O923   Zn943   1.947   .     S
O923   Zn944   1.943   .     S
O923   Zn945   1.937   .     S
O923   Zn942   1.963   .     S
O924   Zn943   1.935   .     S
O925   Zn945   1.943   .     S
O926   Zn944   1.937   .     S
O927   Zn942   1.930   .     S
O928   C763    1.384   1_655 S
O930   C330    1.382   1_556 S
O934   Zn942   1.936   .     S
O935   Zn945   1.940   .     S
O936   Zn943   1.932   .     S
O937   Zn944   1.941   .     S
O938   Zn945   1.937   .     S
O939   Zn942   1.931   .     S
O940   Zn943   1.944   .     S
O941   Zn944   1.937   .     S
C946   O999    1.270   .     A
C946   O1001   1.269   .     A
C946   C952    1.439   .     S
C947   O994    1.388   .     S
C947   C961    1.411   .     A
C947   C966    1.410   .     A
C948   N984    1.442   .     S
C948   C960    1.405   .     A
C948   C961    1.407   .     A
C949   O1000   1.290   .     A
C949   C951    1.457   .     S
C949   O1002   1.276   .     A
C950   C965    1.418   .     A
C950   C959    1.469   .     S
C950   C962    1.400   .     A
C951   C1015   1.345   .     S
C951   H1041   1.088   .     S
C952   C1077   1.345   1_455 S
C952   O1117   1.384   1_455 S
C953   C956    1.469   .     S
C953   C576    1.348   1_565 S
C953   O614    1.388   1_565 S
C954   C955    1.433   .     S
C955   O997    1.275   .     A
C955   O1003   1.275   .     A
C956   O998    1.274   .     A
C956   O1004   1.277   .     A
C957   C962    1.385   .     A
C957   H977    1.083   .     S
C957   C963    1.402   .     A
C958   O987    1.273   .     A
C958   C961    1.453   .     S
C958   O989    1.279   .     A
C959   O990    1.285   .     A
C959   O988    1.283   .     A
C962   H976    1.084   .     S
C963   C964    1.425   .     A
C963   O428    1.383   1_556 S
C964   C965    1.423   .     A
C964   C399    1.424   1_556 S
C965   C969    1.418   .     A
C967   C968    1.399   .     A
C967   C399    1.417   1_556 S
C967   C393    1.416   1_556 S
C968   C969    1.399   .     A
C968   H970    1.083   .     S
C969   O996    1.384   .     S
H972   O993    0.990   .     S
H973   O994    0.987   .     S
H974   O995    0.992   .     S
H975   O996    0.992   .     S
H978   C1077   1.088   1_455 S
H979   N984    1.045   .     S
H980   N984    1.044   .     S
H981   O991    0.992   .     S
H982   O614    0.990   1_565 S
N985   H593    1.046   1_565 S
N985   H605    1.046   1_565 S
N985   C576    1.437   1_565 S
O986   Zn1006  1.947   .     S
O986   Zn1007  1.943   .     S
O986   Zn1008  1.937   .     S
O986   Zn1005  1.963   .     S
O987   Zn1006  1.935   .     S
O988   Zn1008  1.943   .     S
O989   Zn1007  1.937   .     S
O990   Zn1005  1.930   .     S
O991   C1015   1.384   .     S
O993   C393    1.382   1_556 S
O997   Zn1005  1.936   .     S
O998   Zn1008  1.940   .     S
O999   Zn1006  1.932   .     S
O1000  Zn1007  1.941   .     S
O1001  Zn1008  1.937   .     S
O1002  Zn1005  1.931   .     S
O1003  Zn1006  1.944   .     S
O1004  Zn1007  1.937   .     S
C1009  O1062   1.270   .     A
C1009  O1064   1.269   .     A
C1009  C1015   1.439   .     S
C1010  O1057   1.388   .     S
C1010  C1024   1.411   .     A
C1010  C1029   1.410   .     A
C1011  N1047   1.442   .     S
C1011  C1023   1.405   .     A
C1011  C1024   1.407   .     A
C1012  O1063   1.290   .     A
C1012  C1014   1.457   .     S
C1012  O1065   1.276   .     A
C1013  C1028   1.418   .     A
C1013  C1022   1.469   .     S
C1013  C1025   1.400   .     A
C1014  C1078   1.345   .     S
C1014  H1104   1.088   .     S
C1016  C1019   1.469   .     S
C1016  C639    1.348   1_565 S
C1016  O677    1.388   1_565 S
C1017  C1018   1.433   .     S
C1018  O1060   1.275   .     A
C1018  O1066   1.275   .     A
C1019  O1061   1.274   .     A
C1019  O1067   1.277   .     A
C1020  C1025   1.385   .     A
C1020  H1040   1.083   .     S
C1020  C1026   1.402   .     A
C1021  O1050   1.273   .     A
C1021  C1024   1.453   .     S
C1021  O1052   1.279   .     A
C1022  O1053   1.285   .     A
C1022  O1051   1.283   .     A
C1025  H1039   1.084   .     S
C1026  C1027   1.425   .     A
C1026  O491    1.383   1_556 S
C1027  C1028   1.423   .     A
C1027  C462    1.424   1_556 S
C1028  C1032   1.418   .     A
C1030  C1031   1.399   .     A
C1030  C462    1.417   1_556 S
C1030  C456    1.416   1_556 S
C1031  C1032   1.399   .     A
C1031  H1033   1.083   .     S
C1032  O1059   1.384   .     S
H1035  O1056   0.990   .     S
H1036  O1057   0.987   .     S
H1037  O1058   0.992   .     S
H1038  O1059   0.992   .     S
H1042  N1047   1.045   .     S
H1043  N1047   1.044   .     S
H1044  O1054   0.992   .     S
H1045  O677    0.990   1_565 S
N1048  H656    1.046   1_565 S
N1048  H668    1.046   1_565 S
N1048  C639    1.437   1_565 S
O1049  Zn1069  1.947   .     S
O1049  Zn1070  1.943   .     S
O1049  Zn1071  1.937   .     S
O1049  Zn1068  1.963   .     S
O1050  Zn1069  1.935   .     S
O1051  Zn1071  1.943   .     S
O1052  Zn1070  1.937   .     S
O1053  Zn1068  1.930   .     S
O1054  C1078   1.384   .     S
O1056  C456    1.382   1_556 S
O1060  Zn1068  1.936   .     S
O1061  Zn1071  1.940   .     S
O1062  Zn1069  1.932   .     S
O1063  Zn1070  1.941   .     S
O1064  Zn1071  1.937   .     S
O1065  Zn1068  1.931   .     S
O1066  Zn1069  1.944   .     S
O1067  Zn1070  1.937   .     S
C1072  O1125   1.270   .     A
C1072  O1127   1.269   .     A
C1072  C1078   1.439   .     S
C1073  O1120   1.388   .     S
C1073  C1087   1.411   .     A
C1073  C1092   1.410   .     A
C1074  N1110   1.442   .     S
C1074  C1086   1.405   .     A
C1074  C1087   1.407   .     A
C1075  O1126   1.290   .     A
C1075  C1077   1.457   .     S
C1075  O1128   1.276   .     A
C1076  C1091   1.418   .     A
C1076  C1085   1.469   .     S
C1076  C1088   1.400   .     A
C1077  C952    1.345   1_655 S
C1077  H978    1.088   1_655 S
C1079  C1082   1.469   .     S
C1079  C702    1.348   1_565 S
C1079  O740    1.388   1_565 S
C1080  C1081   1.433   .     S
C1081  O1123   1.275   .     A
C1081  O1129   1.275   .     A
C1082  O1124   1.274   .     A
C1082  O1130   1.277   .     A
C1083  C1088   1.385   .     A
C1083  H1103   1.083   .     S
C1083  C1089   1.402   .     A
C1084  O1113   1.273   .     A
C1084  C1087   1.453   .     S
C1084  O1115   1.279   .     A
C1085  O1116   1.285   .     A
C1085  O1114   1.283   .     A
C1088  H1102   1.084   .     S
C1089  C1090   1.425   .     A
C1089  O554    1.383   1_556 S
C1090  C1091   1.423   .     A
C1090  C525    1.424   1_556 S
C1091  C1095   1.418   .     A
C1093  C1094   1.399   .     A
C1093  C525    1.417   1_556 S
C1093  C519    1.416   1_556 S
C1094  C1095   1.399   .     A
C1094  H1096   1.083   .     S
C1095  O1122   1.384   .     S
H1098  O1119   0.990   .     S
H1099  O1120   0.987   .     S
H1100  O1121   0.992   .     S
H1101  O1122   0.992   .     S
H1105  N1110   1.045   .     S
H1106  N1110   1.044   .     S
H1107  O1117   0.992   .     S
H1108  O740    0.990   1_565 S
N1111  H719    1.046   1_565 S
N1111  H731    1.046   1_565 S
N1111  C702    1.437   1_565 S
O1112  Zn1132  1.947   .     S
O1112  Zn1133  1.943   .     S
O1112  Zn1134  1.937   .     S
O1112  Zn1131  1.963   .     S
O1113  Zn1132  1.935   .     S
O1114  Zn1134  1.943   .     S
O1115  Zn1133  1.937   .     S
O1116  Zn1131  1.930   .     S
O1117  C952    1.384   1_655 S
O1119  C519    1.382   1_556 S
O1123  Zn1131  1.936   .     S
O1124  Zn1134  1.940   .     S
O1125  Zn1132  1.932   .     S
O1126  Zn1133  1.941   .     S
O1127  Zn1134  1.937   .     S
O1128  Zn1131  1.931   .     S
O1129  Zn1132  1.944   .     S
O1130  Zn1133  1.937   .     S
