data_str_m1_o1_o17_pcu_sym.133
_audit_creation_date              2020-01-03
_audit_creation_method            'Materials Studio'
_symmetry_space_group_name_H-M    'P1'
_symmetry_Int_Tables_number       1
_symmetry_cell_setting            triclinic
loop_
_symmetry_equiv_pos_as_xyz
  x,y,z
_cell_length_a                    36.5967
_cell_length_b                    36.5968
_cell_length_c                    34.4609
_cell_angle_alpha                 89.9679
_cell_angle_beta                  89.9680
_cell_angle_gamma                 90.0733
loop_
_atom_site_label
_atom_site_type_symbol
_atom_site_fract_x
_atom_site_fract_y
_atom_site_fract_z
_atom_site_U_iso_or_equiv
_atom_site_adp_type
_atom_site_occupancy
C1     C     0.47412   0.27083   0.41823   0.00000  Uiso   1.00
C2     C     0.27611   0.47930   0.08175   0.00000  Uiso   1.00
C3     C     0.23205   0.02851   0.54102   0.00000  Uiso   1.00
C4     C     0.47149   0.26795   0.45898   0.00000  Uiso   1.00
C5     C     0.02857   0.23196   0.54095   0.00000  Uiso   1.00
C6     C     0.23224   0.02861   0.45904   0.00000  Uiso   1.00
C7     C     0.26823   0.47158   0.54105   0.00000  Uiso   1.00
C8     C     0.27842   0.48177   0.95895   0.00000  Uiso   1.00
C9     C     0.22139   0.01776   0.04096   0.00000  Uiso   1.00
C10    C     0.01804   0.22143   0.95904   0.00000  Uiso   1.00
C11    C     0.48205   0.27850   0.04102   0.00000  Uiso   1.00
C12    C     0.22149   0.01795   0.95898   0.00000  Uiso   1.00
C13    C     0.47946   0.27608   0.91827   0.00000  Uiso   1.00
C14    C     0.27857   0.48196   0.04095   0.00000  Uiso   1.00
C15    C     0.48223   0.27861   0.95904   0.00000  Uiso   1.00
C16    C     0.01823   0.22158   0.04105   0.00000  Uiso   1.00
C17    C     0.09869   0.34732   0.24941   0.00000  Uiso   1.00
C18    C     0.40258   0.15115   0.74967   0.00000  Uiso   1.00
C19    C     0.15180   0.09819   0.25000   0.00000  Uiso   1.00
C20    C     0.34799   0.40201   0.75000   0.00000  Uiso   1.00
C21    C     0.40268   0.15131   0.25059   0.00000  Uiso   1.00
C22    C     0.09885   0.34742   0.75034   0.00000  Uiso   1.00
C23    C     0.34819   0.40181   0.25000   0.00000  Uiso   1.00
C24    C     0.02104   0.22420   0.08181   0.00000  Uiso   1.00
C25    C     0.15201   0.09799   0.75000   0.00000  Uiso   1.00
C26    C     0.09819   0.15181   0.75000   0.00000  Uiso   1.00
C27    C     0.40201   0.34799   0.25000   0.00000  Uiso   1.00
C28    C     0.15268   0.40130   0.75059   0.00000  Uiso   1.00
C29    C     0.34885   0.09742   0.25034   0.00000  Uiso   1.00
C30    C     0.40180   0.34819   0.75000   0.00000  Uiso   1.00
C31    C     0.09799   0.15201   0.25000   0.00000  Uiso   1.00
C32    C     0.34869   0.09732   0.74941   0.00000  Uiso   1.00
C33    C     0.15258   0.40115   0.24966   0.00000  Uiso   1.00
C34    C     0.49996   0.24985   0.47948   0.00000  Uiso   1.00
C35    C     0.27580   0.47897   0.91819   0.00000  Uiso   1.00
C36    C     0.49997   0.24985   0.52045   0.00000  Uiso   1.00
C37    C     0.25015   0.00003   0.47955   0.00000  Uiso   1.00
C38    C     0.25015   0.00004   0.52052   0.00000  Uiso   1.00
C39    C     0.24996   0.49985   0.97948   0.00000  Uiso   1.00
C40    C     0.24997   0.49985   0.02045   0.00000  Uiso   1.00
C41    C     0.00015   0.25003   0.97955   0.00000  Uiso   1.00
C42    C     0.00015   0.25004   0.02052   0.00000  Uiso   1.00
C43    C     0.18078   0.38841   0.16574   0.00000  Uiso   1.00
C44    C     0.32051   0.11990   0.83183   0.00000  Uiso   1.00
C45    C     0.03851   0.09872   0.28237   0.00000  Uiso   1.00
C46    C     0.22391   0.02054   0.08173   0.00000  Uiso   1.00
C47    C     0.45498   0.40392   0.79880   0.00000  Uiso   1.00
C48    C     0.37784   0.07062   0.16482   0.00000  Uiso   1.00
C49    C     0.18574   0.38788   0.83018   0.00000  Uiso   1.00
C50    C     0.46165   0.40207   0.28077   0.00000  Uiso   1.00
C51    C     0.04597   0.09679   0.80095   0.00000  Uiso   1.00
C52    C     0.09793   0.03835   0.71922   0.00000  Uiso   1.00
C53    C     0.40321   0.45403   0.19905   0.00000  Uiso   1.00
C54    C     0.11159   0.31921   0.83426   0.00000  Uiso   1.00
C55    C     0.38010   0.17949   0.16817   0.00000  Uiso   1.00
C56    C     0.40123   0.46145   0.71746   0.00000  Uiso   1.00
C57    C     0.02071   0.22390   0.91825   0.00000  Uiso   1.00
C58    C     0.09615   0.04510   0.20101   0.00000  Uiso   1.00
C59    C     0.42938   0.12216   0.83518   0.00000  Uiso   1.00
C60    C     0.11212   0.31427   0.16982   0.00000  Uiso   1.00
C61    C     0.43078   0.13841   0.66574   0.00000  Uiso   1.00
C62    C     0.07051   0.36989   0.33183   0.00000  Uiso   1.00
C63    C     0.28855   0.34877   0.78254   0.00000  Uiso   1.00
C64    C     0.20490   0.15385   0.29898   0.00000  Uiso   1.00
C65    C     0.12784   0.32062   0.66482   0.00000  Uiso   1.00
C66    C     0.43574   0.13788   0.33018   0.00000  Uiso   1.00
C67    C     0.21165   0.15207   0.78078   0.00000  Uiso   1.00
C68    C     0.47917   0.27588   0.08177   0.00000  Uiso   1.00
C69    C     0.29597   0.34679   0.30095   0.00000  Uiso   1.00
C70    C     0.34793   0.28835   0.21922   0.00000  Uiso   1.00
C71    C     0.15321   0.20403   0.69905   0.00000  Uiso   1.00
C72    C     0.36160   0.06921   0.33426   0.00000  Uiso   1.00
C73    C     0.13010   0.42949   0.66817   0.00000  Uiso   1.00
C74    C     0.15128   0.21149   0.21763   0.00000  Uiso   1.00
C75    C     0.34608   0.29502   0.70120   0.00000  Uiso   1.00
C76    C     0.17939   0.37215   0.33518   0.00000  Uiso   1.00
C77    C     0.36212   0.06426   0.66982   0.00000  Uiso   1.00
C78    C     0.46890   0.32832   0.39429   0.00000  Uiso   1.00
C79    C     0.49997   0.24993   0.39821   0.00000  Uiso   1.00
C80    C     0.03227   0.17200   0.60596   0.00000  Uiso   1.00
C81    C     0.17196   0.03216   0.39469   0.00000  Uiso   1.00
C82    C     0.32850   0.46902   0.60576   0.00000  Uiso   1.00
C83    C     0.03097   0.17150   0.39424   0.00000  Uiso   1.00
C84    C     0.46785   0.32804   0.60531   0.00000  Uiso   1.00
C85    C     0.32800   0.46772   0.39404   0.00000  Uiso   1.00
C86    C     0.17168   0.03111   0.60571   0.00000  Uiso   1.00
C87    C     0.21889   0.07832   0.89429   0.00000  Uiso   1.00
C88    C     0.28228   0.42200   0.10596   0.00000  Uiso   1.00
C89    C     0.42195   0.28215   0.89469   0.00000  Uiso   1.00
C90    C     0.00002   0.24994   0.60175   0.00000  Uiso   1.00
C91    C     0.07850   0.21903   0.10576   0.00000  Uiso   1.00
C92    C     0.28098   0.42150   0.89424   0.00000  Uiso   1.00
C93    C     0.21783   0.07804   0.10531   0.00000  Uiso   1.00
C94    C     0.07800   0.21773   0.89404   0.00000  Uiso   1.00
C95    C     0.42168   0.28110   0.10571   0.00000  Uiso   1.00
C96    C     0.25006   0.49998   0.39825   0.00000  Uiso   1.00
C97    C     0.02610   0.22929   0.58175   0.00000  Uiso   1.00
C98    C     0.25007   0.00003   0.60179   0.00000  Uiso   1.00
C99    C     0.24997   0.49993   0.89821   0.00000  Uiso   1.00
C100   C     0.25002   0.49994   0.10175   0.00000  Uiso   1.00
C101   C     0.00006   0.24998   0.89825   0.00000  Uiso   1.00
C102   C     0.00007   0.25003   0.10179   0.00000  Uiso   1.00
C103   C     0.05855   0.21722   0.47959   0.00000  Uiso   1.00
C104   C     0.44124   0.28224   0.52029   0.00000  Uiso   1.00
C105   C     0.28258   0.44132   0.47976   0.00000  Uiso   1.00
C106   C     0.21757   0.05866   0.52035   0.00000  Uiso   1.00
C107   C     0.44135   0.28244   0.47965   0.00000  Uiso   1.00
C108   C     0.22946   0.02608   0.41827   0.00000  Uiso   1.00
C109   C     0.05867   0.21742   0.52023   0.00000  Uiso   1.00
C110   C     0.21777   0.05876   0.47971   0.00000  Uiso   1.00
C111   C     0.28277   0.44145   0.52041   0.00000  Uiso   1.00
C112   C     0.30855   0.46723   0.97959   0.00000  Uiso   1.00
C113   C     0.19124   0.03223   0.02029   0.00000  Uiso   1.00
C114   C     0.03259   0.19133   0.97976   0.00000  Uiso   1.00
C115   C     0.46756   0.30865   0.02035   0.00000  Uiso   1.00
C116   C     0.19134   0.03243   0.97965   0.00000  Uiso   1.00
C117   C     0.30868   0.46742   0.02023   0.00000  Uiso   1.00
C118   C     0.46776   0.30876   0.97971   0.00000  Uiso   1.00
C119   C     0.27103   0.47420   0.58181   0.00000  Uiso   1.00
C120   C     0.03278   0.19145   0.02041   0.00000  Uiso   1.00
C121   C     0.25001   0.49999   0.35586   0.00000  Uiso   1.00
C122   C     0.25002   0.00001   0.64416   0.00000  Uiso   1.00
C123   C     0.49999   0.24998   0.35584   0.00000  Uiso   1.00
C124   C     0.00001   0.24999   0.64414   0.00000  Uiso   1.00
C125   C     0.00001   0.24999   0.85586   0.00000  Uiso   1.00
C126   C     0.00002   0.25001   0.14416   0.00000  Uiso   1.00
C127   C     0.24999   0.49998   0.85584   0.00000  Uiso   1.00
C128   C     0.25001   0.49999   0.14414   0.00000  Uiso   1.00
C129   C     0.17994   0.07006   0.25000   0.00000  Uiso   1.00
C130   C     0.02580   0.22897   0.41819   0.00000  Uiso   1.00
C131   C     0.31998   0.43002   0.75000   0.00000  Uiso   1.00
C132   C     0.43009   0.17994   0.25009   0.00000  Uiso   1.00
C133   C     0.07001   0.32005   0.74988   0.00000  Uiso   1.00
C134   C     0.32006   0.42994   0.25000   0.00000  Uiso   1.00
C135   C     0.18001   0.06998   0.75000   0.00000  Uiso   1.00
C136   C     0.07006   0.31991   0.24991   0.00000  Uiso   1.00
C137   C     0.42995   0.17999   0.75012   0.00000  Uiso   1.00
C138   C     0.18009   0.42994   0.75009   0.00000  Uiso   1.00
C139   C     0.32001   0.07005   0.24988   0.00000  Uiso   1.00
C140   C     0.42994   0.32006   0.75000   0.00000  Uiso   1.00
C141   C     0.47392   0.27054   0.58173   0.00000  Uiso   1.00
C142   C     0.06998   0.18002   0.25000   0.00000  Uiso   1.00
C143   C     0.32006   0.06991   0.74991   0.00000  Uiso   1.00
C144   C     0.17995   0.42999   0.25012   0.00000  Uiso   1.00
C145   C     0.07006   0.17994   0.75000   0.00000  Uiso   1.00
C146   C     0.43001   0.31999   0.25000   0.00000  Uiso   1.00
C147   C     0.13826   0.38876   0.21403   0.00000  Uiso   1.00
C148   C     0.36283   0.10992   0.78490   0.00000  Uiso   1.00
C149   C     0.08788   0.11510   0.24655   0.00000  Uiso   1.00
C150   C     0.41169   0.38501   0.75590   0.00000  Uiso   1.00
C151   C     0.36459   0.10871   0.21503   0.00000  Uiso   1.00
C152   C     0.27070   0.47389   0.41825   0.00000  Uiso   1.00
C153   C     0.13886   0.38813   0.78616   0.00000  Uiso   1.00
C154   C     0.41206   0.38486   0.24585   0.00000  Uiso   1.00
C155   C     0.08841   0.11508   0.75676   0.00000  Uiso   1.00
C156   C     0.11514   0.08793   0.75415   0.00000  Uiso   1.00
C157   C     0.38492   0.41159   0.24324   0.00000  Uiso   1.00
C158   C     0.11125   0.36173   0.78597   0.00000  Uiso   1.00
C159   C     0.39008   0.13717   0.21510   0.00000  Uiso   1.00
C160   C     0.38491   0.41213   0.75338   0.00000  Uiso   1.00
C161   C     0.11500   0.08832   0.24403   0.00000  Uiso   1.00
C162   C     0.39129   0.13541   0.78497   0.00000  Uiso   1.00
C163   C     0.22917   0.02588   0.58177   0.00000  Uiso   1.00
C164   C     0.11187   0.36115   0.21384   0.00000  Uiso   1.00
C165   C     0.38826   0.13876   0.71403   0.00000  Uiso   1.00
C166   C     0.11283   0.35991   0.28490   0.00000  Uiso   1.00
C167   C     0.33787   0.36509   0.74662   0.00000  Uiso   1.00
C168   C     0.16168   0.13500   0.25597   0.00000  Uiso   1.00
C169   C     0.11459   0.35870   0.71503   0.00000  Uiso   1.00
C170   C     0.38886   0.13813   0.28616   0.00000  Uiso   1.00
C171   C     0.16206   0.13486   0.74585   0.00000  Uiso   1.00
C172   C     0.33841   0.36508   0.25676   0.00000  Uiso   1.00
C173   C     0.36514   0.33793   0.25415   0.00000  Uiso   1.00
C174   C     0.22412   0.02083   0.91823   0.00000  Uiso   1.00
C175   C     0.13492   0.16159   0.74324   0.00000  Uiso   1.00
C176   C     0.36124   0.11173   0.28597   0.00000  Uiso   1.00
C177   C     0.14008   0.38717   0.71510   0.00000  Uiso   1.00
C178   C     0.13490   0.16212   0.25345   0.00000  Uiso   1.00
C179   C     0.36499   0.33831   0.74410   0.00000  Uiso   1.00
C180   C     0.14130   0.38541   0.28497   0.00000  Uiso   1.00
C181   C     0.36187   0.11115   0.71384   0.00000  Uiso   1.00
C182   C     0.02842   0.23177   0.45895   0.00000  Uiso   1.00
C183   C     0.47139   0.26777   0.54096   0.00000  Uiso   1.00
C184   C     0.26804   0.47143   0.45904   0.00000  Uiso   1.00
Cl185  Cl    0.09860   0.20157   0.45563   0.00000  Uiso   1.00
Cl186  Cl    0.15092   0.04734   0.04415   0.00000  Uiso   1.00
Cl187  Cl    0.04782   0.15103   0.95598   0.00000  Uiso   1.00
Cl188  Cl    0.45196   0.34874   0.04426   0.00000  Uiso   1.00
Cl189  Cl    0.15126   0.04803   0.95574   0.00000  Uiso   1.00
Cl190  Cl    0.34897   0.45220   0.04402   0.00000  Uiso   1.00
Cl191  Cl    0.45264   0.34907   0.95585   0.00000  Uiso   1.00
Cl192  Cl    0.04844   0.15140   0.04437   0.00000  Uiso   1.00
Cl193  Cl    0.40093   0.29736   0.54415   0.00000  Uiso   1.00
Cl194  Cl    0.29780   0.40103   0.45598   0.00000  Uiso   1.00
Cl195  Cl    0.20197   0.09874   0.54426   0.00000  Uiso   1.00
Cl196  Cl    0.40126   0.29804   0.45574   0.00000  Uiso   1.00
Cl197  Cl    0.09897   0.20219   0.54402   0.00000  Uiso   1.00
Cl198  Cl    0.20266   0.09908   0.45585   0.00000  Uiso   1.00
Cl199  Cl    0.29842   0.40140   0.54437   0.00000  Uiso   1.00
Cl200  Cl    0.34860   0.45158   0.95563   0.00000  Uiso   1.00
H201   H     0.20345   0.39057   0.18712   0.00000  Uiso   1.00
H202   H     0.44602   0.38192   0.81906   0.00000  Uiso   1.00
H203   H     0.02758   0.15950   0.57693   0.00000  Uiso   1.00
H204   H     0.00614   0.17363   0.62238   0.00000  Uiso   1.00
H205   H     0.05082   0.15367   0.62233   0.00000  Uiso   1.00
H206   H     0.15962   0.02800   0.42390   0.00000  Uiso   1.00
H207   H     0.17342   0.00573   0.37879   0.00000  Uiso   1.00
H208   H     0.15358   0.05049   0.37809   0.00000  Uiso   1.00
H209   H     0.32647   0.49533   0.62180   0.00000  Uiso   1.00
H210   H     0.34093   0.47356   0.57666   0.00000  Uiso   1.00
H211   H     0.34711   0.45095   0.62238   0.00000  Uiso   1.00
H212   H     0.00466   0.17353   0.37820   0.00000  Uiso   1.00
H213   H     0.44177   0.43019   0.80675   0.00000  Uiso   1.00
H214   H     0.02643   0.15906   0.42334   0.00000  Uiso   1.00
H215   H     0.04904   0.15289   0.37761   0.00000  Uiso   1.00
H216   H     0.47201   0.34039   0.57610   0.00000  Uiso   1.00
H217   H     0.49427   0.32658   0.62120   0.00000  Uiso   1.00
H218   H     0.44952   0.34643   0.62191   0.00000  Uiso   1.00
H219   H     0.34050   0.47241   0.42306   0.00000  Uiso   1.00
H220   H     0.32637   0.49386   0.37762   0.00000  Uiso   1.00
H221   H     0.34633   0.44917   0.37767   0.00000  Uiso   1.00
H222   H     0.17365   0.00487   0.62192   0.00000  Uiso   1.00
H223   H     0.15932   0.02645   0.57661   0.00000  Uiso   1.00
H224   H     0.48487   0.40744   0.80260   0.00000  Uiso   1.00
H225   H     0.15303   0.04925   0.62219   0.00000  Uiso   1.00
H226   H     0.24513   0.07635   0.87808   0.00000  Uiso   1.00
H227   H     0.22355   0.09068   0.92339   0.00000  Uiso   1.00
H228   H     0.20075   0.09697   0.87781   0.00000  Uiso   1.00
H229   H     0.27759   0.40950   0.07693   0.00000  Uiso   1.00
H230   H     0.25614   0.42363   0.12238   0.00000  Uiso   1.00
H231   H     0.30083   0.40367   0.12233   0.00000  Uiso   1.00
H232   H     0.40961   0.27798   0.92390   0.00000  Uiso   1.00
H233   H     0.42342   0.25572   0.87879   0.00000  Uiso   1.00
H234   H     0.40357   0.30047   0.87809   0.00000  Uiso   1.00
H235   H     0.36547   0.05612   0.13979   0.00000  Uiso   1.00
H236   H     0.07647   0.24534   0.12180   0.00000  Uiso   1.00
H237   H     0.09094   0.22357   0.07666   0.00000  Uiso   1.00
H238   H     0.09711   0.20097   0.12239   0.00000  Uiso   1.00
H239   H     0.25467   0.42353   0.87820   0.00000  Uiso   1.00
H240   H     0.27644   0.40907   0.92334   0.00000  Uiso   1.00
H241   H     0.29905   0.40289   0.87761   0.00000  Uiso   1.00
H242   H     0.22200   0.09038   0.07610   0.00000  Uiso   1.00
H243   H     0.24426   0.07658   0.12121   0.00000  Uiso   1.00
H244   H     0.19951   0.09642   0.12191   0.00000  Uiso   1.00
H245   H     0.09050   0.22242   0.92306   0.00000  Uiso   1.00
H246   H     0.38614   0.04952   0.18637   0.00000  Uiso   1.00
H247   H     0.07637   0.24387   0.87762   0.00000  Uiso   1.00
H248   H     0.09634   0.19918   0.87767   0.00000  Uiso   1.00
H249   H     0.42365   0.25486   0.12192   0.00000  Uiso   1.00
H250   H     0.40932   0.27644   0.07661   0.00000  Uiso   1.00
H251   H     0.40302   0.29924   0.12219   0.00000  Uiso   1.00
H252   H     0.40229   0.08548   0.15398   0.00000  Uiso   1.00
H253   H     0.20736   0.40609   0.81846   0.00000  Uiso   1.00
H254   H     0.19023   0.35951   0.81943   0.00000  Uiso   1.00
H255   H     0.18899   0.38730   0.86218   0.00000  Uiso   1.00
H256   H     0.49086   0.40997   0.27864   0.00000  Uiso   1.00
H257   H     0.18964   0.40286   0.13903   0.00000  Uiso   1.00
H258   H     0.46002   0.37738   0.29959   0.00000  Uiso   1.00
H259   H     0.44674   0.42524   0.29441   0.00000  Uiso   1.00
H260   H     0.01626   0.09252   0.80533   0.00000  Uiso   1.00
H261   H     0.05459   0.11945   0.82049   0.00000  Uiso   1.00
H262   H     0.05998   0.07106   0.80936   0.00000  Uiso   1.00
H263   H     0.09003   0.00914   0.72136   0.00000  Uiso   1.00
H264   H     0.12262   0.03998   0.70041   0.00000  Uiso   1.00
H265   H     0.07476   0.05326   0.70559   0.00000  Uiso   1.00
H266   H     0.38055   0.44541   0.17951   0.00000  Uiso   1.00
H267   H     0.42894   0.44002   0.19064   0.00000  Uiso   1.00
H268   H     0.17611   0.35937   0.15790   0.00000  Uiso   1.00
H269   H     0.40748   0.48374   0.19467   0.00000  Uiso   1.00
H270   H     0.10939   0.29654   0.81289   0.00000  Uiso   1.00
H271   H     0.09717   0.31036   0.86098   0.00000  Uiso   1.00
H272   H     0.14064   0.32386   0.84205   0.00000  Uiso   1.00
H273   H     0.38016   0.20236   0.18946   0.00000  Uiso   1.00
H274   H     0.35169   0.16970   0.16313   0.00000  Uiso   1.00
H275   H     0.39056   0.19041   0.14026   0.00000  Uiso   1.00
H276   H     0.40900   0.49072   0.71905   0.00000  Uiso   1.00
H277   H     0.37616   0.45953   0.69928   0.00000  Uiso   1.00
H278   H     0.42418   0.44653   0.70341   0.00000  Uiso   1.00
H279   H     0.29764   0.11984   0.81054   0.00000  Uiso   1.00
H280   H     0.11820   0.05408   0.18081   0.00000  Uiso   1.00
H281   H     0.06990   0.05834   0.19303   0.00000  Uiso   1.00
H282   H     0.09262   0.01522   0.19714   0.00000  Uiso   1.00
H283   H     0.44388   0.13453   0.86021   0.00000  Uiso   1.00
H284   H     0.45048   0.11385   0.81363   0.00000  Uiso   1.00
H285   H     0.41452   0.09771   0.84602   0.00000  Uiso   1.00
H286   H     0.09391   0.29265   0.18152   0.00000  Uiso   1.00
H287   H     0.14049   0.30976   0.18058   0.00000  Uiso   1.00
H288   H     0.11271   0.31102   0.13782   0.00000  Uiso   1.00
H289   H     0.45345   0.14056   0.68712   0.00000  Uiso   1.00
H290   H     0.33030   0.14831   0.83687   0.00000  Uiso   1.00
H291   H     0.43965   0.15285   0.63903   0.00000  Uiso   1.00
H292   H     0.42611   0.10936   0.65791   0.00000  Uiso   1.00
H293   H     0.04764   0.36984   0.31054   0.00000  Uiso   1.00
H294   H     0.08031   0.39830   0.33687   0.00000  Uiso   1.00
H295   H     0.05959   0.35943   0.35974   0.00000  Uiso   1.00
H296   H     0.25928   0.34100   0.78095   0.00000  Uiso   1.00
H297   H     0.29047   0.37385   0.80072   0.00000  Uiso   1.00
H298   H     0.30347   0.32582   0.79659   0.00000  Uiso   1.00
H299   H     0.19592   0.13181   0.31918   0.00000  Uiso   1.00
H300   H     0.19167   0.18010   0.30696   0.00000  Uiso   1.00
H301   H     0.30959   0.10943   0.85974   0.00000  Uiso   1.00
H302   H     0.23479   0.15738   0.30285   0.00000  Uiso   1.00
H303   H     0.11547   0.30612   0.63979   0.00000  Uiso   1.00
H304   H     0.13615   0.29951   0.68637   0.00000  Uiso   1.00
H305   H     0.15229   0.33548   0.65398   0.00000  Uiso   1.00
H306   H     0.45736   0.15610   0.31848   0.00000  Uiso   1.00
H307   H     0.44025   0.10951   0.31941   0.00000  Uiso   1.00
H308   H     0.43898   0.13728   0.36218   0.00000  Uiso   1.00
H309   H     0.24086   0.15997   0.77864   0.00000  Uiso   1.00
H310   H     0.21002   0.12738   0.79959   0.00000  Uiso   1.00
H311   H     0.19674   0.17524   0.79441   0.00000  Uiso   1.00
H312   H     0.00924   0.09096   0.28072   0.00000  Uiso   1.00
H313   H     0.30459   0.36945   0.32049   0.00000  Uiso   1.00
H314   H     0.30998   0.32106   0.30935   0.00000  Uiso   1.00
H315   H     0.26625   0.34252   0.30533   0.00000  Uiso   1.00
H316   H     0.34003   0.25914   0.22136   0.00000  Uiso   1.00
H317   H     0.37262   0.28998   0.20041   0.00000  Uiso   1.00
H318   H     0.32476   0.30326   0.20559   0.00000  Uiso   1.00
H319   H     0.13055   0.19541   0.67951   0.00000  Uiso   1.00
H320   H     0.17894   0.19002   0.69064   0.00000  Uiso   1.00
H321   H     0.15748   0.23374   0.69467   0.00000  Uiso   1.00
H322   H     0.35943   0.04655   0.31288   0.00000  Uiso   1.00
H323   H     0.04041   0.12376   0.30060   0.00000  Uiso   1.00
H324   H     0.34716   0.06035   0.36097   0.00000  Uiso   1.00
H325   H     0.39064   0.07388   0.34208   0.00000  Uiso   1.00
H326   H     0.13016   0.45236   0.68946   0.00000  Uiso   1.00
H327   H     0.10169   0.41970   0.66313   0.00000  Uiso   1.00
H328   H     0.14056   0.44041   0.64026   0.00000  Uiso   1.00
H329   H     0.15904   0.24076   0.21928   0.00000  Uiso   1.00
H330   H     0.12624   0.20959   0.19940   0.00000  Uiso   1.00
H331   H     0.17426   0.19659   0.20360   0.00000  Uiso   1.00
H332   H     0.36808   0.30397   0.68094   0.00000  Uiso   1.00
H333   H     0.31981   0.30823   0.69325   0.00000  Uiso   1.00
H334   H     0.05341   0.07574   0.29639   0.00000  Uiso   1.00
H335   H     0.34255   0.26513   0.69740   0.00000  Uiso   1.00
H336   H     0.19388   0.38453   0.36020   0.00000  Uiso   1.00
H337   H     0.20049   0.36385   0.31362   0.00000  Uiso   1.00
H338   H     0.16452   0.34771   0.34602   0.00000  Uiso   1.00
H339   H     0.34390   0.04265   0.68151   0.00000  Uiso   1.00
H340   H     0.39048   0.05975   0.68059   0.00000  Uiso   1.00
H341   H     0.36272   0.06102   0.63782   0.00000  Uiso   1.00
H342   H     0.49514   0.32635   0.37808   0.00000  Uiso   1.00
H343   H     0.47356   0.34068   0.42339   0.00000  Uiso   1.00
H344   H     0.45075   0.34698   0.37781   0.00000  Uiso   1.00
O345   O     0.25000  -0.00000   0.25000   0.00000  Uiso   1.00
O346   O     0.25000   0.46963   0.66245   0.00000  Uiso   1.00
O347   O     0.45604   0.29840   0.10265   0.00000  Uiso   1.00
O348   O     0.46963   0.25000   0.33755   0.00000  Uiso   1.00
O349   O     0.03036   0.25000   0.66245   0.00000  Uiso   1.00
O350   O     0.00000   0.21963   0.83755   0.00000  Uiso   1.00
O351   O     0.00000   0.28036   0.16245   0.00000  Uiso   1.00
O352   O     0.28036  -0.00000   0.83755   0.00000  Uiso   1.00
O353   O     0.21963  -0.00000   0.16245   0.00000  Uiso   1.00
O354   O     0.00000   0.28036   0.83755   0.00000  Uiso   1.00
O355   O    -0.00000   0.21963   0.16245   0.00000  Uiso   1.00
O356   O     0.21963  -0.00000   0.83755   0.00000  Uiso   1.00
O357   O     0.25000  -0.00000   0.75000   0.00000  Uiso   1.00
O358   O     0.28036  -0.00000   0.16245   0.00000  Uiso   1.00
O359   O     0.20724   0.07307   0.27302   0.00000  Uiso   1.00
O360   O     0.29275   0.42692   0.72698   0.00000  Uiso   1.00
O361   O     0.42692   0.20724   0.27302   0.00000  Uiso   1.00
O362   O     0.07307   0.29275   0.72698   0.00000  Uiso   1.00
O363   O     0.29275   0.42692   0.27302   0.00000  Uiso   1.00
O364   O     0.20724   0.07307   0.72698   0.00000  Uiso   1.00
O365   O     0.07307   0.29275   0.27302   0.00000  Uiso   1.00
O366   O     0.42692   0.20724   0.72698   0.00000  Uiso   1.00
O367   O     0.20724   0.42692   0.72698   0.00000  Uiso   1.00
O368   O     0.00000   0.25000   0.25000   0.00000  Uiso   1.00
O369   O     0.29275   0.07307   0.27302   0.00000  Uiso   1.00
O370   O     0.42692   0.29275   0.72698   0.00000  Uiso   1.00
O371   O     0.07307   0.20724   0.27302   0.00000  Uiso   1.00
O372   O     0.29275   0.07307   0.72698   0.00000  Uiso   1.00
O373   O     0.20724   0.42692   0.27302   0.00000  Uiso   1.00
O374   O     0.07307   0.20724   0.72698   0.00000  Uiso   1.00
O375   O     0.42692   0.29275   0.27302   0.00000  Uiso   1.00
O376   O     0.45724   0.32307   0.77302   0.00000  Uiso   1.00
O377   O     0.04275   0.17692   0.22698   0.00000  Uiso   1.00
O378   O     0.17692   0.45724   0.77302   0.00000  Uiso   1.00
O379   O     0.00000   0.25000   0.75000   0.00000  Uiso   1.00
O380   O     0.32307   0.04275   0.22698   0.00000  Uiso   1.00
O381   O     0.04275   0.17692   0.77302   0.00000  Uiso   1.00
O382   O     0.45724   0.32307   0.22698   0.00000  Uiso   1.00
O383   O     0.32307   0.04275   0.77302   0.00000  Uiso   1.00
O384   O     0.17692   0.45724   0.22698   0.00000  Uiso   1.00
O385   O     0.45724   0.17692   0.22698   0.00000  Uiso   1.00
O386   O     0.04275   0.32307   0.77302   0.00000  Uiso   1.00
O387   O     0.17692   0.04275   0.22698   0.00000  Uiso   1.00
O388   O     0.32307   0.45724   0.77302   0.00000  Uiso   1.00
O389   O     0.04275   0.32307   0.22698   0.00000  Uiso   1.00
O390   O     0.25000   0.46963   0.33755   0.00000  Uiso   1.00
O391   O     0.45724   0.17692   0.77302   0.00000  Uiso   1.00
O392   O     0.32307   0.45724   0.22698   0.00000  Uiso   1.00
O393   O     0.17692   0.04275   0.77302   0.00000  Uiso   1.00
O394   O     0.14838   0.40492   0.17930   0.00000  Uiso   1.00
O395   O     0.34923   0.09689   0.81977   0.00000  Uiso   1.00
O396   O     0.05145   0.10511   0.24441   0.00000  Uiso   1.00
O397   O     0.44810   0.39474   0.75969   0.00000  Uiso   1.00
O398   O     0.35170   0.09498   0.18018   0.00000  Uiso   1.00
O399   O     0.15067   0.40191   0.82145   0.00000  Uiso   1.00
O400   O     0.44846   0.39484   0.24311   0.00000  Uiso   1.00
O401   O     0.25000   0.03036   0.66245   0.00000  Uiso   1.00
O402   O     0.05210   0.10537   0.76153   0.00000  Uiso   1.00
O403   O     0.10516   0.05154   0.75689   0.00000  Uiso   1.00
O404   O     0.39463   0.44790   0.23847   0.00000  Uiso   1.00
O405   O     0.09508   0.35161   0.82071   0.00000  Uiso   1.00
O406   O     0.40311   0.15077   0.18023   0.00000  Uiso   1.00
O407   O     0.39489   0.44856   0.75545   0.00000  Uiso   1.00
O408   O     0.10527   0.05192   0.24014   0.00000  Uiso   1.00
O409   O     0.40503   0.14830   0.81982   0.00000  Uiso   1.00
O410   O     0.09809   0.34933   0.17855   0.00000  Uiso   1.00
O411   O     0.39838   0.15492   0.67930   0.00000  Uiso   1.00
O412   O     0.03036   0.25000   0.33755   0.00000  Uiso   1.00
O413   O     0.09924   0.34688   0.31977   0.00000  Uiso   1.00
O414   O     0.30144   0.35511   0.74455   0.00000  Uiso   1.00
O415   O     0.19808   0.14473   0.25985   0.00000  Uiso   1.00
O416   O     0.10170   0.34497   0.68018   0.00000  Uiso   1.00
O417   O     0.40068   0.15190   0.32145   0.00000  Uiso   1.00
O418   O     0.19846   0.14484   0.74311   0.00000  Uiso   1.00
O419   O     0.30210   0.35537   0.26153   0.00000  Uiso   1.00
O420   O     0.35516   0.30154   0.25689   0.00000  Uiso   1.00
O421   O     0.14463   0.19790   0.73847   0.00000  Uiso   1.00
O422   O     0.34508   0.10161   0.32071   0.00000  Uiso   1.00
O423   O     0.46963   0.25000   0.66245   0.00000  Uiso   1.00
O424   O     0.15311   0.40077   0.68023   0.00000  Uiso   1.00
O425   O     0.14489   0.19855   0.25559   0.00000  Uiso   1.00
O426   O     0.35526   0.30190   0.74031   0.00000  Uiso   1.00
O427   O     0.15503   0.39830   0.31982   0.00000  Uiso   1.00
O428   O     0.34809   0.09933   0.67855   0.00000  Uiso   1.00
O429   O     0.45160   0.29396   0.39734   0.00000  Uiso   1.00
O430   O     0.04902   0.20661   0.60269   0.00000  Uiso   1.00
O431   O     0.20663   0.04889   0.39737   0.00000  Uiso   1.00
O432   O     0.29415   0.45170   0.60273   0.00000  Uiso   1.00
O433   O     0.04830   0.20585   0.39727   0.00000  Uiso   1.00
O434   O     0.25000   0.03036   0.33755   0.00000  Uiso   1.00
O435   O     0.45112   0.29338   0.60263   0.00000  Uiso   1.00
O436   O     0.29338   0.45097   0.39731   0.00000  Uiso   1.00
O437   O     0.20604   0.04841   0.60265   0.00000  Uiso   1.00
O438   O     0.20159   0.04396   0.89735   0.00000  Uiso   1.00
O439   O     0.29903   0.45662   0.10269   0.00000  Uiso   1.00
O440   O     0.45662   0.29888   0.89737   0.00000  Uiso   1.00
O441   O     0.04415   0.20170   0.10273   0.00000  Uiso   1.00
O442   O     0.29830   0.45585   0.89727   0.00000  Uiso   1.00
O443   O     0.20111   0.04337   0.10263   0.00000  Uiso   1.00
O444   O     0.04339   0.20098   0.89731   0.00000  Uiso   1.00
Zn445  Zn    0.20659  -0.00000   0.21735   0.00000  Uiso   1.00
Zn446  Zn    0.04340   0.25000   0.28265   0.00000  Uiso   1.00
Zn447  Zn    0.25000   0.45659   0.71735   0.00000  Uiso   1.00
Zn448  Zn    0.25000   0.04340   0.28265   0.00000  Uiso   1.00
Zn449  Zn    0.04340   0.25000   0.71735   0.00000  Uiso   1.00
Zn450  Zn    0.45659   0.25000   0.28265   0.00000  Uiso   1.00
Zn451  Zn    0.25000   0.04340   0.71735   0.00000  Uiso   1.00
Zn452  Zn    0.25000   0.45659   0.28265   0.00000  Uiso   1.00
Zn453  Zn    0.29340  -0.00000   0.78265   0.00000  Uiso   1.00
Zn454  Zn    0.00000   0.20659   0.21735   0.00000  Uiso   1.00
Zn455  Zn    0.00000   0.29340   0.78265   0.00000  Uiso   1.00
Zn456  Zn    0.29340  -0.00000   0.21735   0.00000  Uiso   1.00
Zn457  Zn    0.20659  -0.00000   0.78265   0.00000  Uiso   1.00
Zn458  Zn    0.00000   0.29340   0.21735   0.00000  Uiso   1.00
Zn459  Zn   -0.00000   0.20659   0.78265   0.00000  Uiso   1.00
Zn460  Zn    0.45659   0.25000   0.71735   0.00000  Uiso   1.00
C461   C     0.97412   0.27083   0.41823   0.00000  Uiso   1.00
C462   C     0.77611   0.47930   0.08175   0.00000  Uiso   1.00
C463   C     0.73205   0.02851   0.54102   0.00000  Uiso   1.00
C464   C     0.97149   0.26795   0.45898   0.00000  Uiso   1.00
C465   C     0.52857   0.23196   0.54095   0.00000  Uiso   1.00
C466   C     0.73224   0.02861   0.45904   0.00000  Uiso   1.00
C467   C     0.76823   0.47158   0.54105   0.00000  Uiso   1.00
C468   C     0.77842   0.48177   0.95895   0.00000  Uiso   1.00
C469   C     0.72139   0.01776   0.04096   0.00000  Uiso   1.00
C470   C     0.51804   0.22143   0.95904   0.00000  Uiso   1.00
C471   C     0.98205   0.27850   0.04102   0.00000  Uiso   1.00
C472   C     0.72149   0.01795   0.95898   0.00000  Uiso   1.00
C473   C     0.97946   0.27608   0.91827   0.00000  Uiso   1.00
C474   C     0.77857   0.48196   0.04095   0.00000  Uiso   1.00
C475   C     0.98223   0.27861   0.95904   0.00000  Uiso   1.00
C476   C     0.51823   0.22158   0.04105   0.00000  Uiso   1.00
C477   C     0.59869   0.34732   0.24941   0.00000  Uiso   1.00
C478   C     0.90258   0.15115   0.74967   0.00000  Uiso   1.00
C479   C     0.65180   0.09819   0.25000   0.00000  Uiso   1.00
C480   C     0.84799   0.40201   0.75000   0.00000  Uiso   1.00
C481   C     0.90268   0.15131   0.25059   0.00000  Uiso   1.00
C482   C     0.59885   0.34742   0.75034   0.00000  Uiso   1.00
C483   C     0.84819   0.40181   0.25000   0.00000  Uiso   1.00
C484   C     0.52104   0.22420   0.08181   0.00000  Uiso   1.00
C485   C     0.65201   0.09799   0.75000   0.00000  Uiso   1.00
C486   C     0.59819   0.15181   0.75000   0.00000  Uiso   1.00
C487   C     0.90201   0.34799   0.25000   0.00000  Uiso   1.00
C488   C     0.65268   0.40130   0.75059   0.00000  Uiso   1.00
C489   C     0.84885   0.09742   0.25034   0.00000  Uiso   1.00
C490   C     0.90180   0.34819   0.75000   0.00000  Uiso   1.00
C491   C     0.59799   0.15201   0.25000   0.00000  Uiso   1.00
C492   C     0.84869   0.09732   0.74941   0.00000  Uiso   1.00
C493   C     0.65258   0.40115   0.24966   0.00000  Uiso   1.00
C494   C     0.99996   0.24985   0.47948   0.00000  Uiso   1.00
C495   C     0.77580   0.47897   0.91819   0.00000  Uiso   1.00
C496   C     0.99997   0.24985   0.52045   0.00000  Uiso   1.00
C497   C     0.75015   0.00003   0.47955   0.00000  Uiso   1.00
C498   C     0.75015   0.00004   0.52052   0.00000  Uiso   1.00
C499   C     0.74996   0.49985   0.97948   0.00000  Uiso   1.00
C500   C     0.74997   0.49985   0.02045   0.00000  Uiso   1.00
C501   C     0.50015   0.25003   0.97955   0.00000  Uiso   1.00
C502   C     0.50015   0.25004   0.02052   0.00000  Uiso   1.00
C503   C     0.68078   0.38841   0.16574   0.00000  Uiso   1.00
C504   C     0.82051   0.11990   0.83183   0.00000  Uiso   1.00
C505   C     0.53851   0.09872   0.28237   0.00000  Uiso   1.00
C506   C     0.72391   0.02054   0.08173   0.00000  Uiso   1.00
C507   C     0.95498   0.40392   0.79880   0.00000  Uiso   1.00
C508   C     0.87784   0.07062   0.16482   0.00000  Uiso   1.00
C509   C     0.68574   0.38788   0.83018   0.00000  Uiso   1.00
C510   C     0.96165   0.40207   0.28077   0.00000  Uiso   1.00
C511   C     0.54597   0.09679   0.80095   0.00000  Uiso   1.00
C512   C     0.59793   0.03835   0.71922   0.00000  Uiso   1.00
C513   C     0.90321   0.45403   0.19905   0.00000  Uiso   1.00
C514   C     0.61159   0.31921   0.83426   0.00000  Uiso   1.00
C515   C     0.88010   0.17949   0.16817   0.00000  Uiso   1.00
C516   C     0.90123   0.46145   0.71746   0.00000  Uiso   1.00
C517   C     0.52071   0.22390   0.91825   0.00000  Uiso   1.00
C518   C     0.59615   0.04510   0.20101   0.00000  Uiso   1.00
C519   C     0.92938   0.12216   0.83518   0.00000  Uiso   1.00
C520   C     0.61212   0.31427   0.16982   0.00000  Uiso   1.00
C521   C     0.93078   0.13841   0.66574   0.00000  Uiso   1.00
C522   C     0.57051   0.36989   0.33183   0.00000  Uiso   1.00
C523   C     0.78855   0.34877   0.78254   0.00000  Uiso   1.00
C524   C     0.70490   0.15385   0.29898   0.00000  Uiso   1.00
C525   C     0.62784   0.32062   0.66482   0.00000  Uiso   1.00
C526   C     0.93574   0.13788   0.33018   0.00000  Uiso   1.00
C527   C     0.71165   0.15207   0.78078   0.00000  Uiso   1.00
C528   C     0.97917   0.27588   0.08177   0.00000  Uiso   1.00
C529   C     0.79597   0.34679   0.30095   0.00000  Uiso   1.00
C530   C     0.84793   0.28835   0.21922   0.00000  Uiso   1.00
C531   C     0.65321   0.20403   0.69905   0.00000  Uiso   1.00
C532   C     0.86160   0.06921   0.33426   0.00000  Uiso   1.00
C533   C     0.63010   0.42949   0.66817   0.00000  Uiso   1.00
C534   C     0.65128   0.21149   0.21763   0.00000  Uiso   1.00
C535   C     0.84608   0.29502   0.70120   0.00000  Uiso   1.00
C536   C     0.67939   0.37215   0.33518   0.00000  Uiso   1.00
C537   C     0.86212   0.06426   0.66982   0.00000  Uiso   1.00
C538   C     0.96890   0.32832   0.39429   0.00000  Uiso   1.00
C539   C     0.99997   0.24993   0.39821   0.00000  Uiso   1.00
C540   C     0.53227   0.17200   0.60596   0.00000  Uiso   1.00
C541   C     0.67196   0.03216   0.39469   0.00000  Uiso   1.00
C542   C     0.82850   0.46902   0.60576   0.00000  Uiso   1.00
C543   C     0.53097   0.17150   0.39424   0.00000  Uiso   1.00
C544   C     0.96785   0.32804   0.60531   0.00000  Uiso   1.00
C545   C     0.82800   0.46772   0.39404   0.00000  Uiso   1.00
C546   C     0.67168   0.03111   0.60571   0.00000  Uiso   1.00
C547   C     0.71889   0.07832   0.89429   0.00000  Uiso   1.00
C548   C     0.78228   0.42200   0.10596   0.00000  Uiso   1.00
C549   C     0.92195   0.28215   0.89469   0.00000  Uiso   1.00
C550   C     0.50002   0.24994   0.60175   0.00000  Uiso   1.00
C551   C     0.57850   0.21903   0.10576   0.00000  Uiso   1.00
C552   C     0.78098   0.42150   0.89424   0.00000  Uiso   1.00
C553   C     0.71783   0.07804   0.10531   0.00000  Uiso   1.00
C554   C     0.57800   0.21773   0.89404   0.00000  Uiso   1.00
C555   C     0.92168   0.28110   0.10571   0.00000  Uiso   1.00
C556   C     0.75006   0.49998   0.39825   0.00000  Uiso   1.00
C557   C     0.52610   0.22929   0.58175   0.00000  Uiso   1.00
C558   C     0.75007   0.00003   0.60179   0.00000  Uiso   1.00
C559   C     0.74997   0.49993   0.89821   0.00000  Uiso   1.00
C560   C     0.75002   0.49994   0.10175   0.00000  Uiso   1.00
C561   C     0.50006   0.24998   0.89825   0.00000  Uiso   1.00
C562   C     0.50007   0.25003   0.10179   0.00000  Uiso   1.00
C563   C     0.55855   0.21722   0.47959   0.00000  Uiso   1.00
C564   C     0.94124   0.28224   0.52029   0.00000  Uiso   1.00
C565   C     0.78258   0.44132   0.47976   0.00000  Uiso   1.00
C566   C     0.71757   0.05866   0.52035   0.00000  Uiso   1.00
C567   C     0.94135   0.28244   0.47965   0.00000  Uiso   1.00
C568   C     0.72946   0.02608   0.41827   0.00000  Uiso   1.00
C569   C     0.55867   0.21742   0.52023   0.00000  Uiso   1.00
C570   C     0.71777   0.05876   0.47971   0.00000  Uiso   1.00
C571   C     0.78277   0.44145   0.52041   0.00000  Uiso   1.00
C572   C     0.80855   0.46723   0.97959   0.00000  Uiso   1.00
C573   C     0.69124   0.03223   0.02029   0.00000  Uiso   1.00
C574   C     0.53259   0.19133   0.97976   0.00000  Uiso   1.00
C575   C     0.96756   0.30865   0.02035   0.00000  Uiso   1.00
C576   C     0.69134   0.03243   0.97965   0.00000  Uiso   1.00
C577   C     0.80868   0.46742   0.02023   0.00000  Uiso   1.00
C578   C     0.96776   0.30876   0.97971   0.00000  Uiso   1.00
C579   C     0.77103   0.47420   0.58181   0.00000  Uiso   1.00
C580   C     0.53278   0.19145   0.02041   0.00000  Uiso   1.00
C581   C     0.75001   0.49999   0.35586   0.00000  Uiso   1.00
C582   C     0.75002   0.00001   0.64416   0.00000  Uiso   1.00
C583   C     0.99999   0.24998   0.35584   0.00000  Uiso   1.00
C584   C     0.50001   0.24999   0.64414   0.00000  Uiso   1.00
C585   C     0.50001   0.24999   0.85586   0.00000  Uiso   1.00
C586   C     0.50002   0.25001   0.14416   0.00000  Uiso   1.00
C587   C     0.74999   0.49998   0.85584   0.00000  Uiso   1.00
C588   C     0.75001   0.49999   0.14414   0.00000  Uiso   1.00
C589   C     0.67994   0.07006   0.25000   0.00000  Uiso   1.00
C590   C     0.52580   0.22897   0.41819   0.00000  Uiso   1.00
C591   C     0.81998   0.43002   0.75000   0.00000  Uiso   1.00
C592   C     0.93009   0.17994   0.25009   0.00000  Uiso   1.00
C593   C     0.57001   0.32005   0.74988   0.00000  Uiso   1.00
C594   C     0.82006   0.42994   0.25000   0.00000  Uiso   1.00
C595   C     0.68001   0.06998   0.75000   0.00000  Uiso   1.00
C596   C     0.57006   0.31991   0.24991   0.00000  Uiso   1.00
C597   C     0.92995   0.17999   0.75012   0.00000  Uiso   1.00
C598   C     0.68009   0.42994   0.75009   0.00000  Uiso   1.00
C599   C     0.82001   0.07005   0.24988   0.00000  Uiso   1.00
C600   C     0.92994   0.32006   0.75000   0.00000  Uiso   1.00
C601   C     0.97392   0.27054   0.58173   0.00000  Uiso   1.00
C602   C     0.56998   0.18002   0.25000   0.00000  Uiso   1.00
C603   C     0.82006   0.06991   0.74991   0.00000  Uiso   1.00
C604   C     0.67995   0.42999   0.25012   0.00000  Uiso   1.00
C605   C     0.57006   0.17994   0.75000   0.00000  Uiso   1.00
C606   C     0.93001   0.31999   0.25000   0.00000  Uiso   1.00
C607   C     0.63826   0.38876   0.21403   0.00000  Uiso   1.00
C608   C     0.86283   0.10992   0.78490   0.00000  Uiso   1.00
C609   C     0.58788   0.11510   0.24655   0.00000  Uiso   1.00
C610   C     0.91169   0.38501   0.75590   0.00000  Uiso   1.00
C611   C     0.86459   0.10871   0.21503   0.00000  Uiso   1.00
C612   C     0.77070   0.47389   0.41825   0.00000  Uiso   1.00
C613   C     0.63886   0.38813   0.78616   0.00000  Uiso   1.00
C614   C     0.91206   0.38486   0.24585   0.00000  Uiso   1.00
C615   C     0.58841   0.11508   0.75676   0.00000  Uiso   1.00
C616   C     0.61514   0.08793   0.75415   0.00000  Uiso   1.00
C617   C     0.88492   0.41159   0.24324   0.00000  Uiso   1.00
C618   C     0.61125   0.36173   0.78597   0.00000  Uiso   1.00
C619   C     0.89008   0.13717   0.21510   0.00000  Uiso   1.00
C620   C     0.88491   0.41213   0.75338   0.00000  Uiso   1.00
C621   C     0.61500   0.08832   0.24403   0.00000  Uiso   1.00
C622   C     0.89129   0.13541   0.78497   0.00000  Uiso   1.00
C623   C     0.72917   0.02588   0.58177   0.00000  Uiso   1.00
C624   C     0.61187   0.36115   0.21384   0.00000  Uiso   1.00
C625   C     0.88826   0.13876   0.71403   0.00000  Uiso   1.00
C626   C     0.61283   0.35991   0.28490   0.00000  Uiso   1.00
C627   C     0.83787   0.36509   0.74662   0.00000  Uiso   1.00
C628   C     0.66168   0.13500   0.25597   0.00000  Uiso   1.00
C629   C     0.61459   0.35870   0.71503   0.00000  Uiso   1.00
C630   C     0.88886   0.13813   0.28616   0.00000  Uiso   1.00
C631   C     0.66206   0.13486   0.74585   0.00000  Uiso   1.00
C632   C     0.83841   0.36508   0.25676   0.00000  Uiso   1.00
C633   C     0.86514   0.33793   0.25415   0.00000  Uiso   1.00
C634   C     0.72412   0.02083   0.91823   0.00000  Uiso   1.00
C635   C     0.63492   0.16159   0.74324   0.00000  Uiso   1.00
C636   C     0.86124   0.11173   0.28597   0.00000  Uiso   1.00
C637   C     0.64008   0.38717   0.71510   0.00000  Uiso   1.00
C638   C     0.63490   0.16212   0.25345   0.00000  Uiso   1.00
C639   C     0.86499   0.33831   0.74410   0.00000  Uiso   1.00
C640   C     0.64130   0.38541   0.28497   0.00000  Uiso   1.00
C641   C     0.86187   0.11115   0.71384   0.00000  Uiso   1.00
C642   C     0.52842   0.23177   0.45895   0.00000  Uiso   1.00
C643   C     0.97139   0.26777   0.54096   0.00000  Uiso   1.00
C644   C     0.76804   0.47143   0.45904   0.00000  Uiso   1.00
Cl645  Cl    0.59860   0.20157   0.45563   0.00000  Uiso   1.00
Cl646  Cl    0.65092   0.04734   0.04415   0.00000  Uiso   1.00
Cl647  Cl    0.54782   0.15103   0.95598   0.00000  Uiso   1.00
Cl648  Cl    0.95196   0.34874   0.04426   0.00000  Uiso   1.00
Cl649  Cl    0.65126   0.04803   0.95574   0.00000  Uiso   1.00
Cl650  Cl    0.84897   0.45220   0.04402   0.00000  Uiso   1.00
Cl651  Cl    0.95264   0.34907   0.95585   0.00000  Uiso   1.00
Cl652  Cl    0.54844   0.15140   0.04437   0.00000  Uiso   1.00
Cl653  Cl    0.90093   0.29736   0.54415   0.00000  Uiso   1.00
Cl654  Cl    0.79780   0.40103   0.45598   0.00000  Uiso   1.00
Cl655  Cl    0.70197   0.09874   0.54426   0.00000  Uiso   1.00
Cl656  Cl    0.90126   0.29804   0.45574   0.00000  Uiso   1.00
Cl657  Cl    0.59897   0.20219   0.54402   0.00000  Uiso   1.00
Cl658  Cl    0.70266   0.09908   0.45585   0.00000  Uiso   1.00
Cl659  Cl    0.79842   0.40140   0.54437   0.00000  Uiso   1.00
Cl660  Cl    0.84860   0.45158   0.95563   0.00000  Uiso   1.00
H661   H     0.70345   0.39057   0.18712   0.00000  Uiso   1.00
H662   H     0.94602   0.38192   0.81906   0.00000  Uiso   1.00
H663   H     0.52758   0.15950   0.57693   0.00000  Uiso   1.00
H664   H     0.50614   0.17363   0.62238   0.00000  Uiso   1.00
H665   H     0.55082   0.15367   0.62233   0.00000  Uiso   1.00
H666   H     0.65962   0.02800   0.42390   0.00000  Uiso   1.00
H667   H     0.67342   0.00573   0.37879   0.00000  Uiso   1.00
H668   H     0.65358   0.05049   0.37809   0.00000  Uiso   1.00
H669   H     0.82647   0.49533   0.62180   0.00000  Uiso   1.00
H670   H     0.84093   0.47356   0.57666   0.00000  Uiso   1.00
H671   H     0.84711   0.45095   0.62238   0.00000  Uiso   1.00
H672   H     0.50466   0.17353   0.37820   0.00000  Uiso   1.00
H673   H     0.94177   0.43019   0.80675   0.00000  Uiso   1.00
H674   H     0.52643   0.15906   0.42334   0.00000  Uiso   1.00
H675   H     0.54904   0.15289   0.37761   0.00000  Uiso   1.00
H676   H     0.97201   0.34039   0.57610   0.00000  Uiso   1.00
H677   H     0.99427   0.32658   0.62120   0.00000  Uiso   1.00
H678   H     0.94952   0.34643   0.62191   0.00000  Uiso   1.00
H679   H     0.84050   0.47241   0.42306   0.00000  Uiso   1.00
H680   H     0.82637   0.49386   0.37762   0.00000  Uiso   1.00
H681   H     0.84633   0.44917   0.37767   0.00000  Uiso   1.00
H682   H     0.67365   0.00487   0.62192   0.00000  Uiso   1.00
H683   H     0.65932   0.02645   0.57661   0.00000  Uiso   1.00
H684   H     0.98487   0.40744   0.80260   0.00000  Uiso   1.00
H685   H     0.65303   0.04925   0.62219   0.00000  Uiso   1.00
H686   H     0.74513   0.07635   0.87808   0.00000  Uiso   1.00
H687   H     0.72355   0.09068   0.92339   0.00000  Uiso   1.00
H688   H     0.70075   0.09697   0.87781   0.00000  Uiso   1.00
H689   H     0.77759   0.40950   0.07693   0.00000  Uiso   1.00
H690   H     0.75614   0.42363   0.12238   0.00000  Uiso   1.00
H691   H     0.80083   0.40367   0.12233   0.00000  Uiso   1.00
H692   H     0.90961   0.27798   0.92390   0.00000  Uiso   1.00
H693   H     0.92342   0.25572   0.87879   0.00000  Uiso   1.00
H694   H     0.90357   0.30047   0.87809   0.00000  Uiso   1.00
H695   H     0.86547   0.05612   0.13979   0.00000  Uiso   1.00
H696   H     0.57647   0.24534   0.12180   0.00000  Uiso   1.00
H697   H     0.59094   0.22357   0.07666   0.00000  Uiso   1.00
H698   H     0.59711   0.20097   0.12239   0.00000  Uiso   1.00
H699   H     0.75467   0.42353   0.87820   0.00000  Uiso   1.00
H700   H     0.77644   0.40907   0.92334   0.00000  Uiso   1.00
H701   H     0.79905   0.40289   0.87761   0.00000  Uiso   1.00
H702   H     0.72200   0.09038   0.07610   0.00000  Uiso   1.00
H703   H     0.74426   0.07658   0.12121   0.00000  Uiso   1.00
H704   H     0.69951   0.09642   0.12191   0.00000  Uiso   1.00
H705   H     0.59050   0.22242   0.92306   0.00000  Uiso   1.00
H706   H     0.88614   0.04952   0.18637   0.00000  Uiso   1.00
H707   H     0.57637   0.24387   0.87762   0.00000  Uiso   1.00
H708   H     0.59634   0.19918   0.87767   0.00000  Uiso   1.00
H709   H     0.92365   0.25486   0.12192   0.00000  Uiso   1.00
H710   H     0.90932   0.27644   0.07661   0.00000  Uiso   1.00
H711   H     0.90302   0.29924   0.12219   0.00000  Uiso   1.00
H712   H     0.90229   0.08548   0.15398   0.00000  Uiso   1.00
H713   H     0.70736   0.40609   0.81846   0.00000  Uiso   1.00
H714   H     0.69023   0.35951   0.81943   0.00000  Uiso   1.00
H715   H     0.68899   0.38730   0.86218   0.00000  Uiso   1.00
H716   H     0.99086   0.40997   0.27864   0.00000  Uiso   1.00
H717   H     0.68964   0.40286   0.13903   0.00000  Uiso   1.00
H718   H     0.96002   0.37738   0.29959   0.00000  Uiso   1.00
H719   H     0.94674   0.42524   0.29441   0.00000  Uiso   1.00
H720   H     0.51626   0.09252   0.80533   0.00000  Uiso   1.00
H721   H     0.55459   0.11945   0.82049   0.00000  Uiso   1.00
H722   H     0.55998   0.07106   0.80936   0.00000  Uiso   1.00
H723   H     0.59003   0.00914   0.72136   0.00000  Uiso   1.00
H724   H     0.62262   0.03998   0.70041   0.00000  Uiso   1.00
H725   H     0.57476   0.05326   0.70559   0.00000  Uiso   1.00
H726   H     0.88055   0.44541   0.17951   0.00000  Uiso   1.00
H727   H     0.92894   0.44002   0.19064   0.00000  Uiso   1.00
H728   H     0.67611   0.35937   0.15790   0.00000  Uiso   1.00
H729   H     0.90748   0.48374   0.19467   0.00000  Uiso   1.00
H730   H     0.60939   0.29654   0.81289   0.00000  Uiso   1.00
H731   H     0.59717   0.31036   0.86098   0.00000  Uiso   1.00
H732   H     0.64064   0.32386   0.84205   0.00000  Uiso   1.00
H733   H     0.88016   0.20236   0.18946   0.00000  Uiso   1.00
H734   H     0.85169   0.16970   0.16313   0.00000  Uiso   1.00
H735   H     0.89056   0.19041   0.14026   0.00000  Uiso   1.00
H736   H     0.90900   0.49072   0.71905   0.00000  Uiso   1.00
H737   H     0.87616   0.45953   0.69928   0.00000  Uiso   1.00
H738   H     0.92418   0.44653   0.70341   0.00000  Uiso   1.00
H739   H     0.79764   0.11984   0.81054   0.00000  Uiso   1.00
H740   H     0.61820   0.05408   0.18081   0.00000  Uiso   1.00
H741   H     0.56990   0.05834   0.19303   0.00000  Uiso   1.00
H742   H     0.59262   0.01522   0.19714   0.00000  Uiso   1.00
H743   H     0.94388   0.13453   0.86021   0.00000  Uiso   1.00
H744   H     0.95048   0.11385   0.81363   0.00000  Uiso   1.00
H745   H     0.91452   0.09771   0.84602   0.00000  Uiso   1.00
H746   H     0.59391   0.29265   0.18152   0.00000  Uiso   1.00
H747   H     0.64049   0.30976   0.18058   0.00000  Uiso   1.00
H748   H     0.61271   0.31102   0.13782   0.00000  Uiso   1.00
H749   H     0.95345   0.14056   0.68712   0.00000  Uiso   1.00
H750   H     0.83030   0.14831   0.83687   0.00000  Uiso   1.00
H751   H     0.93965   0.15285   0.63903   0.00000  Uiso   1.00
H752   H     0.92611   0.10936   0.65791   0.00000  Uiso   1.00
H753   H     0.54764   0.36984   0.31054   0.00000  Uiso   1.00
H754   H     0.58031   0.39830   0.33687   0.00000  Uiso   1.00
H755   H     0.55959   0.35943   0.35974   0.00000  Uiso   1.00
H756   H     0.75928   0.34100   0.78095   0.00000  Uiso   1.00
H757   H     0.79047   0.37385   0.80072   0.00000  Uiso   1.00
H758   H     0.80347   0.32582   0.79659   0.00000  Uiso   1.00
H759   H     0.69592   0.13181   0.31918   0.00000  Uiso   1.00
H760   H     0.69167   0.18010   0.30696   0.00000  Uiso   1.00
H761   H     0.80959   0.10943   0.85974   0.00000  Uiso   1.00
H762   H     0.73479   0.15738   0.30285   0.00000  Uiso   1.00
H763   H     0.61547   0.30612   0.63979   0.00000  Uiso   1.00
H764   H     0.63615   0.29951   0.68637   0.00000  Uiso   1.00
H765   H     0.65229   0.33548   0.65398   0.00000  Uiso   1.00
H766   H     0.95736   0.15610   0.31848   0.00000  Uiso   1.00
H767   H     0.94025   0.10951   0.31941   0.00000  Uiso   1.00
H768   H     0.93898   0.13728   0.36218   0.00000  Uiso   1.00
H769   H     0.74086   0.15997   0.77864   0.00000  Uiso   1.00
H770   H     0.71002   0.12738   0.79959   0.00000  Uiso   1.00
H771   H     0.69674   0.17524   0.79441   0.00000  Uiso   1.00
H772   H     0.50924   0.09096   0.28072   0.00000  Uiso   1.00
H773   H     0.80459   0.36945   0.32049   0.00000  Uiso   1.00
H774   H     0.80998   0.32106   0.30935   0.00000  Uiso   1.00
H775   H     0.76625   0.34252   0.30533   0.00000  Uiso   1.00
H776   H     0.84003   0.25914   0.22136   0.00000  Uiso   1.00
H777   H     0.87262   0.28998   0.20041   0.00000  Uiso   1.00
H778   H     0.82476   0.30326   0.20559   0.00000  Uiso   1.00
H779   H     0.63055   0.19541   0.67951   0.00000  Uiso   1.00
H780   H     0.67894   0.19002   0.69064   0.00000  Uiso   1.00
H781   H     0.65748   0.23374   0.69467   0.00000  Uiso   1.00
H782   H     0.85943   0.04655   0.31288   0.00000  Uiso   1.00
H783   H     0.54041   0.12376   0.30060   0.00000  Uiso   1.00
H784   H     0.84716   0.06035   0.36097   0.00000  Uiso   1.00
H785   H     0.89064   0.07388   0.34208   0.00000  Uiso   1.00
H786   H     0.63016   0.45236   0.68946   0.00000  Uiso   1.00
H787   H     0.60169   0.41970   0.66313   0.00000  Uiso   1.00
H788   H     0.64056   0.44041   0.64026   0.00000  Uiso   1.00
H789   H     0.65904   0.24076   0.21928   0.00000  Uiso   1.00
H790   H     0.62624   0.20959   0.19940   0.00000  Uiso   1.00
H791   H     0.67426   0.19659   0.20360   0.00000  Uiso   1.00
H792   H     0.86808   0.30397   0.68094   0.00000  Uiso   1.00
H793   H     0.81981   0.30823   0.69325   0.00000  Uiso   1.00
H794   H     0.55341   0.07574   0.29639   0.00000  Uiso   1.00
H795   H     0.84255   0.26513   0.69740   0.00000  Uiso   1.00
H796   H     0.69388   0.38453   0.36020   0.00000  Uiso   1.00
H797   H     0.70049   0.36385   0.31362   0.00000  Uiso   1.00
H798   H     0.66452   0.34771   0.34602   0.00000  Uiso   1.00
H799   H     0.84390   0.04265   0.68151   0.00000  Uiso   1.00
H800   H     0.89048   0.05975   0.68059   0.00000  Uiso   1.00
H801   H     0.86272   0.06102   0.63782   0.00000  Uiso   1.00
H802   H     0.99514   0.32635   0.37808   0.00000  Uiso   1.00
H803   H     0.97356   0.34068   0.42339   0.00000  Uiso   1.00
H804   H     0.95075   0.34698   0.37781   0.00000  Uiso   1.00
O805   O     0.75000  -0.00000   0.25000   0.00000  Uiso   1.00
O806   O     0.75000   0.46963   0.66245   0.00000  Uiso   1.00
O807   O     0.95604   0.29840   0.10265   0.00000  Uiso   1.00
O808   O     0.96963   0.25000   0.33755   0.00000  Uiso   1.00
O809   O     0.53036   0.25000   0.66245   0.00000  Uiso   1.00
O810   O     0.50000   0.21963   0.83755   0.00000  Uiso   1.00
O811   O     0.50000   0.28036   0.16245   0.00000  Uiso   1.00
O812   O     0.78036  -0.00000   0.83755   0.00000  Uiso   1.00
O813   O     0.71963  -0.00000   0.16245   0.00000  Uiso   1.00
O814   O     0.50000   0.28036   0.83755   0.00000  Uiso   1.00
O815   O     0.50000   0.21963   0.16245   0.00000  Uiso   1.00
O816   O     0.71963  -0.00000   0.83755   0.00000  Uiso   1.00
O817   O     0.75000  -0.00000   0.75000   0.00000  Uiso   1.00
O818   O     0.78036  -0.00000   0.16245   0.00000  Uiso   1.00
O819   O     0.70724   0.07307   0.27302   0.00000  Uiso   1.00
O820   O     0.79275   0.42692   0.72698   0.00000  Uiso   1.00
O821   O     0.92692   0.20724   0.27302   0.00000  Uiso   1.00
O822   O     0.57307   0.29275   0.72698   0.00000  Uiso   1.00
O823   O     0.79275   0.42692   0.27302   0.00000  Uiso   1.00
O824   O     0.70724   0.07307   0.72698   0.00000  Uiso   1.00
O825   O     0.57307   0.29275   0.27302   0.00000  Uiso   1.00
O826   O     0.92692   0.20724   0.72698   0.00000  Uiso   1.00
O827   O     0.70724   0.42692   0.72698   0.00000  Uiso   1.00
O828   O     0.50000   0.25000   0.25000   0.00000  Uiso   1.00
O829   O     0.79275   0.07307   0.27302   0.00000  Uiso   1.00
O830   O     0.92692   0.29275   0.72698   0.00000  Uiso   1.00
O831   O     0.57307   0.20724   0.27302   0.00000  Uiso   1.00
O832   O     0.79275   0.07307   0.72698   0.00000  Uiso   1.00
O833   O     0.70724   0.42692   0.27302   0.00000  Uiso   1.00
O834   O     0.57307   0.20724   0.72698   0.00000  Uiso   1.00
O835   O     0.92692   0.29275   0.27302   0.00000  Uiso   1.00
O836   O     0.95724   0.32307   0.77302   0.00000  Uiso   1.00
O837   O     0.54275   0.17692   0.22698   0.00000  Uiso   1.00
O838   O     0.67692   0.45724   0.77302   0.00000  Uiso   1.00
O839   O     0.50000   0.25000   0.75000   0.00000  Uiso   1.00
O840   O     0.82307   0.04275   0.22698   0.00000  Uiso   1.00
O841   O     0.54275   0.17692   0.77302   0.00000  Uiso   1.00
O842   O     0.95724   0.32307   0.22698   0.00000  Uiso   1.00
O843   O     0.82307   0.04275   0.77302   0.00000  Uiso   1.00
O844   O     0.67692   0.45724   0.22698   0.00000  Uiso   1.00
O845   O     0.95724   0.17692   0.22698   0.00000  Uiso   1.00
O846   O     0.54275   0.32307   0.77302   0.00000  Uiso   1.00
O847   O     0.67692   0.04275   0.22698   0.00000  Uiso   1.00
O848   O     0.82307   0.45724   0.77302   0.00000  Uiso   1.00
O849   O     0.54275   0.32307   0.22698   0.00000  Uiso   1.00
O850   O     0.75000   0.46963   0.33755   0.00000  Uiso   1.00
O851   O     0.95724   0.17692   0.77302   0.00000  Uiso   1.00
O852   O     0.82307   0.45724   0.22698   0.00000  Uiso   1.00
O853   O     0.67692   0.04275   0.77302   0.00000  Uiso   1.00
O854   O     0.64838   0.40492   0.17930   0.00000  Uiso   1.00
O855   O     0.84923   0.09689   0.81977   0.00000  Uiso   1.00
O856   O     0.55145   0.10511   0.24441   0.00000  Uiso   1.00
O857   O     0.94810   0.39474   0.75969   0.00000  Uiso   1.00
O858   O     0.85170   0.09498   0.18018   0.00000  Uiso   1.00
O859   O     0.65067   0.40191   0.82145   0.00000  Uiso   1.00
O860   O     0.94846   0.39484   0.24311   0.00000  Uiso   1.00
O861   O     0.75000   0.03036   0.66245   0.00000  Uiso   1.00
O862   O     0.55210   0.10537   0.76153   0.00000  Uiso   1.00
O863   O     0.60516   0.05154   0.75689   0.00000  Uiso   1.00
O864   O     0.89463   0.44790   0.23847   0.00000  Uiso   1.00
O865   O     0.59508   0.35161   0.82071   0.00000  Uiso   1.00
O866   O     0.90311   0.15077   0.18023   0.00000  Uiso   1.00
O867   O     0.89489   0.44856   0.75545   0.00000  Uiso   1.00
O868   O     0.60527   0.05192   0.24014   0.00000  Uiso   1.00
O869   O     0.90503   0.14830   0.81982   0.00000  Uiso   1.00
O870   O     0.59809   0.34933   0.17855   0.00000  Uiso   1.00
O871   O     0.89838   0.15492   0.67930   0.00000  Uiso   1.00
O872   O     0.53036   0.25000   0.33755   0.00000  Uiso   1.00
O873   O     0.59924   0.34688   0.31977   0.00000  Uiso   1.00
O874   O     0.80144   0.35511   0.74455   0.00000  Uiso   1.00
O875   O     0.69808   0.14473   0.25985   0.00000  Uiso   1.00
O876   O     0.60170   0.34497   0.68018   0.00000  Uiso   1.00
O877   O     0.90068   0.15190   0.32145   0.00000  Uiso   1.00
O878   O     0.69846   0.14484   0.74311   0.00000  Uiso   1.00
O879   O     0.80210   0.35537   0.26153   0.00000  Uiso   1.00
O880   O     0.85516   0.30154   0.25689   0.00000  Uiso   1.00
O881   O     0.64463   0.19790   0.73847   0.00000  Uiso   1.00
O882   O     0.84508   0.10161   0.32071   0.00000  Uiso   1.00
O883   O     0.96963   0.25000   0.66245   0.00000  Uiso   1.00
O884   O     0.65311   0.40077   0.68023   0.00000  Uiso   1.00
O885   O     0.64489   0.19855   0.25559   0.00000  Uiso   1.00
O886   O     0.85526   0.30190   0.74031   0.00000  Uiso   1.00
O887   O     0.65503   0.39830   0.31982   0.00000  Uiso   1.00
O888   O     0.84809   0.09933   0.67855   0.00000  Uiso   1.00
O889   O     0.95160   0.29396   0.39734   0.00000  Uiso   1.00
O890   O     0.54902   0.20661   0.60269   0.00000  Uiso   1.00
O891   O     0.70663   0.04889   0.39737   0.00000  Uiso   1.00
O892   O     0.79415   0.45170   0.60273   0.00000  Uiso   1.00
O893   O     0.54830   0.20585   0.39727   0.00000  Uiso   1.00
O894   O     0.75000   0.03036   0.33755   0.00000  Uiso   1.00
O895   O     0.95112   0.29338   0.60263   0.00000  Uiso   1.00
O896   O     0.79338   0.45097   0.39731   0.00000  Uiso   1.00
O897   O     0.70604   0.04841   0.60265   0.00000  Uiso   1.00
O898   O     0.70159   0.04396   0.89735   0.00000  Uiso   1.00
O899   O     0.79903   0.45662   0.10269   0.00000  Uiso   1.00
O900   O     0.95662   0.29888   0.89737   0.00000  Uiso   1.00
O901   O     0.54415   0.20170   0.10273   0.00000  Uiso   1.00
O902   O     0.79830   0.45585   0.89727   0.00000  Uiso   1.00
O903   O     0.70111   0.04337   0.10263   0.00000  Uiso   1.00
O904   O     0.54339   0.20098   0.89731   0.00000  Uiso   1.00
Zn905  Zn    0.70659  -0.00000   0.21735   0.00000  Uiso   1.00
Zn906  Zn    0.54340   0.25000   0.28265   0.00000  Uiso   1.00
Zn907  Zn    0.75000   0.45659   0.71735   0.00000  Uiso   1.00
Zn908  Zn    0.75000   0.04340   0.28265   0.00000  Uiso   1.00
Zn909  Zn    0.54340   0.25000   0.71735   0.00000  Uiso   1.00
Zn910  Zn    0.95659   0.25000   0.28265   0.00000  Uiso   1.00
Zn911  Zn    0.75000   0.04340   0.71735   0.00000  Uiso   1.00
Zn912  Zn    0.75000   0.45659   0.28265   0.00000  Uiso   1.00
Zn913  Zn    0.79340  -0.00000   0.78265   0.00000  Uiso   1.00
Zn914  Zn    0.50000   0.20659   0.21735   0.00000  Uiso   1.00
Zn915  Zn    0.50000   0.29340   0.78265   0.00000  Uiso   1.00
Zn916  Zn    0.79340  -0.00000   0.21735   0.00000  Uiso   1.00
Zn917  Zn    0.70659  -0.00000   0.78265   0.00000  Uiso   1.00
Zn918  Zn    0.50000   0.29340   0.21735   0.00000  Uiso   1.00
Zn919  Zn    0.50000   0.20659   0.78265   0.00000  Uiso   1.00
Zn920  Zn    0.95659   0.25000   0.71735   0.00000  Uiso   1.00
C921   C     0.47412   0.77083   0.41823   0.00000  Uiso   1.00
C922   C     0.27611   0.97930   0.08175   0.00000  Uiso   1.00
C923   C     0.23205   0.52851   0.54102   0.00000  Uiso   1.00
C924   C     0.47149   0.76795   0.45898   0.00000  Uiso   1.00
C925   C     0.02857   0.73196   0.54095   0.00000  Uiso   1.00
C926   C     0.23224   0.52861   0.45904   0.00000  Uiso   1.00
C927   C     0.26823   0.97158   0.54105   0.00000  Uiso   1.00
C928   C     0.27842   0.98177   0.95895   0.00000  Uiso   1.00
C929   C     0.22139   0.51776   0.04096   0.00000  Uiso   1.00
C930   C     0.01804   0.72143   0.95904   0.00000  Uiso   1.00
C931   C     0.48205   0.77850   0.04102   0.00000  Uiso   1.00
C932   C     0.22149   0.51795   0.95898   0.00000  Uiso   1.00
C933   C     0.47946   0.77608   0.91827   0.00000  Uiso   1.00
C934   C     0.27857   0.98196   0.04095   0.00000  Uiso   1.00
C935   C     0.48223   0.77861   0.95904   0.00000  Uiso   1.00
C936   C     0.01823   0.72158   0.04105   0.00000  Uiso   1.00
C937   C     0.09869   0.84732   0.24941   0.00000  Uiso   1.00
C938   C     0.40258   0.65115   0.74967   0.00000  Uiso   1.00
C939   C     0.15180   0.59819   0.25000   0.00000  Uiso   1.00
C940   C     0.34799   0.90201   0.75000   0.00000  Uiso   1.00
C941   C     0.40268   0.65131   0.25059   0.00000  Uiso   1.00
C942   C     0.09885   0.84742   0.75034   0.00000  Uiso   1.00
C943   C     0.34819   0.90181   0.25000   0.00000  Uiso   1.00
C944   C     0.02104   0.72420   0.08181   0.00000  Uiso   1.00
C945   C     0.15201   0.59799   0.75000   0.00000  Uiso   1.00
C946   C     0.09819   0.65181   0.75000   0.00000  Uiso   1.00
C947   C     0.40201   0.84799   0.25000   0.00000  Uiso   1.00
C948   C     0.15268   0.90130   0.75059   0.00000  Uiso   1.00
C949   C     0.34885   0.59742   0.25034   0.00000  Uiso   1.00
C950   C     0.40180   0.84819   0.75000   0.00000  Uiso   1.00
C951   C     0.09799   0.65201   0.25000   0.00000  Uiso   1.00
C952   C     0.34869   0.59732   0.74941   0.00000  Uiso   1.00
C953   C     0.15258   0.90115   0.24966   0.00000  Uiso   1.00
C954   C     0.49996   0.74985   0.47948   0.00000  Uiso   1.00
C955   C     0.27580   0.97897   0.91819   0.00000  Uiso   1.00
C956   C     0.49997   0.74985   0.52045   0.00000  Uiso   1.00
C957   C     0.25015   0.50003   0.47955   0.00000  Uiso   1.00
C958   C     0.25015   0.50004   0.52052   0.00000  Uiso   1.00
C959   C     0.24996   0.99985   0.97948   0.00000  Uiso   1.00
C960   C     0.24997   0.99985   0.02045   0.00000  Uiso   1.00
C961   C     0.00015   0.75003   0.97955   0.00000  Uiso   1.00
C962   C     0.00015   0.75004   0.02052   0.00000  Uiso   1.00
C963   C     0.18078   0.88841   0.16574   0.00000  Uiso   1.00
C964   C     0.32051   0.61990   0.83183   0.00000  Uiso   1.00
C965   C     0.03851   0.59872   0.28237   0.00000  Uiso   1.00
C966   C     0.22391   0.52054   0.08173   0.00000  Uiso   1.00
C967   C     0.45498   0.90392   0.79880   0.00000  Uiso   1.00
C968   C     0.37784   0.57062   0.16482   0.00000  Uiso   1.00
C969   C     0.18574   0.88788   0.83018   0.00000  Uiso   1.00
C970   C     0.46165   0.90207   0.28077   0.00000  Uiso   1.00
C971   C     0.04597   0.59679   0.80095   0.00000  Uiso   1.00
C972   C     0.09793   0.53835   0.71922   0.00000  Uiso   1.00
C973   C     0.40321   0.95403   0.19905   0.00000  Uiso   1.00
C974   C     0.11159   0.81921   0.83426   0.00000  Uiso   1.00
C975   C     0.38010   0.67949   0.16817   0.00000  Uiso   1.00
C976   C     0.40123   0.96145   0.71746   0.00000  Uiso   1.00
C977   C     0.02071   0.72390   0.91825   0.00000  Uiso   1.00
C978   C     0.09615   0.54510   0.20101   0.00000  Uiso   1.00
C979   C     0.42938   0.62216   0.83518   0.00000  Uiso   1.00
C980   C     0.11212   0.81427   0.16982   0.00000  Uiso   1.00
C981   C     0.43078   0.63841   0.66574   0.00000  Uiso   1.00
C982   C     0.07051   0.86989   0.33183   0.00000  Uiso   1.00
C983   C     0.28855   0.84877   0.78254   0.00000  Uiso   1.00
C984   C     0.20490   0.65385   0.29898   0.00000  Uiso   1.00
C985   C     0.12784   0.82062   0.66482   0.00000  Uiso   1.00
C986   C     0.43574   0.63788   0.33018   0.00000  Uiso   1.00
C987   C     0.21165   0.65207   0.78078   0.00000  Uiso   1.00
C988   C     0.47917   0.77588   0.08177   0.00000  Uiso   1.00
C989   C     0.29597   0.84679   0.30095   0.00000  Uiso   1.00
C990   C     0.34793   0.78835   0.21922   0.00000  Uiso   1.00
C991   C     0.15321   0.70403   0.69905   0.00000  Uiso   1.00
C992   C     0.36160   0.56921   0.33426   0.00000  Uiso   1.00
C993   C     0.13010   0.92949   0.66817   0.00000  Uiso   1.00
C994   C     0.15128   0.71149   0.21763   0.00000  Uiso   1.00
C995   C     0.34608   0.79502   0.70120   0.00000  Uiso   1.00
C996   C     0.17939   0.87215   0.33518   0.00000  Uiso   1.00
C997   C     0.36212   0.56426   0.66982   0.00000  Uiso   1.00
C998   C     0.46890   0.82832   0.39429   0.00000  Uiso   1.00
C999   C     0.49997   0.74993   0.39821   0.00000  Uiso   1.00
C1000  C     0.03227   0.67200   0.60596   0.00000  Uiso   1.00
C1001  C     0.17196   0.53216   0.39469   0.00000  Uiso   1.00
C1002  C     0.32850   0.96902   0.60576   0.00000  Uiso   1.00
C1003  C     0.03097   0.67150   0.39424   0.00000  Uiso   1.00
C1004  C     0.46785   0.82804   0.60531   0.00000  Uiso   1.00
C1005  C     0.32800   0.96772   0.39404   0.00000  Uiso   1.00
C1006  C     0.17168   0.53111   0.60571   0.00000  Uiso   1.00
C1007  C     0.21889   0.57832   0.89429   0.00000  Uiso   1.00
C1008  C     0.28228   0.92200   0.10596   0.00000  Uiso   1.00
C1009  C     0.42195   0.78215   0.89469   0.00000  Uiso   1.00
C1010  C     0.00002   0.74994   0.60175   0.00000  Uiso   1.00
C1011  C     0.07850   0.71903   0.10576   0.00000  Uiso   1.00
C1012  C     0.28098   0.92150   0.89424   0.00000  Uiso   1.00
C1013  C     0.21783   0.57804   0.10531   0.00000  Uiso   1.00
C1014  C     0.07800   0.71773   0.89404   0.00000  Uiso   1.00
C1015  C     0.42168   0.78110   0.10571   0.00000  Uiso   1.00
C1016  C     0.25006   0.99998   0.39825   0.00000  Uiso   1.00
C1017  C     0.02610   0.72929   0.58175   0.00000  Uiso   1.00
C1018  C     0.25007   0.50003   0.60179   0.00000  Uiso   1.00
C1019  C     0.24997   0.99993   0.89821   0.00000  Uiso   1.00
C1020  C     0.25002   0.99994   0.10175   0.00000  Uiso   1.00
C1021  C     0.00006   0.74998   0.89825   0.00000  Uiso   1.00
C1022  C     0.00007   0.75003   0.10179   0.00000  Uiso   1.00
C1023  C     0.05855   0.71722   0.47959   0.00000  Uiso   1.00
C1024  C     0.44124   0.78224   0.52029   0.00000  Uiso   1.00
C1025  C     0.28258   0.94132   0.47976   0.00000  Uiso   1.00
C1026  C     0.21757   0.55866   0.52035   0.00000  Uiso   1.00
C1027  C     0.44135   0.78244   0.47965   0.00000  Uiso   1.00
C1028  C     0.22946   0.52608   0.41827   0.00000  Uiso   1.00
C1029  C     0.05867   0.71742   0.52023   0.00000  Uiso   1.00
C1030  C     0.21777   0.55876   0.47971   0.00000  Uiso   1.00
C1031  C     0.28277   0.94145   0.52041   0.00000  Uiso   1.00
C1032  C     0.30855   0.96723   0.97959   0.00000  Uiso   1.00
C1033  C     0.19124   0.53223   0.02029   0.00000  Uiso   1.00
C1034  C     0.03259   0.69133   0.97976   0.00000  Uiso   1.00
C1035  C     0.46756   0.80865   0.02035   0.00000  Uiso   1.00
C1036  C     0.19134   0.53243   0.97965   0.00000  Uiso   1.00
C1037  C     0.30868   0.96742   0.02023   0.00000  Uiso   1.00
C1038  C     0.46776   0.80876   0.97971   0.00000  Uiso   1.00
C1039  C     0.27103   0.97420   0.58181   0.00000  Uiso   1.00
C1040  C     0.03278   0.69145   0.02041   0.00000  Uiso   1.00
C1041  C     0.25001   0.99999   0.35586   0.00000  Uiso   1.00
C1042  C     0.25002   0.50001   0.64416   0.00000  Uiso   1.00
C1043  C     0.49999   0.74998   0.35584   0.00000  Uiso   1.00
C1044  C     0.00001   0.74999   0.64414   0.00000  Uiso   1.00
C1045  C     0.00001   0.74999   0.85586   0.00000  Uiso   1.00
C1046  C     0.00002   0.75001   0.14416   0.00000  Uiso   1.00
C1047  C     0.24999   0.99998   0.85584   0.00000  Uiso   1.00
C1048  C     0.25001   0.99999   0.14414   0.00000  Uiso   1.00
C1049  C     0.17994   0.57006   0.25000   0.00000  Uiso   1.00
C1050  C     0.02580   0.72897   0.41819   0.00000  Uiso   1.00
C1051  C     0.31998   0.93002   0.75000   0.00000  Uiso   1.00
C1052  C     0.43009   0.67994   0.25009   0.00000  Uiso   1.00
C1053  C     0.07001   0.82005   0.74988   0.00000  Uiso   1.00
C1054  C     0.32006   0.92994   0.25000   0.00000  Uiso   1.00
C1055  C     0.18001   0.56998   0.75000   0.00000  Uiso   1.00
C1056  C     0.07006   0.81991   0.24991   0.00000  Uiso   1.00
C1057  C     0.42995   0.67999   0.75012   0.00000  Uiso   1.00
C1058  C     0.18009   0.92994   0.75009   0.00000  Uiso   1.00
C1059  C     0.32001   0.57005   0.24988   0.00000  Uiso   1.00
C1060  C     0.42994   0.82006   0.75000   0.00000  Uiso   1.00
C1061  C     0.47392   0.77054   0.58173   0.00000  Uiso   1.00
C1062  C     0.06998   0.68002   0.25000   0.00000  Uiso   1.00
C1063  C     0.32006   0.56991   0.74991   0.00000  Uiso   1.00
C1064  C     0.17995   0.92999   0.25012   0.00000  Uiso   1.00
C1065  C     0.07006   0.67994   0.75000   0.00000  Uiso   1.00
C1066  C     0.43001   0.81999   0.25000   0.00000  Uiso   1.00
C1067  C     0.13826   0.88876   0.21403   0.00000  Uiso   1.00
C1068  C     0.36283   0.60992   0.78490   0.00000  Uiso   1.00
C1069  C     0.08788   0.61510   0.24655   0.00000  Uiso   1.00
C1070  C     0.41169   0.88501   0.75590   0.00000  Uiso   1.00
C1071  C     0.36459   0.60871   0.21503   0.00000  Uiso   1.00
C1072  C     0.27070   0.97389   0.41825   0.00000  Uiso   1.00
C1073  C     0.13886   0.88813   0.78616   0.00000  Uiso   1.00
C1074  C     0.41206   0.88486   0.24585   0.00000  Uiso   1.00
C1075  C     0.08841   0.61508   0.75676   0.00000  Uiso   1.00
C1076  C     0.11514   0.58793   0.75415   0.00000  Uiso   1.00
C1077  C     0.38492   0.91159   0.24324   0.00000  Uiso   1.00
C1078  C     0.11125   0.86173   0.78597   0.00000  Uiso   1.00
C1079  C     0.39008   0.63717   0.21510   0.00000  Uiso   1.00
C1080  C     0.38491   0.91213   0.75338   0.00000  Uiso   1.00
C1081  C     0.11500   0.58832   0.24403   0.00000  Uiso   1.00
C1082  C     0.39129   0.63541   0.78497   0.00000  Uiso   1.00
C1083  C     0.22917   0.52588   0.58177   0.00000  Uiso   1.00
C1084  C     0.11187   0.86115   0.21384   0.00000  Uiso   1.00
C1085  C     0.38826   0.63876   0.71403   0.00000  Uiso   1.00
C1086  C     0.11283   0.85991   0.28490   0.00000  Uiso   1.00
C1087  C     0.33787   0.86509   0.74662   0.00000  Uiso   1.00
C1088  C     0.16168   0.63500   0.25597   0.00000  Uiso   1.00
C1089  C     0.11459   0.85870   0.71503   0.00000  Uiso   1.00
C1090  C     0.38886   0.63813   0.28616   0.00000  Uiso   1.00
C1091  C     0.16206   0.63486   0.74585   0.00000  Uiso   1.00
C1092  C     0.33841   0.86508   0.25676   0.00000  Uiso   1.00
C1093  C     0.36514   0.83793   0.25415   0.00000  Uiso   1.00
C1094  C     0.22412   0.52083   0.91823   0.00000  Uiso   1.00
C1095  C     0.13492   0.66159   0.74324   0.00000  Uiso   1.00
C1096  C     0.36124   0.61173   0.28597   0.00000  Uiso   1.00
C1097  C     0.14008   0.88717   0.71510   0.00000  Uiso   1.00
C1098  C     0.13490   0.66212   0.25345   0.00000  Uiso   1.00
C1099  C     0.36499   0.83831   0.74410   0.00000  Uiso   1.00
C1100  C     0.14130   0.88541   0.28497   0.00000  Uiso   1.00
C1101  C     0.36187   0.61115   0.71384   0.00000  Uiso   1.00
C1102  C     0.02842   0.73177   0.45895   0.00000  Uiso   1.00
C1103  C     0.47139   0.76777   0.54096   0.00000  Uiso   1.00
C1104  C     0.26804   0.97143   0.45904   0.00000  Uiso   1.00
Cl1105 Cl    0.09860   0.70157   0.45563   0.00000  Uiso   1.00
Cl1106 Cl    0.15092   0.54734   0.04415   0.00000  Uiso   1.00
Cl1107 Cl    0.04782   0.65103   0.95598   0.00000  Uiso   1.00
Cl1108 Cl    0.45196   0.84874   0.04426   0.00000  Uiso   1.00
Cl1109 Cl    0.15126   0.54803   0.95574   0.00000  Uiso   1.00
Cl1110 Cl    0.34897   0.95220   0.04402   0.00000  Uiso   1.00
Cl1111 Cl    0.45264   0.84907   0.95585   0.00000  Uiso   1.00
Cl1112 Cl    0.04844   0.65140   0.04437   0.00000  Uiso   1.00
Cl1113 Cl    0.40093   0.79736   0.54415   0.00000  Uiso   1.00
Cl1114 Cl    0.29780   0.90103   0.45598   0.00000  Uiso   1.00
Cl1115 Cl    0.20197   0.59874   0.54426   0.00000  Uiso   1.00
Cl1116 Cl    0.40126   0.79804   0.45574   0.00000  Uiso   1.00
Cl1117 Cl    0.09897   0.70219   0.54402   0.00000  Uiso   1.00
Cl1118 Cl    0.20266   0.59908   0.45585   0.00000  Uiso   1.00
Cl1119 Cl    0.29842   0.90140   0.54437   0.00000  Uiso   1.00
Cl1120 Cl    0.34860   0.95158   0.95563   0.00000  Uiso   1.00
H1121  H     0.20345   0.89057   0.18712   0.00000  Uiso   1.00
H1122  H     0.44602   0.88192   0.81906   0.00000  Uiso   1.00
H1123  H     0.02758   0.65950   0.57693   0.00000  Uiso   1.00
H1124  H     0.00614   0.67363   0.62238   0.00000  Uiso   1.00
H1125  H     0.05082   0.65367   0.62233   0.00000  Uiso   1.00
H1126  H     0.15962   0.52800   0.42390   0.00000  Uiso   1.00
H1127  H     0.17342   0.50573   0.37879   0.00000  Uiso   1.00
H1128  H     0.15358   0.55049   0.37809   0.00000  Uiso   1.00
H1129  H     0.32647   0.99533   0.62180   0.00000  Uiso   1.00
H1130  H     0.34093   0.97356   0.57666   0.00000  Uiso   1.00
H1131  H     0.34711   0.95095   0.62238   0.00000  Uiso   1.00
H1132  H     0.00466   0.67353   0.37820   0.00000  Uiso   1.00
H1133  H     0.44177   0.93019   0.80675   0.00000  Uiso   1.00
H1134  H     0.02643   0.65906   0.42334   0.00000  Uiso   1.00
H1135  H     0.04904   0.65289   0.37761   0.00000  Uiso   1.00
H1136  H     0.47201   0.84039   0.57610   0.00000  Uiso   1.00
H1137  H     0.49427   0.82658   0.62120   0.00000  Uiso   1.00
H1138  H     0.44952   0.84643   0.62191   0.00000  Uiso   1.00
H1139  H     0.34050   0.97241   0.42306   0.00000  Uiso   1.00
H1140  H     0.32637   0.99386   0.37762   0.00000  Uiso   1.00
H1141  H     0.34633   0.94917   0.37767   0.00000  Uiso   1.00
H1142  H     0.17365   0.50487   0.62192   0.00000  Uiso   1.00
H1143  H     0.15932   0.52645   0.57661   0.00000  Uiso   1.00
H1144  H     0.48487   0.90744   0.80260   0.00000  Uiso   1.00
H1145  H     0.15303   0.54925   0.62219   0.00000  Uiso   1.00
H1146  H     0.24513   0.57635   0.87808   0.00000  Uiso   1.00
H1147  H     0.22355   0.59068   0.92339   0.00000  Uiso   1.00
H1148  H     0.20075   0.59697   0.87781   0.00000  Uiso   1.00
H1149  H     0.27759   0.90950   0.07693   0.00000  Uiso   1.00
H1150  H     0.25614   0.92363   0.12238   0.00000  Uiso   1.00
H1151  H     0.30083   0.90367   0.12233   0.00000  Uiso   1.00
H1152  H     0.40961   0.77798   0.92390   0.00000  Uiso   1.00
H1153  H     0.42342   0.75572   0.87879   0.00000  Uiso   1.00
H1154  H     0.40357   0.80047   0.87809   0.00000  Uiso   1.00
H1155  H     0.36547   0.55612   0.13979   0.00000  Uiso   1.00
H1156  H     0.07647   0.74534   0.12180   0.00000  Uiso   1.00
H1157  H     0.09094   0.72357   0.07666   0.00000  Uiso   1.00
H1158  H     0.09711   0.70097   0.12239   0.00000  Uiso   1.00
H1159  H     0.25467   0.92353   0.87820   0.00000  Uiso   1.00
H1160  H     0.27644   0.90907   0.92334   0.00000  Uiso   1.00
H1161  H     0.29905   0.90289   0.87761   0.00000  Uiso   1.00
H1162  H     0.22200   0.59038   0.07610   0.00000  Uiso   1.00
H1163  H     0.24426   0.57658   0.12121   0.00000  Uiso   1.00
H1164  H     0.19951   0.59642   0.12191   0.00000  Uiso   1.00
H1165  H     0.09050   0.72242   0.92306   0.00000  Uiso   1.00
H1166  H     0.38614   0.54952   0.18637   0.00000  Uiso   1.00
H1167  H     0.07637   0.74387   0.87762   0.00000  Uiso   1.00
H1168  H     0.09634   0.69918   0.87767   0.00000  Uiso   1.00
H1169  H     0.42365   0.75486   0.12192   0.00000  Uiso   1.00
H1170  H     0.40932   0.77644   0.07661   0.00000  Uiso   1.00
H1171  H     0.40302   0.79924   0.12219   0.00000  Uiso   1.00
H1172  H     0.40229   0.58548   0.15398   0.00000  Uiso   1.00
H1173  H     0.20736   0.90609   0.81846   0.00000  Uiso   1.00
H1174  H     0.19023   0.85951   0.81943   0.00000  Uiso   1.00
H1175  H     0.18899   0.88730   0.86218   0.00000  Uiso   1.00
H1176  H     0.49086   0.90997   0.27864   0.00000  Uiso   1.00
H1177  H     0.18964   0.90286   0.13903   0.00000  Uiso   1.00
H1178  H     0.46002   0.87738   0.29959   0.00000  Uiso   1.00
H1179  H     0.44674   0.92524   0.29441   0.00000  Uiso   1.00
H1180  H     0.01626   0.59252   0.80533   0.00000  Uiso   1.00
H1181  H     0.05459   0.61945   0.82049   0.00000  Uiso   1.00
H1182  H     0.05998   0.57106   0.80936   0.00000  Uiso   1.00
H1183  H     0.09003   0.50914   0.72136   0.00000  Uiso   1.00
H1184  H     0.12262   0.53998   0.70041   0.00000  Uiso   1.00
H1185  H     0.07476   0.55326   0.70559   0.00000  Uiso   1.00
H1186  H     0.38055   0.94541   0.17951   0.00000  Uiso   1.00
H1187  H     0.42894   0.94002   0.19064   0.00000  Uiso   1.00
H1188  H     0.17611   0.85937   0.15790   0.00000  Uiso   1.00
H1189  H     0.40748   0.98374   0.19467   0.00000  Uiso   1.00
H1190  H     0.10939   0.79654   0.81289   0.00000  Uiso   1.00
H1191  H     0.09717   0.81036   0.86098   0.00000  Uiso   1.00
H1192  H     0.14064   0.82386   0.84205   0.00000  Uiso   1.00
H1193  H     0.38016   0.70236   0.18946   0.00000  Uiso   1.00
H1194  H     0.35169   0.66970   0.16313   0.00000  Uiso   1.00
H1195  H     0.39056   0.69041   0.14026   0.00000  Uiso   1.00
H1196  H     0.40900   0.99072   0.71905   0.00000  Uiso   1.00
H1197  H     0.37616   0.95953   0.69928   0.00000  Uiso   1.00
H1198  H     0.42418   0.94653   0.70341   0.00000  Uiso   1.00
H1199  H     0.29764   0.61984   0.81054   0.00000  Uiso   1.00
H1200  H     0.11820   0.55408   0.18081   0.00000  Uiso   1.00
H1201  H     0.06990   0.55834   0.19303   0.00000  Uiso   1.00
H1202  H     0.09262   0.51522   0.19714   0.00000  Uiso   1.00
H1203  H     0.44388   0.63453   0.86021   0.00000  Uiso   1.00
H1204  H     0.45048   0.61385   0.81363   0.00000  Uiso   1.00
H1205  H     0.41452   0.59771   0.84602   0.00000  Uiso   1.00
H1206  H     0.09391   0.79265   0.18152   0.00000  Uiso   1.00
H1207  H     0.14049   0.80976   0.18058   0.00000  Uiso   1.00
H1208  H     0.11271   0.81102   0.13782   0.00000  Uiso   1.00
H1209  H     0.45345   0.64056   0.68712   0.00000  Uiso   1.00
H1210  H     0.33030   0.64831   0.83687   0.00000  Uiso   1.00
H1211  H     0.43965   0.65285   0.63903   0.00000  Uiso   1.00
H1212  H     0.42611   0.60936   0.65791   0.00000  Uiso   1.00
H1213  H     0.04764   0.86984   0.31054   0.00000  Uiso   1.00
H1214  H     0.08031   0.89830   0.33687   0.00000  Uiso   1.00
H1215  H     0.05959   0.85943   0.35974   0.00000  Uiso   1.00
H1216  H     0.25928   0.84100   0.78095   0.00000  Uiso   1.00
H1217  H     0.29047   0.87385   0.80072   0.00000  Uiso   1.00
H1218  H     0.30347   0.82582   0.79659   0.00000  Uiso   1.00
H1219  H     0.19592   0.63181   0.31918   0.00000  Uiso   1.00
H1220  H     0.19167   0.68010   0.30696   0.00000  Uiso   1.00
H1221  H     0.30959   0.60943   0.85974   0.00000  Uiso   1.00
H1222  H     0.23479   0.65738   0.30285   0.00000  Uiso   1.00
H1223  H     0.11547   0.80612   0.63979   0.00000  Uiso   1.00
H1224  H     0.13615   0.79951   0.68637   0.00000  Uiso   1.00
H1225  H     0.15229   0.83548   0.65398   0.00000  Uiso   1.00
H1226  H     0.45736   0.65610   0.31848   0.00000  Uiso   1.00
H1227  H     0.44025   0.60951   0.31941   0.00000  Uiso   1.00
H1228  H     0.43898   0.63728   0.36218   0.00000  Uiso   1.00
H1229  H     0.24086   0.65997   0.77864   0.00000  Uiso   1.00
H1230  H     0.21002   0.62738   0.79959   0.00000  Uiso   1.00
H1231  H     0.19674   0.67524   0.79441   0.00000  Uiso   1.00
H1232  H     0.00924   0.59096   0.28072   0.00000  Uiso   1.00
H1233  H     0.30459   0.86945   0.32049   0.00000  Uiso   1.00
H1234  H     0.30998   0.82106   0.30935   0.00000  Uiso   1.00
H1235  H     0.26625   0.84252   0.30533   0.00000  Uiso   1.00
H1236  H     0.34003   0.75914   0.22136   0.00000  Uiso   1.00
H1237  H     0.37262   0.78998   0.20041   0.00000  Uiso   1.00
H1238  H     0.32476   0.80326   0.20559   0.00000  Uiso   1.00
H1239  H     0.13055   0.69541   0.67951   0.00000  Uiso   1.00
H1240  H     0.17894   0.69002   0.69064   0.00000  Uiso   1.00
H1241  H     0.15748   0.73374   0.69467   0.00000  Uiso   1.00
H1242  H     0.35943   0.54655   0.31288   0.00000  Uiso   1.00
H1243  H     0.04041   0.62376   0.30060   0.00000  Uiso   1.00
H1244  H     0.34716   0.56035   0.36097   0.00000  Uiso   1.00
H1245  H     0.39064   0.57388   0.34208   0.00000  Uiso   1.00
H1246  H     0.13016   0.95236   0.68946   0.00000  Uiso   1.00
H1247  H     0.10169   0.91970   0.66313   0.00000  Uiso   1.00
H1248  H     0.14056   0.94041   0.64026   0.00000  Uiso   1.00
H1249  H     0.15904   0.74076   0.21928   0.00000  Uiso   1.00
H1250  H     0.12624   0.70959   0.19940   0.00000  Uiso   1.00
H1251  H     0.17426   0.69659   0.20360   0.00000  Uiso   1.00
H1252  H     0.36808   0.80397   0.68094   0.00000  Uiso   1.00
H1253  H     0.31981   0.80823   0.69325   0.00000  Uiso   1.00
H1254  H     0.05341   0.57574   0.29639   0.00000  Uiso   1.00
H1255  H     0.34255   0.76513   0.69740   0.00000  Uiso   1.00
H1256  H     0.19388   0.88453   0.36020   0.00000  Uiso   1.00
H1257  H     0.20049   0.86385   0.31362   0.00000  Uiso   1.00
H1258  H     0.16452   0.84771   0.34602   0.00000  Uiso   1.00
H1259  H     0.34390   0.54265   0.68151   0.00000  Uiso   1.00
H1260  H     0.39048   0.55975   0.68059   0.00000  Uiso   1.00
H1261  H     0.36272   0.56102   0.63782   0.00000  Uiso   1.00
H1262  H     0.49514   0.82635   0.37808   0.00000  Uiso   1.00
H1263  H     0.47356   0.84068   0.42339   0.00000  Uiso   1.00
H1264  H     0.45075   0.84698   0.37781   0.00000  Uiso   1.00
O1265  O     0.25000   0.50000   0.25000   0.00000  Uiso   1.00
O1266  O     0.25000   0.96963   0.66245   0.00000  Uiso   1.00
O1267  O     0.45604   0.79840   0.10265   0.00000  Uiso   1.00
O1268  O     0.46963   0.75000   0.33755   0.00000  Uiso   1.00
O1269  O     0.03036   0.75000   0.66245   0.00000  Uiso   1.00
O1270  O     0.00000   0.71963   0.83755   0.00000  Uiso   1.00
O1271  O     0.00000   0.78036   0.16245   0.00000  Uiso   1.00
O1272  O     0.28036   0.50000   0.83755   0.00000  Uiso   1.00
O1273  O     0.21963   0.50000   0.16245   0.00000  Uiso   1.00
O1274  O     0.00000   0.78036   0.83755   0.00000  Uiso   1.00
O1275  O    -0.00000   0.71963   0.16245   0.00000  Uiso   1.00
O1276  O     0.21963   0.50000   0.83755   0.00000  Uiso   1.00
O1277  O     0.25000   0.50000   0.75000   0.00000  Uiso   1.00
O1278  O     0.28036   0.50000   0.16245   0.00000  Uiso   1.00
O1279  O     0.20724   0.57307   0.27302   0.00000  Uiso   1.00
O1280  O     0.29275   0.92692   0.72698   0.00000  Uiso   1.00
O1281  O     0.42692   0.70724   0.27302   0.00000  Uiso   1.00
O1282  O     0.07307   0.79275   0.72698   0.00000  Uiso   1.00
O1283  O     0.29275   0.92692   0.27302   0.00000  Uiso   1.00
O1284  O     0.20724   0.57307   0.72698   0.00000  Uiso   1.00
O1285  O     0.07307   0.79275   0.27302   0.00000  Uiso   1.00
O1286  O     0.42692   0.70724   0.72698   0.00000  Uiso   1.00
O1287  O     0.20724   0.92692   0.72698   0.00000  Uiso   1.00
O1288  O     0.00000   0.75000   0.25000   0.00000  Uiso   1.00
O1289  O     0.29275   0.57307   0.27302   0.00000  Uiso   1.00
O1290  O     0.42692   0.79275   0.72698   0.00000  Uiso   1.00
O1291  O     0.07307   0.70724   0.27302   0.00000  Uiso   1.00
O1292  O     0.29275   0.57307   0.72698   0.00000  Uiso   1.00
O1293  O     0.20724   0.92692   0.27302   0.00000  Uiso   1.00
O1294  O     0.07307   0.70724   0.72698   0.00000  Uiso   1.00
O1295  O     0.42692   0.79275   0.27302   0.00000  Uiso   1.00
O1296  O     0.45724   0.82307   0.77302   0.00000  Uiso   1.00
O1297  O     0.04275   0.67692   0.22698   0.00000  Uiso   1.00
O1298  O     0.17692   0.95724   0.77302   0.00000  Uiso   1.00
O1299  O     0.00000   0.75000   0.75000   0.00000  Uiso   1.00
O1300  O     0.32307   0.54275   0.22698   0.00000  Uiso   1.00
O1301  O     0.04275   0.67692   0.77302   0.00000  Uiso   1.00
O1302  O     0.45724   0.82307   0.22698   0.00000  Uiso   1.00
O1303  O     0.32307   0.54275   0.77302   0.00000  Uiso   1.00
O1304  O     0.17692   0.95724   0.22698   0.00000  Uiso   1.00
O1305  O     0.45724   0.67692   0.22698   0.00000  Uiso   1.00
O1306  O     0.04275   0.82307   0.77302   0.00000  Uiso   1.00
O1307  O     0.17692   0.54275   0.22698   0.00000  Uiso   1.00
O1308  O     0.32307   0.95724   0.77302   0.00000  Uiso   1.00
O1309  O     0.04275   0.82307   0.22698   0.00000  Uiso   1.00
O1310  O     0.25000   0.96963   0.33755   0.00000  Uiso   1.00
O1311  O     0.45724   0.67692   0.77302   0.00000  Uiso   1.00
O1312  O     0.32307   0.95724   0.22698   0.00000  Uiso   1.00
O1313  O     0.17692   0.54275   0.77302   0.00000  Uiso   1.00
O1314  O     0.14838   0.90492   0.17930   0.00000  Uiso   1.00
O1315  O     0.34923   0.59689   0.81977   0.00000  Uiso   1.00
O1316  O     0.05145   0.60511   0.24441   0.00000  Uiso   1.00
O1317  O     0.44810   0.89474   0.75969   0.00000  Uiso   1.00
O1318  O     0.35170   0.59498   0.18018   0.00000  Uiso   1.00
O1319  O     0.15067   0.90191   0.82145   0.00000  Uiso   1.00
O1320  O     0.44846   0.89484   0.24311   0.00000  Uiso   1.00
O1321  O     0.25000   0.53036   0.66245   0.00000  Uiso   1.00
O1322  O     0.05210   0.60537   0.76153   0.00000  Uiso   1.00
O1323  O     0.10516   0.55154   0.75689   0.00000  Uiso   1.00
O1324  O     0.39463   0.94790   0.23847   0.00000  Uiso   1.00
O1325  O     0.09508   0.85161   0.82071   0.00000  Uiso   1.00
O1326  O     0.40311   0.65077   0.18023   0.00000  Uiso   1.00
O1327  O     0.39489   0.94856   0.75545   0.00000  Uiso   1.00
O1328  O     0.10527   0.55192   0.24014   0.00000  Uiso   1.00
O1329  O     0.40503   0.64830   0.81982   0.00000  Uiso   1.00
O1330  O     0.09809   0.84933   0.17855   0.00000  Uiso   1.00
O1331  O     0.39838   0.65492   0.67930   0.00000  Uiso   1.00
O1332  O     0.03036   0.75000   0.33755   0.00000  Uiso   1.00
O1333  O     0.09924   0.84688   0.31977   0.00000  Uiso   1.00
O1334  O     0.30144   0.85511   0.74455   0.00000  Uiso   1.00
O1335  O     0.19808   0.64473   0.25985   0.00000  Uiso   1.00
O1336  O     0.10170   0.84497   0.68018   0.00000  Uiso   1.00
O1337  O     0.40068   0.65190   0.32145   0.00000  Uiso   1.00
O1338  O     0.19846   0.64484   0.74311   0.00000  Uiso   1.00
O1339  O     0.30210   0.85537   0.26153   0.00000  Uiso   1.00
O1340  O     0.35516   0.80154   0.25689   0.00000  Uiso   1.00
O1341  O     0.14463   0.69790   0.73847   0.00000  Uiso   1.00
O1342  O     0.34508   0.60161   0.32071   0.00000  Uiso   1.00
O1343  O     0.46963   0.75000   0.66245   0.00000  Uiso   1.00
O1344  O     0.15311   0.90077   0.68023   0.00000  Uiso   1.00
O1345  O     0.14489   0.69855   0.25559   0.00000  Uiso   1.00
O1346  O     0.35526   0.80190   0.74031   0.00000  Uiso   1.00
O1347  O     0.15503   0.89830   0.31982   0.00000  Uiso   1.00
O1348  O     0.34809   0.59933   0.67855   0.00000  Uiso   1.00
O1349  O     0.45160   0.79396   0.39734   0.00000  Uiso   1.00
O1350  O     0.04902   0.70661   0.60269   0.00000  Uiso   1.00
O1351  O     0.20663   0.54889   0.39737   0.00000  Uiso   1.00
O1352  O     0.29415   0.95170   0.60273   0.00000  Uiso   1.00
O1353  O     0.04830   0.70585   0.39727   0.00000  Uiso   1.00
O1354  O     0.25000   0.53036   0.33755   0.00000  Uiso   1.00
O1355  O     0.45112   0.79338   0.60263   0.00000  Uiso   1.00
O1356  O     0.29338   0.95097   0.39731   0.00000  Uiso   1.00
O1357  O     0.20604   0.54841   0.60265   0.00000  Uiso   1.00
O1358  O     0.20159   0.54396   0.89735   0.00000  Uiso   1.00
O1359  O     0.29903   0.95662   0.10269   0.00000  Uiso   1.00
O1360  O     0.45662   0.79888   0.89737   0.00000  Uiso   1.00
O1361  O     0.04415   0.70170   0.10273   0.00000  Uiso   1.00
O1362  O     0.29830   0.95585   0.89727   0.00000  Uiso   1.00
O1363  O     0.20111   0.54337   0.10263   0.00000  Uiso   1.00
O1364  O     0.04339   0.70098   0.89731   0.00000  Uiso   1.00
Zn1365 Zn    0.20659   0.50000   0.21735   0.00000  Uiso   1.00
Zn1366 Zn    0.04340   0.75000   0.28265   0.00000  Uiso   1.00
Zn1367 Zn    0.25000   0.95659   0.71735   0.00000  Uiso   1.00
Zn1368 Zn    0.25000   0.54340   0.28265   0.00000  Uiso   1.00
Zn1369 Zn    0.04340   0.75000   0.71735   0.00000  Uiso   1.00
Zn1370 Zn    0.45659   0.75000   0.28265   0.00000  Uiso   1.00
Zn1371 Zn    0.25000   0.54340   0.71735   0.00000  Uiso   1.00
Zn1372 Zn    0.25000   0.95659   0.28265   0.00000  Uiso   1.00
Zn1373 Zn    0.29340   0.50000   0.78265   0.00000  Uiso   1.00
Zn1374 Zn    0.00000   0.70659   0.21735   0.00000  Uiso   1.00
Zn1375 Zn    0.00000   0.79340   0.78265   0.00000  Uiso   1.00
Zn1376 Zn    0.29340   0.50000   0.21735   0.00000  Uiso   1.00
Zn1377 Zn    0.20659   0.50000   0.78265   0.00000  Uiso   1.00
Zn1378 Zn    0.00000   0.79340   0.21735   0.00000  Uiso   1.00
Zn1379 Zn   -0.00000   0.70659   0.78265   0.00000  Uiso   1.00
Zn1380 Zn    0.45659   0.75000   0.71735   0.00000  Uiso   1.00
C1381  C     0.97412   0.77083   0.41823   0.00000  Uiso   1.00
C1382  C     0.77611   0.97930   0.08175   0.00000  Uiso   1.00
C1383  C     0.73205   0.52851   0.54102   0.00000  Uiso   1.00
C1384  C     0.97149   0.76795   0.45898   0.00000  Uiso   1.00
C1385  C     0.52857   0.73196   0.54095   0.00000  Uiso   1.00
C1386  C     0.73224   0.52861   0.45904   0.00000  Uiso   1.00
C1387  C     0.76823   0.97158   0.54105   0.00000  Uiso   1.00
C1388  C     0.77842   0.98177   0.95895   0.00000  Uiso   1.00
C1389  C     0.72139   0.51776   0.04096   0.00000  Uiso   1.00
C1390  C     0.51804   0.72143   0.95904   0.00000  Uiso   1.00
C1391  C     0.98205   0.77850   0.04102   0.00000  Uiso   1.00
C1392  C     0.72149   0.51795   0.95898   0.00000  Uiso   1.00
C1393  C     0.97946   0.77608   0.91827   0.00000  Uiso   1.00
C1394  C     0.77857   0.98196   0.04095   0.00000  Uiso   1.00
C1395  C     0.98223   0.77861   0.95904   0.00000  Uiso   1.00
C1396  C     0.51823   0.72158   0.04105   0.00000  Uiso   1.00
C1397  C     0.59869   0.84732   0.24941   0.00000  Uiso   1.00
C1398  C     0.90258   0.65115   0.74967   0.00000  Uiso   1.00
C1399  C     0.65180   0.59819   0.25000   0.00000  Uiso   1.00
C1400  C     0.84799   0.90201   0.75000   0.00000  Uiso   1.00
C1401  C     0.90268   0.65131   0.25059   0.00000  Uiso   1.00
C1402  C     0.59885   0.84742   0.75034   0.00000  Uiso   1.00
C1403  C     0.84819   0.90181   0.25000   0.00000  Uiso   1.00
C1404  C     0.52104   0.72420   0.08181   0.00000  Uiso   1.00
C1405  C     0.65201   0.59799   0.75000   0.00000  Uiso   1.00
C1406  C     0.59819   0.65181   0.75000   0.00000  Uiso   1.00
C1407  C     0.90201   0.84799   0.25000   0.00000  Uiso   1.00
C1408  C     0.65268   0.90130   0.75059   0.00000  Uiso   1.00
C1409  C     0.84885   0.59742   0.25034   0.00000  Uiso   1.00
C1410  C     0.90180   0.84819   0.75000   0.00000  Uiso   1.00
C1411  C     0.59799   0.65201   0.25000   0.00000  Uiso   1.00
C1412  C     0.84869   0.59732   0.74941   0.00000  Uiso   1.00
C1413  C     0.65258   0.90115   0.24966   0.00000  Uiso   1.00
C1414  C     0.99996   0.74985   0.47948   0.00000  Uiso   1.00
C1415  C     0.77580   0.97897   0.91819   0.00000  Uiso   1.00
C1416  C     0.99997   0.74985   0.52045   0.00000  Uiso   1.00
C1417  C     0.75015   0.50003   0.47955   0.00000  Uiso   1.00
C1418  C     0.75015   0.50004   0.52052   0.00000  Uiso   1.00
C1419  C     0.74996   0.99985   0.97948   0.00000  Uiso   1.00
C1420  C     0.74997   0.99985   0.02045   0.00000  Uiso   1.00
C1421  C     0.50015   0.75003   0.97955   0.00000  Uiso   1.00
C1422  C     0.50015   0.75004   0.02052   0.00000  Uiso   1.00
C1423  C     0.68078   0.88841   0.16574   0.00000  Uiso   1.00
C1424  C     0.82051   0.61990   0.83183   0.00000  Uiso   1.00
C1425  C     0.53851   0.59872   0.28237   0.00000  Uiso   1.00
C1426  C     0.72391   0.52054   0.08173   0.00000  Uiso   1.00
C1427  C     0.95498   0.90392   0.79880   0.00000  Uiso   1.00
C1428  C     0.87784   0.57062   0.16482   0.00000  Uiso   1.00
C1429  C     0.68574   0.88788   0.83018   0.00000  Uiso   1.00
C1430  C     0.96165   0.90207   0.28077   0.00000  Uiso   1.00
C1431  C     0.54597   0.59679   0.80095   0.00000  Uiso   1.00
C1432  C     0.59793   0.53835   0.71922   0.00000  Uiso   1.00
C1433  C     0.90321   0.95403   0.19905   0.00000  Uiso   1.00
C1434  C     0.61159   0.81921   0.83426   0.00000  Uiso   1.00
C1435  C     0.88010   0.67949   0.16817   0.00000  Uiso   1.00
C1436  C     0.90123   0.96145   0.71746   0.00000  Uiso   1.00
C1437  C     0.52071   0.72390   0.91825   0.00000  Uiso   1.00
C1438  C     0.59615   0.54510   0.20101   0.00000  Uiso   1.00
C1439  C     0.92938   0.62216   0.83518   0.00000  Uiso   1.00
C1440  C     0.61212   0.81427   0.16982   0.00000  Uiso   1.00
C1441  C     0.93078   0.63841   0.66574   0.00000  Uiso   1.00
C1442  C     0.57051   0.86989   0.33183   0.00000  Uiso   1.00
C1443  C     0.78855   0.84877   0.78254   0.00000  Uiso   1.00
C1444  C     0.70490   0.65385   0.29898   0.00000  Uiso   1.00
C1445  C     0.62784   0.82062   0.66482   0.00000  Uiso   1.00
C1446  C     0.93574   0.63788   0.33018   0.00000  Uiso   1.00
C1447  C     0.71165   0.65207   0.78078   0.00000  Uiso   1.00
C1448  C     0.97917   0.77588   0.08177   0.00000  Uiso   1.00
C1449  C     0.79597   0.84679   0.30095   0.00000  Uiso   1.00
C1450  C     0.84793   0.78835   0.21922   0.00000  Uiso   1.00
C1451  C     0.65321   0.70403   0.69905   0.00000  Uiso   1.00
C1452  C     0.86160   0.56921   0.33426   0.00000  Uiso   1.00
C1453  C     0.63010   0.92949   0.66817   0.00000  Uiso   1.00
C1454  C     0.65128   0.71149   0.21763   0.00000  Uiso   1.00
C1455  C     0.84608   0.79502   0.70120   0.00000  Uiso   1.00
C1456  C     0.67939   0.87215   0.33518   0.00000  Uiso   1.00
C1457  C     0.86212   0.56426   0.66982   0.00000  Uiso   1.00
C1458  C     0.96890   0.82832   0.39429   0.00000  Uiso   1.00
C1459  C     0.99997   0.74993   0.39821   0.00000  Uiso   1.00
C1460  C     0.53227   0.67200   0.60596   0.00000  Uiso   1.00
C1461  C     0.67196   0.53216   0.39469   0.00000  Uiso   1.00
C1462  C     0.82850   0.96902   0.60576   0.00000  Uiso   1.00
C1463  C     0.53097   0.67150   0.39424   0.00000  Uiso   1.00
C1464  C     0.96785   0.82804   0.60531   0.00000  Uiso   1.00
C1465  C     0.82800   0.96772   0.39404   0.00000  Uiso   1.00
C1466  C     0.67168   0.53111   0.60571   0.00000  Uiso   1.00
C1467  C     0.71889   0.57832   0.89429   0.00000  Uiso   1.00
C1468  C     0.78228   0.92200   0.10596   0.00000  Uiso   1.00
C1469  C     0.92195   0.78215   0.89469   0.00000  Uiso   1.00
C1470  C     0.50002   0.74994   0.60175   0.00000  Uiso   1.00
C1471  C     0.57850   0.71903   0.10576   0.00000  Uiso   1.00
C1472  C     0.78098   0.92150   0.89424   0.00000  Uiso   1.00
C1473  C     0.71783   0.57804   0.10531   0.00000  Uiso   1.00
C1474  C     0.57800   0.71773   0.89404   0.00000  Uiso   1.00
C1475  C     0.92168   0.78110   0.10571   0.00000  Uiso   1.00
C1476  C     0.75006   0.99998   0.39825   0.00000  Uiso   1.00
C1477  C     0.52610   0.72929   0.58175   0.00000  Uiso   1.00
C1478  C     0.75007   0.50003   0.60179   0.00000  Uiso   1.00
C1479  C     0.74997   0.99993   0.89821   0.00000  Uiso   1.00
C1480  C     0.75002   0.99994   0.10175   0.00000  Uiso   1.00
C1481  C     0.50006   0.74998   0.89825   0.00000  Uiso   1.00
C1482  C     0.50007   0.75003   0.10179   0.00000  Uiso   1.00
C1483  C     0.55855   0.71722   0.47959   0.00000  Uiso   1.00
C1484  C     0.94124   0.78224   0.52029   0.00000  Uiso   1.00
C1485  C     0.78258   0.94132   0.47976   0.00000  Uiso   1.00
C1486  C     0.71757   0.55866   0.52035   0.00000  Uiso   1.00
C1487  C     0.94135   0.78244   0.47965   0.00000  Uiso   1.00
C1488  C     0.72946   0.52608   0.41827   0.00000  Uiso   1.00
C1489  C     0.55867   0.71742   0.52023   0.00000  Uiso   1.00
C1490  C     0.71777   0.55876   0.47971   0.00000  Uiso   1.00
C1491  C     0.78277   0.94145   0.52041   0.00000  Uiso   1.00
C1492  C     0.80855   0.96723   0.97959   0.00000  Uiso   1.00
C1493  C     0.69124   0.53223   0.02029   0.00000  Uiso   1.00
C1494  C     0.53259   0.69133   0.97976   0.00000  Uiso   1.00
C1495  C     0.96756   0.80865   0.02035   0.00000  Uiso   1.00
C1496  C     0.69134   0.53243   0.97965   0.00000  Uiso   1.00
C1497  C     0.80868   0.96742   0.02023   0.00000  Uiso   1.00
C1498  C     0.96776   0.80876   0.97971   0.00000  Uiso   1.00
C1499  C     0.77103   0.97420   0.58181   0.00000  Uiso   1.00
C1500  C     0.53278   0.69145   0.02041   0.00000  Uiso   1.00
C1501  C     0.75001   0.99999   0.35586   0.00000  Uiso   1.00
C1502  C     0.75002   0.50001   0.64416   0.00000  Uiso   1.00
C1503  C     0.99999   0.74998   0.35584   0.00000  Uiso   1.00
C1504  C     0.50001   0.74999   0.64414   0.00000  Uiso   1.00
C1505  C     0.50001   0.74999   0.85586   0.00000  Uiso   1.00
C1506  C     0.50002   0.75001   0.14416   0.00000  Uiso   1.00
C1507  C     0.74999   0.99998   0.85584   0.00000  Uiso   1.00
C1508  C     0.75001   0.99999   0.14414   0.00000  Uiso   1.00
C1509  C     0.67994   0.57006   0.25000   0.00000  Uiso   1.00
C1510  C     0.52580   0.72897   0.41819   0.00000  Uiso   1.00
C1511  C     0.81998   0.93002   0.75000   0.00000  Uiso   1.00
C1512  C     0.93009   0.67994   0.25009   0.00000  Uiso   1.00
C1513  C     0.57001   0.82005   0.74988   0.00000  Uiso   1.00
C1514  C     0.82006   0.92994   0.25000   0.00000  Uiso   1.00
C1515  C     0.68001   0.56998   0.75000   0.00000  Uiso   1.00
C1516  C     0.57006   0.81991   0.24991   0.00000  Uiso   1.00
C1517  C     0.92995   0.67999   0.75012   0.00000  Uiso   1.00
C1518  C     0.68009   0.92994   0.75009   0.00000  Uiso   1.00
C1519  C     0.82001   0.57005   0.24988   0.00000  Uiso   1.00
C1520  C     0.92994   0.82006   0.75000   0.00000  Uiso   1.00
C1521  C     0.97392   0.77054   0.58173   0.00000  Uiso   1.00
C1522  C     0.56998   0.68002   0.25000   0.00000  Uiso   1.00
C1523  C     0.82006   0.56991   0.74991   0.00000  Uiso   1.00
C1524  C     0.67995   0.92999   0.25012   0.00000  Uiso   1.00
C1525  C     0.57006   0.67994   0.75000   0.00000  Uiso   1.00
C1526  C     0.93001   0.81999   0.25000   0.00000  Uiso   1.00
C1527  C     0.63826   0.88876   0.21403   0.00000  Uiso   1.00
C1528  C     0.86283   0.60992   0.78490   0.00000  Uiso   1.00
C1529  C     0.58788   0.61510   0.24655   0.00000  Uiso   1.00
C1530  C     0.91169   0.88501   0.75590   0.00000  Uiso   1.00
C1531  C     0.86459   0.60871   0.21503   0.00000  Uiso   1.00
C1532  C     0.77070   0.97389   0.41825   0.00000  Uiso   1.00
C1533  C     0.63886   0.88813   0.78616   0.00000  Uiso   1.00
C1534  C     0.91206   0.88486   0.24585   0.00000  Uiso   1.00
C1535  C     0.58841   0.61508   0.75676   0.00000  Uiso   1.00
C1536  C     0.61514   0.58793   0.75415   0.00000  Uiso   1.00
C1537  C     0.88492   0.91159   0.24324   0.00000  Uiso   1.00
C1538  C     0.61125   0.86173   0.78597   0.00000  Uiso   1.00
C1539  C     0.89008   0.63717   0.21510   0.00000  Uiso   1.00
C1540  C     0.88491   0.91213   0.75338   0.00000  Uiso   1.00
C1541  C     0.61500   0.58832   0.24403   0.00000  Uiso   1.00
C1542  C     0.89129   0.63541   0.78497   0.00000  Uiso   1.00
C1543  C     0.72917   0.52588   0.58177   0.00000  Uiso   1.00
C1544  C     0.61187   0.86115   0.21384   0.00000  Uiso   1.00
C1545  C     0.88826   0.63876   0.71403   0.00000  Uiso   1.00
C1546  C     0.61283   0.85991   0.28490   0.00000  Uiso   1.00
C1547  C     0.83787   0.86509   0.74662   0.00000  Uiso   1.00
C1548  C     0.66168   0.63500   0.25597   0.00000  Uiso   1.00
C1549  C     0.61459   0.85870   0.71503   0.00000  Uiso   1.00
C1550  C     0.88886   0.63813   0.28616   0.00000  Uiso   1.00
C1551  C     0.66206   0.63486   0.74585   0.00000  Uiso   1.00
C1552  C     0.83841   0.86508   0.25676   0.00000  Uiso   1.00
C1553  C     0.86514   0.83793   0.25415   0.00000  Uiso   1.00
C1554  C     0.72412   0.52083   0.91823   0.00000  Uiso   1.00
C1555  C     0.63492   0.66159   0.74324   0.00000  Uiso   1.00
C1556  C     0.86124   0.61173   0.28597   0.00000  Uiso   1.00
C1557  C     0.64008   0.88717   0.71510   0.00000  Uiso   1.00
C1558  C     0.63490   0.66212   0.25345   0.00000  Uiso   1.00
C1559  C     0.86499   0.83831   0.74410   0.00000  Uiso   1.00
C1560  C     0.64130   0.88541   0.28497   0.00000  Uiso   1.00
C1561  C     0.86187   0.61115   0.71384   0.00000  Uiso   1.00
C1562  C     0.52842   0.73177   0.45895   0.00000  Uiso   1.00
C1563  C     0.97139   0.76777   0.54096   0.00000  Uiso   1.00
C1564  C     0.76804   0.97143   0.45904   0.00000  Uiso   1.00
Cl1565 Cl    0.59860   0.70157   0.45563   0.00000  Uiso   1.00
Cl1566 Cl    0.65092   0.54734   0.04415   0.00000  Uiso   1.00
Cl1567 Cl    0.54782   0.65103   0.95598   0.00000  Uiso   1.00
Cl1568 Cl    0.95196   0.84874   0.04426   0.00000  Uiso   1.00
Cl1569 Cl    0.65126   0.54803   0.95574   0.00000  Uiso   1.00
Cl1570 Cl    0.84897   0.95220   0.04402   0.00000  Uiso   1.00
Cl1571 Cl    0.95264   0.84907   0.95585   0.00000  Uiso   1.00
Cl1572 Cl    0.54844   0.65140   0.04437   0.00000  Uiso   1.00
Cl1573 Cl    0.90093   0.79736   0.54415   0.00000  Uiso   1.00
Cl1574 Cl    0.79780   0.90103   0.45598   0.00000  Uiso   1.00
Cl1575 Cl    0.70197   0.59874   0.54426   0.00000  Uiso   1.00
Cl1576 Cl    0.90126   0.79804   0.45574   0.00000  Uiso   1.00
Cl1577 Cl    0.59897   0.70219   0.54402   0.00000  Uiso   1.00
Cl1578 Cl    0.70266   0.59908   0.45585   0.00000  Uiso   1.00
Cl1579 Cl    0.79842   0.90140   0.54437   0.00000  Uiso   1.00
Cl1580 Cl    0.84860   0.95158   0.95563   0.00000  Uiso   1.00
H1581  H     0.70345   0.89057   0.18712   0.00000  Uiso   1.00
H1582  H     0.94602   0.88192   0.81906   0.00000  Uiso   1.00
H1583  H     0.52758   0.65950   0.57693   0.00000  Uiso   1.00
H1584  H     0.50614   0.67363   0.62238   0.00000  Uiso   1.00
H1585  H     0.55082   0.65367   0.62233   0.00000  Uiso   1.00
H1586  H     0.65962   0.52800   0.42390   0.00000  Uiso   1.00
H1587  H     0.67342   0.50573   0.37879   0.00000  Uiso   1.00
H1588  H     0.65358   0.55049   0.37809   0.00000  Uiso   1.00
H1589  H     0.82647   0.99533   0.62180   0.00000  Uiso   1.00
H1590  H     0.84093   0.97356   0.57666   0.00000  Uiso   1.00
H1591  H     0.84711   0.95095   0.62238   0.00000  Uiso   1.00
H1592  H     0.50466   0.67353   0.37820   0.00000  Uiso   1.00
H1593  H     0.94177   0.93019   0.80675   0.00000  Uiso   1.00
H1594  H     0.52643   0.65906   0.42334   0.00000  Uiso   1.00
H1595  H     0.54904   0.65289   0.37761   0.00000  Uiso   1.00
H1596  H     0.97201   0.84039   0.57610   0.00000  Uiso   1.00
H1597  H     0.99427   0.82658   0.62120   0.00000  Uiso   1.00
H1598  H     0.94952   0.84643   0.62191   0.00000  Uiso   1.00
H1599  H     0.84050   0.97241   0.42306   0.00000  Uiso   1.00
H1600  H     0.82637   0.99386   0.37762   0.00000  Uiso   1.00
H1601  H     0.84633   0.94917   0.37767   0.00000  Uiso   1.00
H1602  H     0.67365   0.50487   0.62192   0.00000  Uiso   1.00
H1603  H     0.65932   0.52645   0.57661   0.00000  Uiso   1.00
H1604  H     0.98487   0.90744   0.80260   0.00000  Uiso   1.00
H1605  H     0.65303   0.54925   0.62219   0.00000  Uiso   1.00
H1606  H     0.74513   0.57635   0.87808   0.00000  Uiso   1.00
H1607  H     0.72355   0.59068   0.92339   0.00000  Uiso   1.00
H1608  H     0.70075   0.59697   0.87781   0.00000  Uiso   1.00
H1609  H     0.77759   0.90950   0.07693   0.00000  Uiso   1.00
H1610  H     0.75614   0.92363   0.12238   0.00000  Uiso   1.00
H1611  H     0.80083   0.90367   0.12233   0.00000  Uiso   1.00
H1612  H     0.90961   0.77798   0.92390   0.00000  Uiso   1.00
H1613  H     0.92342   0.75572   0.87879   0.00000  Uiso   1.00
H1614  H     0.90357   0.80047   0.87809   0.00000  Uiso   1.00
H1615  H     0.86547   0.55612   0.13979   0.00000  Uiso   1.00
H1616  H     0.57647   0.74534   0.12180   0.00000  Uiso   1.00
H1617  H     0.59094   0.72357   0.07666   0.00000  Uiso   1.00
H1618  H     0.59711   0.70097   0.12239   0.00000  Uiso   1.00
H1619  H     0.75467   0.92353   0.87820   0.00000  Uiso   1.00
H1620  H     0.77644   0.90907   0.92334   0.00000  Uiso   1.00
H1621  H     0.79905   0.90289   0.87761   0.00000  Uiso   1.00
H1622  H     0.72200   0.59038   0.07610   0.00000  Uiso   1.00
H1623  H     0.74426   0.57658   0.12121   0.00000  Uiso   1.00
H1624  H     0.69951   0.59642   0.12191   0.00000  Uiso   1.00
H1625  H     0.59050   0.72242   0.92306   0.00000  Uiso   1.00
H1626  H     0.88614   0.54952   0.18637   0.00000  Uiso   1.00
H1627  H     0.57637   0.74387   0.87762   0.00000  Uiso   1.00
H1628  H     0.59634   0.69918   0.87767   0.00000  Uiso   1.00
H1629  H     0.92365   0.75486   0.12192   0.00000  Uiso   1.00
H1630  H     0.90932   0.77644   0.07661   0.00000  Uiso   1.00
H1631  H     0.90302   0.79924   0.12219   0.00000  Uiso   1.00
H1632  H     0.90229   0.58548   0.15398   0.00000  Uiso   1.00
H1633  H     0.70736   0.90609   0.81846   0.00000  Uiso   1.00
H1634  H     0.69023   0.85951   0.81943   0.00000  Uiso   1.00
H1635  H     0.68899   0.88730   0.86218   0.00000  Uiso   1.00
H1636  H     0.99086   0.90997   0.27864   0.00000  Uiso   1.00
H1637  H     0.68964   0.90286   0.13903   0.00000  Uiso   1.00
H1638  H     0.96002   0.87738   0.29959   0.00000  Uiso   1.00
H1639  H     0.94674   0.92524   0.29441   0.00000  Uiso   1.00
H1640  H     0.51626   0.59252   0.80533   0.00000  Uiso   1.00
H1641  H     0.55459   0.61945   0.82049   0.00000  Uiso   1.00
H1642  H     0.55998   0.57106   0.80936   0.00000  Uiso   1.00
H1643  H     0.59003   0.50914   0.72136   0.00000  Uiso   1.00
H1644  H     0.62262   0.53998   0.70041   0.00000  Uiso   1.00
H1645  H     0.57476   0.55326   0.70559   0.00000  Uiso   1.00
H1646  H     0.88055   0.94541   0.17951   0.00000  Uiso   1.00
H1647  H     0.92894   0.94002   0.19064   0.00000  Uiso   1.00
H1648  H     0.67611   0.85937   0.15790   0.00000  Uiso   1.00
H1649  H     0.90748   0.98374   0.19467   0.00000  Uiso   1.00
H1650  H     0.60939   0.79654   0.81289   0.00000  Uiso   1.00
H1651  H     0.59717   0.81036   0.86098   0.00000  Uiso   1.00
H1652  H     0.64064   0.82386   0.84205   0.00000  Uiso   1.00
H1653  H     0.88016   0.70236   0.18946   0.00000  Uiso   1.00
H1654  H     0.85169   0.66970   0.16313   0.00000  Uiso   1.00
H1655  H     0.89056   0.69041   0.14026   0.00000  Uiso   1.00
H1656  H     0.90900   0.99072   0.71905   0.00000  Uiso   1.00
H1657  H     0.87616   0.95953   0.69928   0.00000  Uiso   1.00
H1658  H     0.92418   0.94653   0.70341   0.00000  Uiso   1.00
H1659  H     0.79764   0.61984   0.81054   0.00000  Uiso   1.00
H1660  H     0.61820   0.55408   0.18081   0.00000  Uiso   1.00
H1661  H     0.56990   0.55834   0.19303   0.00000  Uiso   1.00
H1662  H     0.59262   0.51522   0.19714   0.00000  Uiso   1.00
H1663  H     0.94388   0.63453   0.86021   0.00000  Uiso   1.00
H1664  H     0.95048   0.61385   0.81363   0.00000  Uiso   1.00
H1665  H     0.91452   0.59771   0.84602   0.00000  Uiso   1.00
H1666  H     0.59391   0.79265   0.18152   0.00000  Uiso   1.00
H1667  H     0.64049   0.80976   0.18058   0.00000  Uiso   1.00
H1668  H     0.61271   0.81102   0.13782   0.00000  Uiso   1.00
H1669  H     0.95345   0.64056   0.68712   0.00000  Uiso   1.00
H1670  H     0.83030   0.64831   0.83687   0.00000  Uiso   1.00
H1671  H     0.93965   0.65285   0.63903   0.00000  Uiso   1.00
H1672  H     0.92611   0.60936   0.65791   0.00000  Uiso   1.00
H1673  H     0.54764   0.86984   0.31054   0.00000  Uiso   1.00
H1674  H     0.58031   0.89830   0.33687   0.00000  Uiso   1.00
H1675  H     0.55959   0.85943   0.35974   0.00000  Uiso   1.00
H1676  H     0.75928   0.84100   0.78095   0.00000  Uiso   1.00
H1677  H     0.79047   0.87385   0.80072   0.00000  Uiso   1.00
H1678  H     0.80347   0.82582   0.79659   0.00000  Uiso   1.00
H1679  H     0.69592   0.63181   0.31918   0.00000  Uiso   1.00
H1680  H     0.69167   0.68010   0.30696   0.00000  Uiso   1.00
H1681  H     0.80959   0.60943   0.85974   0.00000  Uiso   1.00
H1682  H     0.73479   0.65738   0.30285   0.00000  Uiso   1.00
H1683  H     0.61547   0.80612   0.63979   0.00000  Uiso   1.00
H1684  H     0.63615   0.79951   0.68637   0.00000  Uiso   1.00
H1685  H     0.65229   0.83548   0.65398   0.00000  Uiso   1.00
H1686  H     0.95736   0.65610   0.31848   0.00000  Uiso   1.00
H1687  H     0.94025   0.60951   0.31941   0.00000  Uiso   1.00
H1688  H     0.93898   0.63728   0.36218   0.00000  Uiso   1.00
H1689  H     0.74086   0.65997   0.77864   0.00000  Uiso   1.00
H1690  H     0.71002   0.62738   0.79959   0.00000  Uiso   1.00
H1691  H     0.69674   0.67524   0.79441   0.00000  Uiso   1.00
H1692  H     0.50924   0.59096   0.28072   0.00000  Uiso   1.00
H1693  H     0.80459   0.86945   0.32049   0.00000  Uiso   1.00
H1694  H     0.80998   0.82106   0.30935   0.00000  Uiso   1.00
H1695  H     0.76625   0.84252   0.30533   0.00000  Uiso   1.00
H1696  H     0.84003   0.75914   0.22136   0.00000  Uiso   1.00
H1697  H     0.87262   0.78998   0.20041   0.00000  Uiso   1.00
H1698  H     0.82476   0.80326   0.20559   0.00000  Uiso   1.00
H1699  H     0.63055   0.69541   0.67951   0.00000  Uiso   1.00
H1700  H     0.67894   0.69002   0.69064   0.00000  Uiso   1.00
H1701  H     0.65748   0.73374   0.69467   0.00000  Uiso   1.00
H1702  H     0.85943   0.54655   0.31288   0.00000  Uiso   1.00
H1703  H     0.54041   0.62376   0.30060   0.00000  Uiso   1.00
H1704  H     0.84716   0.56035   0.36097   0.00000  Uiso   1.00
H1705  H     0.89064   0.57388   0.34208   0.00000  Uiso   1.00
H1706  H     0.63016   0.95236   0.68946   0.00000  Uiso   1.00
H1707  H     0.60169   0.91970   0.66313   0.00000  Uiso   1.00
H1708  H     0.64056   0.94041   0.64026   0.00000  Uiso   1.00
H1709  H     0.65904   0.74076   0.21928   0.00000  Uiso   1.00
H1710  H     0.62624   0.70959   0.19940   0.00000  Uiso   1.00
H1711  H     0.67426   0.69659   0.20360   0.00000  Uiso   1.00
H1712  H     0.86808   0.80397   0.68094   0.00000  Uiso   1.00
H1713  H     0.81981   0.80823   0.69325   0.00000  Uiso   1.00
H1714  H     0.55341   0.57574   0.29639   0.00000  Uiso   1.00
H1715  H     0.84255   0.76513   0.69740   0.00000  Uiso   1.00
H1716  H     0.69388   0.88453   0.36020   0.00000  Uiso   1.00
H1717  H     0.70049   0.86385   0.31362   0.00000  Uiso   1.00
H1718  H     0.66452   0.84771   0.34602   0.00000  Uiso   1.00
H1719  H     0.84390   0.54265   0.68151   0.00000  Uiso   1.00
H1720  H     0.89048   0.55975   0.68059   0.00000  Uiso   1.00
H1721  H     0.86272   0.56102   0.63782   0.00000  Uiso   1.00
H1722  H     0.99514   0.82635   0.37808   0.00000  Uiso   1.00
H1723  H     0.97356   0.84068   0.42339   0.00000  Uiso   1.00
H1724  H     0.95075   0.84698   0.37781   0.00000  Uiso   1.00
O1725  O     0.75000   0.50000   0.25000   0.00000  Uiso   1.00
O1726  O     0.75000   0.96963   0.66245   0.00000  Uiso   1.00
O1727  O     0.95604   0.79840   0.10265   0.00000  Uiso   1.00
O1728  O     0.96963   0.75000   0.33755   0.00000  Uiso   1.00
O1729  O     0.53036   0.75000   0.66245   0.00000  Uiso   1.00
O1730  O     0.50000   0.71963   0.83755   0.00000  Uiso   1.00
O1731  O     0.50000   0.78036   0.16245   0.00000  Uiso   1.00
O1732  O     0.78036   0.50000   0.83755   0.00000  Uiso   1.00
O1733  O     0.71963   0.50000   0.16245   0.00000  Uiso   1.00
O1734  O     0.50000   0.78036   0.83755   0.00000  Uiso   1.00
O1735  O     0.50000   0.71963   0.16245   0.00000  Uiso   1.00
O1736  O     0.71963   0.50000   0.83755   0.00000  Uiso   1.00
O1737  O     0.75000   0.50000   0.75000   0.00000  Uiso   1.00
O1738  O     0.78036   0.50000   0.16245   0.00000  Uiso   1.00
O1739  O     0.70724   0.57307   0.27302   0.00000  Uiso   1.00
O1740  O     0.79275   0.92692   0.72698   0.00000  Uiso   1.00
O1741  O     0.92692   0.70724   0.27302   0.00000  Uiso   1.00
O1742  O     0.57307   0.79275   0.72698   0.00000  Uiso   1.00
O1743  O     0.79275   0.92692   0.27302   0.00000  Uiso   1.00
O1744  O     0.70724   0.57307   0.72698   0.00000  Uiso   1.00
O1745  O     0.57307   0.79275   0.27302   0.00000  Uiso   1.00
O1746  O     0.92692   0.70724   0.72698   0.00000  Uiso   1.00
O1747  O     0.70724   0.92692   0.72698   0.00000  Uiso   1.00
O1748  O     0.50000   0.75000   0.25000   0.00000  Uiso   1.00
O1749  O     0.79275   0.57307   0.27302   0.00000  Uiso   1.00
O1750  O     0.92692   0.79275   0.72698   0.00000  Uiso   1.00
O1751  O     0.57307   0.70724   0.27302   0.00000  Uiso   1.00
O1752  O     0.79275   0.57307   0.72698   0.00000  Uiso   1.00
O1753  O     0.70724   0.92692   0.27302   0.00000  Uiso   1.00
O1754  O     0.57307   0.70724   0.72698   0.00000  Uiso   1.00
O1755  O     0.92692   0.79275   0.27302   0.00000  Uiso   1.00
O1756  O     0.95724   0.82307   0.77302   0.00000  Uiso   1.00
O1757  O     0.54275   0.67692   0.22698   0.00000  Uiso   1.00
O1758  O     0.67692   0.95724   0.77302   0.00000  Uiso   1.00
O1759  O     0.50000   0.75000   0.75000   0.00000  Uiso   1.00
O1760  O     0.82307   0.54275   0.22698   0.00000  Uiso   1.00
O1761  O     0.54275   0.67692   0.77302   0.00000  Uiso   1.00
O1762  O     0.95724   0.82307   0.22698   0.00000  Uiso   1.00
O1763  O     0.82307   0.54275   0.77302   0.00000  Uiso   1.00
O1764  O     0.67692   0.95724   0.22698   0.00000  Uiso   1.00
O1765  O     0.95724   0.67692   0.22698   0.00000  Uiso   1.00
O1766  O     0.54275   0.82307   0.77302   0.00000  Uiso   1.00
O1767  O     0.67692   0.54275   0.22698   0.00000  Uiso   1.00
O1768  O     0.82307   0.95724   0.77302   0.00000  Uiso   1.00
O1769  O     0.54275   0.82307   0.22698   0.00000  Uiso   1.00
O1770  O     0.75000   0.96963   0.33755   0.00000  Uiso   1.00
O1771  O     0.95724   0.67692   0.77302   0.00000  Uiso   1.00
O1772  O     0.82307   0.95724   0.22698   0.00000  Uiso   1.00
O1773  O     0.67692   0.54275   0.77302   0.00000  Uiso   1.00
O1774  O     0.64838   0.90492   0.17930   0.00000  Uiso   1.00
O1775  O     0.84923   0.59689   0.81977   0.00000  Uiso   1.00
O1776  O     0.55145   0.60511   0.24441   0.00000  Uiso   1.00
O1777  O     0.94810   0.89474   0.75969   0.00000  Uiso   1.00
O1778  O     0.85170   0.59498   0.18018   0.00000  Uiso   1.00
O1779  O     0.65067   0.90191   0.82145   0.00000  Uiso   1.00
O1780  O     0.94846   0.89484   0.24311   0.00000  Uiso   1.00
O1781  O     0.75000   0.53036   0.66245   0.00000  Uiso   1.00
O1782  O     0.55210   0.60537   0.76153   0.00000  Uiso   1.00
O1783  O     0.60516   0.55154   0.75689   0.00000  Uiso   1.00
O1784  O     0.89463   0.94790   0.23847   0.00000  Uiso   1.00
O1785  O     0.59508   0.85161   0.82071   0.00000  Uiso   1.00
O1786  O     0.90311   0.65077   0.18023   0.00000  Uiso   1.00
O1787  O     0.89489   0.94856   0.75545   0.00000  Uiso   1.00
O1788  O     0.60527   0.55192   0.24014   0.00000  Uiso   1.00
O1789  O     0.90503   0.64830   0.81982   0.00000  Uiso   1.00
O1790  O     0.59809   0.84933   0.17855   0.00000  Uiso   1.00
O1791  O     0.89838   0.65492   0.67930   0.00000  Uiso   1.00
O1792  O     0.53036   0.75000   0.33755   0.00000  Uiso   1.00
O1793  O     0.59924   0.84688   0.31977   0.00000  Uiso   1.00
O1794  O     0.80144   0.85511   0.74455   0.00000  Uiso   1.00
O1795  O     0.69808   0.64473   0.25985   0.00000  Uiso   1.00
O1796  O     0.60170   0.84497   0.68018   0.00000  Uiso   1.00
O1797  O     0.90068   0.65190   0.32145   0.00000  Uiso   1.00
O1798  O     0.69846   0.64484   0.74311   0.00000  Uiso   1.00
O1799  O     0.80210   0.85537   0.26153   0.00000  Uiso   1.00
O1800  O     0.85516   0.80154   0.25689   0.00000  Uiso   1.00
O1801  O     0.64463   0.69790   0.73847   0.00000  Uiso   1.00
O1802  O     0.84508   0.60161   0.32071   0.00000  Uiso   1.00
O1803  O     0.96963   0.75000   0.66245   0.00000  Uiso   1.00
O1804  O     0.65311   0.90077   0.68023   0.00000  Uiso   1.00
O1805  O     0.64489   0.69855   0.25559   0.00000  Uiso   1.00
O1806  O     0.85526   0.80190   0.74031   0.00000  Uiso   1.00
O1807  O     0.65503   0.89830   0.31982   0.00000  Uiso   1.00
O1808  O     0.84809   0.59933   0.67855   0.00000  Uiso   1.00
O1809  O     0.95160   0.79396   0.39734   0.00000  Uiso   1.00
O1810  O     0.54902   0.70661   0.60269   0.00000  Uiso   1.00
O1811  O     0.70663   0.54889   0.39737   0.00000  Uiso   1.00
O1812  O     0.79415   0.95170   0.60273   0.00000  Uiso   1.00
O1813  O     0.54830   0.70585   0.39727   0.00000  Uiso   1.00
O1814  O     0.75000   0.53036   0.33755   0.00000  Uiso   1.00
O1815  O     0.95112   0.79338   0.60263   0.00000  Uiso   1.00
O1816  O     0.79338   0.95097   0.39731   0.00000  Uiso   1.00
O1817  O     0.70604   0.54841   0.60265   0.00000  Uiso   1.00
O1818  O     0.70159   0.54396   0.89735   0.00000  Uiso   1.00
O1819  O     0.79903   0.95662   0.10269   0.00000  Uiso   1.00
O1820  O     0.95662   0.79888   0.89737   0.00000  Uiso   1.00
O1821  O     0.54415   0.70170   0.10273   0.00000  Uiso   1.00
O1822  O     0.79830   0.95585   0.89727   0.00000  Uiso   1.00
O1823  O     0.70111   0.54337   0.10263   0.00000  Uiso   1.00
O1824  O     0.54339   0.70098   0.89731   0.00000  Uiso   1.00
Zn1825 Zn    0.70659   0.50000   0.21735   0.00000  Uiso   1.00
Zn1826 Zn    0.54340   0.75000   0.28265   0.00000  Uiso   1.00
Zn1827 Zn    0.75000   0.95659   0.71735   0.00000  Uiso   1.00
Zn1828 Zn    0.75000   0.54340   0.28265   0.00000  Uiso   1.00
Zn1829 Zn    0.54340   0.75000   0.71735   0.00000  Uiso   1.00
Zn1830 Zn    0.95659   0.75000   0.28265   0.00000  Uiso   1.00
Zn1831 Zn    0.75000   0.54340   0.71735   0.00000  Uiso   1.00
Zn1832 Zn    0.75000   0.95659   0.28265   0.00000  Uiso   1.00
Zn1833 Zn    0.79340   0.50000   0.78265   0.00000  Uiso   1.00
Zn1834 Zn    0.50000   0.70659   0.21735   0.00000  Uiso   1.00
Zn1835 Zn    0.50000   0.79340   0.78265   0.00000  Uiso   1.00
Zn1836 Zn    0.79340   0.50000   0.21735   0.00000  Uiso   1.00
Zn1837 Zn    0.70659   0.50000   0.78265   0.00000  Uiso   1.00
Zn1838 Zn    0.50000   0.79340   0.21735   0.00000  Uiso   1.00
Zn1839 Zn    0.50000   0.70659   0.78265   0.00000  Uiso   1.00
Zn1840 Zn    0.95659   0.75000   0.71735   0.00000  Uiso   1.00
loop_
_geom_bond_atom_site_label_1
_geom_bond_atom_site_label_2
_geom_bond_distance
_geom_bond_site_symmetry_2
_ccdc_geom_bond_type
C1     O429    1.384   .     S
C1     C79     1.399   .     A
C1     C4      1.411   .     A
C2     C14     1.412   .     A
C2     O439    1.384   .     S
C2     C100    1.400   .     A
C3     C163    1.411   .     A
C3     C106    1.417   .     A
C3     C38     1.423   .     A
C4     C34     1.423   .     A
C4     C107    1.417   .     A
C5     C109    1.417   .     A
C5     C97     1.412   .     A
C5     C496    1.423   1_455 S
C6     C110    1.417   .     A
C6     C37     1.423   .     A
C6     C108    1.412   .     A
C7     C119    1.412   .     A
C7     C111    1.417   .     A
C7     C958    1.423   .     S
C8     C35     1.412   .     A
C8     C112    1.417   .     A
C8     C39     1.423   .     A
C9     C46     1.412   .     A
C9     C113    1.417   .     A
C9     C960    1.423   1_545 S
C10    C41     1.423   .     A
C10    C114    1.417   .     A
C10    C57     1.412   .     A
C11    C115    1.417   .     A
C11    C68     1.411   .     A
C11    C502    1.423   .     S
C12    C174    1.411   .     A
C12    C116    1.417   .     A
C12    C959    1.423   1_545 S
C13    O440    1.384   .     S
C13    C15     1.412   .     A
C13    C561    1.400   .     S
C14    C117    1.417   .     A
C14    C40     1.423   .     A
C15    C118    1.417   .     A
C15    C501    1.423   .     S
C16    C120    1.417   .     A
C16    C24     1.412   .     A
C16    C42     1.423   .     A
C17    C164    1.410   .     A
C17    C166    1.406   .     A
C17    C136    1.450   .     S
C18    C137    1.454   .     S
C18    C165    1.410   .     A
C18    C162    1.407   .     A
C19    C129    1.457   .     S
C19    C161    1.409   .     A
C19    C168    1.409   .     A
C20    C160    1.405   .     A
C20    C167    1.405   .     A
C20    C131    1.450   .     S
C21    C159    1.406   .     A
C21    C132    1.450   .     S
C21    C170    1.410   .     A
C22    C133    1.454   .     S
C22    C158    1.410   .     A
C22    C169    1.407   .     A
C23    C134    1.457   .     S
C23    C157    1.410   .     A
C23    C172    1.410   .     A
C24    O441    1.384   .     S
C24    C102    1.399   .     A
C25    C171    1.405   .     A
C25    C135    1.450   .     S
C25    C156    1.405   .     A
C26    C155    1.410   .     A
C26    C145    1.457   .     S
C26    C175    1.410   .     A
C27    C154    1.405   .     A
C27    C146    1.450   .     S
C27    C173    1.405   .     A
C28    C153    1.410   .     A
C28    C177    1.406   .     A
C28    C138    1.450   .     S
C29    C151    1.407   .     A
C29    C176    1.410   .     A
C29    C139    1.454   .     S
C30    C150    1.409   .     A
C30    C179    1.409   .     A
C30    C140    1.457   .     S
C31    C149    1.405   .     A
C31    C178    1.405   .     A
C31    C142    1.450   .     S
C32    C181    1.410   .     A
C32    C148    1.406   .     A
C32    C143    1.450   .     S
C33    C144    1.454   .     S
C33    C147    1.410   .     A
C33    C180    1.407   .     A
C34    C36     1.412   .     A
C34    C642    1.423   .     S
C35    O442    1.384   .     S
C35    C99     1.399   .     A
C36    C183    1.423   .     A
C36    C465    1.423   .     S
C37    C38     1.412   .     A
C37    C1104   1.423   1_545 S
C38    C927    1.423   1_545 S
C39    C932    1.423   .     S
C39    C40     1.412   1_556 S
C40    C929    1.423   .     S
C40    C39     1.412   1_554 S
C41    C475    1.423   1_455 S
C41    C42     1.412   1_556 S
C42    C471    1.423   1_455 S
C42    C41     1.412   1_554 S
C43    H201    1.113   .     S
C43    H268    1.110   .     S
C43    H257    1.109   .     S
C43    O394    1.411   .     S
C44    H279    1.113   .     S
C44    H301    1.109   .     S
C44    O395    1.410   .     S
C44    H290    1.113   .     S
C45    H312    1.109   .     S
C45    H334    1.113   .     S
C45    H323    1.113   .     S
C45    O396    1.410   .     S
C46    O443    1.384   .     S
C46    C1020   1.400   1_545 S
C47    H202    1.114   .     S
C47    H213    1.111   .     S
C47    H224    1.109   .     S
C47    O397    1.412   .     S
C48    H246    1.114   .     S
C48    H252    1.111   .     S
C48    H235    1.109   .     S
C48    O398    1.412   .     S
C49    H255    1.109   .     S
C49    O399    1.415   .     S
C49    H254    1.115   .     S
C49    H253    1.110   .     S
C50    O400    1.410   .     S
C50    H258    1.113   .     S
C50    H256    1.109   .     S
C50    H259    1.113   .     S
C51    H262    1.111   .     S
C51    H260    1.109   .     S
C51    H261    1.114   .     S
C51    O402    1.412   .     S
C52    H263    1.109   .     S
C52    O403    1.410   .     S
C52    H265    1.113   .     S
C52    H264    1.113   .     S
C53    H267    1.111   .     S
C53    O404    1.412   .     S
C53    H266    1.114   .     S
C53    H269    1.109   .     S
C54    H272    1.110   .     S
C54    H270    1.113   .     S
C54    O405    1.411   .     S
C54    H271    1.109   .     S
C55    O406    1.410   .     S
C55    H274    1.113   .     S
C55    H275    1.109   .     S
C55    H273    1.113   .     S
C56    H276    1.109   .     S
C56    H277    1.113   .     S
C56    O407    1.410   .     S
C56    H278    1.113   .     S
C57    O444    1.384   .     S
C57    C101    1.400   .     A
C58    H282    1.109   .     S
C58    O408    1.412   .     S
C58    H281    1.111   .     S
C58    H280    1.114   .     S
C59    H284    1.114   .     S
C59    H285    1.111   .     S
C59    O409    1.412   .     S
C59    H283    1.109   .     S
C60    H288    1.109   .     S
C60    H287    1.115   .     S
C60    O410    1.415   .     S
C60    H286    1.109   .     S
C61    H291    1.109   .     S
C61    O411    1.411   .     S
C61    H292    1.110   .     S
C61    H289    1.113   .     S
C62    H294    1.113   .     S
C62    H295    1.109   .     S
C62    O413    1.410   .     S
C62    H293    1.113   .     S
C63    H298    1.113   .     S
C63    H297    1.113   .     S
C63    O414    1.410   .     S
C63    H296    1.109   .     S
C64    H300    1.111   .     S
C64    H302    1.109   .     S
C64    H299    1.114   .     S
C64    O415    1.412   .     S
C65    H303    1.109   .     S
C65    H305    1.111   .     S
C65    H304    1.114   .     S
C65    O416    1.412   .     S
C66    H308    1.109   .     S
C66    H306    1.110   .     S
C66    H307    1.115   .     S
C66    O417    1.415   .     S
C67    H310    1.113   .     S
C67    O418    1.410   .     S
C67    H309    1.109   .     S
C67    H311    1.113   .     S
C68    O347    1.384   .     S
C68    C562    1.399   .     S
C69    O419    1.412   .     S
C69    H313    1.114   .     S
C69    H315    1.109   .     S
C69    H314    1.111   .     S
C70    O420    1.410   .     S
C70    H318    1.113   .     S
C70    H316    1.109   .     S
C70    H317    1.113   .     S
C71    O421    1.412   .     S
C71    H319    1.114   .     S
C71    H321    1.109   .     S
C71    H320    1.111   .     S
C72    H324    1.109   .     S
C72    H325    1.110   .     S
C72    O422    1.411   .     S
C72    H322    1.113   .     S
C73    H327    1.113   .     S
C73    H326    1.113   .     S
C73    O424    1.410   .     S
C73    H328    1.109   .     S
C74    H330    1.113   .     S
C74    O425    1.410   .     S
C74    H331    1.113   .     S
C74    H329    1.109   .     S
C75    O426    1.412   .     S
C75    H332    1.114   .     S
C75    H335    1.109   .     S
C75    H333    1.111   .     S
C76    O427    1.412   .     S
C76    H337    1.114   .     S
C76    H338    1.111   .     S
C76    H336    1.109   .     S
C77    O428    1.415   .     S
C77    H339    1.109   .     S
C77    H341    1.109   .     S
C77    H340    1.115   .     S
C78    H344    1.109   .     S
C78    H342    1.113   .     S
C78    H343    1.113   .     S
C78    O429    1.411   .     S
C79    C123    1.460   .     S
C79    C590    1.399   .     S
C80    H203    1.113   .     S
C80    O430    1.411   .     S
C80    H204    1.113   .     S
C80    H205    1.109   .     S
C81    H207    1.113   .     S
C81    O431    1.411   .     S
C81    H206    1.113   .     S
C81    H208    1.109   .     S
C82    H209    1.113   .     S
C82    O432    1.411   .     S
C82    H210    1.113   .     S
C82    H211    1.109   .     S
C83    O433    1.411   .     S
C83    H214    1.113   .     S
C83    H212    1.113   .     S
C83    H215    1.109   .     S
C84    O435    1.411   .     S
C84    H218    1.109   .     S
C84    H217    1.113   .     S
C84    H216    1.113   .     S
C85    H221    1.109   .     S
C85    H220    1.113   .     S
C85    O436    1.411   .     S
C85    H219    1.113   .     S
C86    H223    1.113   .     S
C86    H225    1.109   .     S
C86    O437    1.411   .     S
C86    H222    1.113   .     S
C87    H228    1.109   .     S
C87    H226    1.113   .     S
C87    O438    1.411   .     S
C87    H227    1.113   .     S
C88    H230    1.113   .     S
C88    O439    1.411   .     S
C88    H229    1.113   .     S
C88    H231    1.109   .     S
C89    H233    1.113   .     S
C89    O440    1.411   .     S
C89    H232    1.113   .     S
C89    H234    1.109   .     S
C90    C97     1.400   .     A
C90    C124    1.461   .     S
C90    C601    1.400   1_455 S
C91    H237    1.113   .     S
C91    O441    1.411   .     S
C91    H238    1.109   .     S
C91    H236    1.113   .     S
C92    H239    1.113   .     S
C92    H241    1.109   .     S
C92    H240    1.113   .     S
C92    O442    1.411   .     S
C93    H242    1.113   .     S
C93    H244    1.109   .     S
C93    O443    1.411   .     S
C93    H243    1.113   .     S
C94    H247    1.113   .     S
C94    H245    1.113   .     S
C94    O444    1.411   .     S
C94    H248    1.109   .     S
C95    O347    1.411   .     S
C95    H250    1.113   .     S
C95    H249    1.113   .     S
C95    H251    1.109   .     S
C96    C121    1.461   .     S
C96    C152    1.400   .     A
C96    C1028   1.400   .     S
C97    O430    1.384   .     S
C98    C122    1.460   .     S
C98    C163    1.399   .     A
C98    C1039   1.399   1_545 S
C99    C127    1.460   .     S
C99    C1094   1.399   .     S
C100   C128    1.461   .     S
C100   C966    1.400   .     S
C101   C125    1.461   .     S
C101   C473    1.400   1_455 S
C102   C126    1.460   .     S
C102   C528    1.399   1_455 S
C103   Cl185   1.778   .     S
C103   C109    1.401   .     A
C103   C182    1.417   .     A
C104   Cl193   1.778   .     S
C104   C183    1.417   .     A
C104   C107    1.401   .     A
C105   C184    1.417   .     A
C105   Cl194   1.778   .     S
C105   C111    1.401   .     A
C106   Cl195   1.778   .     S
C106   C110    1.401   .     A
C107   Cl196   1.777   .     S
C108   O431    1.384   .     S
C108   C1016   1.400   1_545 S
C109   Cl197   1.778   .     S
C110   Cl198   1.778   .     S
C111   Cl199   1.778   .     S
C112   Cl200   1.778   .     S
C112   C117    1.401   1_556 S
C113   Cl186   1.778   .     S
C113   C116    1.401   1_554 S
C114   Cl187   1.778   .     S
C114   C120    1.401   1_556 S
C115   Cl188   1.777   .     S
C115   C118    1.401   1_554 S
C116   Cl189   1.777   .     S
C116   C113    1.401   1_556 S
C117   Cl190   1.778   .     S
C117   C112    1.401   1_554 S
C118   Cl191   1.778   .     S
C118   C115    1.401   1_556 S
C119   O432    1.384   .     S
C119   C1018   1.399   .     S
C120   Cl192   1.778   .     S
C120   C114    1.401   1_554 S
C121   O390    1.278   .     A
C121   O1354   1.278   .     S
C122   O401    1.278   .     A
C122   O1266   1.278   1_545 S
C123   O348    1.278   .     A
C123   O872    1.278   .     S
C124   O349    1.278   .     A
C124   O883    1.278   1_455 S
C125   O350    1.278   .     A
C125   O354    1.278   .     A
C126   O351    1.278   .     A
C126   O355    1.278   .     S
C127   O1272   1.278   .     S
C127   O1276   1.278   .     S
C128   O1273   1.278   .     S
C128   O1278   1.278   .     S
C129   O359    1.281   .     A
C129   O387    1.281   .     A
C130   O433    1.384   .     S
C130   C182    1.412   .     A
C130   C539    1.399   1_455 S
C131   O388    1.279   .     A
C131   O360    1.279   .     A
C132   O361    1.280   .     A
C132   O385    1.278   .     A
C133   O386    1.282   .     A
C133   O362    1.278   .     A
C134   O392    1.280   .     A
C134   O363    1.280   .     A
C135   O364    1.278   .     A
C135   O393    1.278   .     A
C136   O365    1.278   .     A
C136   O389    1.280   .     A
C137   O366    1.282   .     A
C137   O391    1.278   .     A
C138   O367    1.278   .     A
C138   O378    1.280   .     A
C139   O369    1.282   .     A
C139   O380    1.278   .     A
C140   O370    1.281   .     A
C140   O376    1.281   .     A
C141   O435    1.384   .     S
C141   C183    1.412   .     A
C141   C550    1.400   .     S
C142   O377    1.279   .     A
C142   O371    1.279   .     A
C143   O383    1.278   .     A
C143   O372    1.280   .     A
C144   O373    1.278   .     A
C144   O384    1.282   .     A
C145   O381    1.280   .     A
C145   O374    1.280   .     A
C146   O382    1.278   .     A
C146   O375    1.278   .     A
C147   C164    1.397   .     A
C147   O394    1.385   .     S
C148   C162    1.397   .     A
C148   O395    1.384   .     S
C149   C161    1.399   .     A
C149   O396    1.384   .     S
C150   C160    1.399   .     A
C150   O397    1.385   .     S
C151   C159    1.397   .     A
C151   O398    1.385   .     S
C152   O436    1.384   .     S
C152   C184    1.412   .     A
C153   O399    1.386   .     S
C153   C158    1.397   .     A
C154   O400    1.384   .     S
C154   C157    1.398   .     A
C155   O402    1.385   .     S
C155   C156    1.398   .     A
C156   O403    1.384   .     S
C157   O404    1.385   .     S
C158   O405    1.385   .     S
C159   O406    1.384   .     S
C160   O407    1.384   .     S
C161   O408    1.385   .     S
C162   O409    1.385   .     S
C163   O437    1.384   .     S
C164   O410    1.386   .     S
C165   O411    1.385   .     S
C165   C181    1.397   .     A
C166   O413    1.384   .     S
C166   C180    1.397   .     A
C167   C179    1.399   .     A
C167   O414    1.384   .     S
C168   O415    1.385   .     S
C168   C178    1.399   .     A
C169   O416    1.385   .     S
C169   C177    1.397   .     A
C170   C176    1.397   .     A
C170   O417    1.386   .     S
C171   C175    1.398   .     A
C171   O418    1.384   .     S
C172   O419    1.385   .     S
C172   C173    1.398   .     A
C173   O420    1.384   .     S
C174   O438    1.384   .     S
C174   C1019   1.399   1_545 S
C175   O421    1.385   .     S
C176   O422    1.385   .     S
C177   O424    1.384   .     S
C178   O425    1.384   .     S
C179   O426    1.385   .     S
C180   O427    1.385   .     S
C181   O428    1.386   .     S
C182   C494    1.423   1_455 S
C184   C957    1.423   .     S
O345   Zn456   1.946   .     S
O345   Zn448   1.947   .     S
O345   Zn445   1.947   .     S
O345   Zn1372  1.946   1_545 S
O346   Zn447   1.951   .     S
O346   C1042   1.278   .     S
O348   Zn450   1.951   .     S
O349   Zn449   1.951   .     S
O350   Zn459   1.951   .     S
O351   Zn458   1.951   .     S
O352   Zn453   1.951   .     S
O352   C1047   1.278   1_545 S
O353   Zn445   1.951   .     S
O353   C1048   1.278   1_545 S
O354   Zn455   1.951   .     S
O355   Zn454   1.951   .     S
O356   Zn457   1.951   .     S
O356   C1047   1.278   1_545 S
O357   Zn451   1.946   .     S
O357   Zn457   1.946   .     S
O357   Zn453   1.947   .     S
O357   Zn1367  1.947   1_545 S
O358   Zn456   1.951   .     S
O358   C1048   1.278   1_545 S
O359   Zn448   1.934   .     S
O360   Zn447   1.934   .     S
O361   Zn450   1.932   .     S
O362   Zn449   1.932   .     S
O363   Zn452   1.934   .     S
O364   Zn451   1.934   .     S
O365   Zn446   1.932   .     S
O366   Zn460   1.932   .     S
O367   Zn447   1.932   .     S
O368   Zn454   1.947   .     S
O368   Zn458   1.946   .     S
O368   Zn446   1.947   .     S
O368   Zn910   1.946   1_455 S
O369   Zn448   1.932   .     S
O370   Zn460   1.934   .     S
O371   Zn446   1.934   .     S
O372   Zn451   1.932   .     S
O373   Zn452   1.932   .     S
O374   Zn449   1.934   .     S
O375   Zn450   1.934   .     S
O376   Zn915   1.934   .     S
O377   Zn454   1.934   .     S
O378   Zn1377  1.932   .     S
O379   Zn455   1.947   .     S
O379   Zn449   1.946   .     S
O379   Zn459   1.946   .     S
O379   Zn920   1.947   1_455 S
O380   Zn456   1.932   .     S
O381   Zn459   1.934   .     S
O382   Zn918   1.934   .     S
O383   Zn453   1.932   .     S
O384   Zn1365  1.932   .     S
O385   Zn914   1.932   .     S
O386   Zn455   1.932   .     S
O387   Zn445   1.934   .     S
O388   Zn1373  1.934   .     S
O389   Zn458   1.932   .     S
O390   Zn452   1.951   .     S
O391   Zn919   1.932   .     S
O392   Zn1376  1.934   .     S
O393   Zn457   1.934   .     S
O401   Zn451   1.951   .     S
O412   Zn446   1.951   .     S
O412   C583    1.278   1_455 S
O423   Zn460   1.951   .     S
O423   C584    1.278   .     S
O434   Zn448   1.951   .     S
O434   C1041   1.278   1_545 S
Zn445  O1304   1.932   1_545 S
Zn447  O1277   1.947   .     S
Zn450  O828    1.946   .     S
Zn452  O1265   1.946   .     S
Zn453  O1308   1.934   1_545 S
Zn454  O845    1.932   1_455 S
Zn455  O836    1.934   1_455 S
Zn456  O1312   1.934   1_545 S
Zn457  O1298   1.932   1_545 S
Zn458  O842    1.934   1_455 S
Zn459  O851    1.932   1_455 S
Zn460  O839    1.947   .     S
C461   O889    1.384   .     S
C461   C539    1.399   .     A
C461   C464    1.411   .     A
C462   C474    1.412   .     A
C462   O899    1.384   .     S
C462   C560    1.400   .     A
C463   C623    1.411   .     A
C463   C566    1.417   .     A
C463   C498    1.423   .     A
C464   C494    1.423   .     A
C464   C567    1.417   .     A
C465   C569    1.417   .     A
C465   C557    1.412   .     A
C466   C570    1.417   .     A
C466   C497    1.423   .     A
C466   C568    1.412   .     A
C467   C579    1.412   .     A
C467   C571    1.417   .     A
C467   C1418   1.423   .     S
C468   C495    1.412   .     A
C468   C572    1.417   .     A
C468   C499    1.423   .     A
C469   C506    1.412   .     A
C469   C573    1.417   .     A
C469   C1420   1.423   1_545 S
C470   C501    1.423   .     A
C470   C574    1.417   .     A
C470   C517    1.412   .     A
C471   C575    1.417   .     A
C471   C528    1.411   .     A
C471   C42     1.423   1_655 S
C472   C634    1.411   .     A
C472   C576    1.417   .     A
C472   C1419   1.423   1_545 S
C473   O900    1.384   .     S
C473   C475    1.412   .     A
C473   C101    1.400   1_655 S
C474   C577    1.417   .     A
C474   C500    1.423   .     A
C475   C578    1.417   .     A
C475   C41     1.423   1_655 S
C476   C580    1.417   .     A
C476   C484    1.412   .     A
C476   C502    1.423   .     A
C477   C624    1.410   .     A
C477   C626    1.406   .     A
C477   C596    1.450   .     S
C478   C597    1.454   .     S
C478   C625    1.410   .     A
C478   C622    1.407   .     A
C479   C589    1.457   .     S
C479   C621    1.409   .     A
C479   C628    1.409   .     A
C480   C620    1.405   .     A
C480   C627    1.405   .     A
C480   C591    1.450   .     S
C481   C619    1.406   .     A
C481   C592    1.450   .     S
C481   C630    1.410   .     A
C482   C593    1.454   .     S
C482   C618    1.410   .     A
C482   C629    1.407   .     A
C483   C594    1.457   .     S
C483   C617    1.410   .     A
C483   C632    1.410   .     A
C484   O901    1.384   .     S
C484   C562    1.399   .     A
C485   C631    1.405   .     A
C485   C595    1.450   .     S
C485   C616    1.405   .     A
C486   C615    1.410   .     A
C486   C605    1.457   .     S
C486   C635    1.410   .     A
C487   C614    1.405   .     A
C487   C606    1.450   .     S
C487   C633    1.405   .     A
C488   C613    1.410   .     A
C488   C637    1.406   .     A
C488   C598    1.450   .     S
C489   C611    1.407   .     A
C489   C636    1.410   .     A
C489   C599    1.454   .     S
C490   C610    1.409   .     A
C490   C639    1.409   .     A
C490   C600    1.457   .     S
C491   C609    1.405   .     A
C491   C638    1.405   .     A
C491   C602    1.450   .     S
C492   C641    1.410   .     A
C492   C608    1.406   .     A
C492   C603    1.450   .     S
C493   C604    1.454   .     S
C493   C607    1.410   .     A
C493   C640    1.407   .     A
C494   C496    1.412   .     A
C494   C182    1.423   1_655 S
C495   O902    1.384   .     S
C495   C559    1.399   .     A
C496   C643    1.423   .     A
C496   C5      1.423   1_655 S
C497   C498    1.412   .     A
C497   C1564   1.423   1_545 S
C498   C1387   1.423   1_545 S
C499   C1392   1.423   .     S
C499   C500    1.412   1_556 S
C500   C1389   1.423   .     S
C500   C499    1.412   1_554 S
C501   C502    1.412   1_556 S
C502   C501    1.412   1_554 S
C503   H661    1.113   .     S
C503   H728    1.110   .     S
C503   H717    1.109   .     S
C503   O854    1.411   .     S
C504   H739    1.113   .     S
C504   H761    1.109   .     S
C504   O855    1.410   .     S
C504   H750    1.113   .     S
C505   H772    1.109   .     S
C505   H794    1.113   .     S
C505   H783    1.113   .     S
C505   O856    1.410   .     S
C506   O903    1.384   .     S
C506   C1480   1.400   1_545 S
C507   H662    1.114   .     S
C507   H673    1.111   .     S
C507   H684    1.109   .     S
C507   O857    1.412   .     S
C508   H706    1.114   .     S
C508   H712    1.111   .     S
C508   H695    1.109   .     S
C508   O858    1.412   .     S
C509   H715    1.109   .     S
C509   O859    1.415   .     S
C509   H714    1.115   .     S
C509   H713    1.110   .     S
C510   O860    1.410   .     S
C510   H718    1.113   .     S
C510   H716    1.109   .     S
C510   H719    1.113   .     S
C511   H722    1.111   .     S
C511   H720    1.109   .     S
C511   H721    1.114   .     S
C511   O862    1.412   .     S
C512   H723    1.109   .     S
C512   O863    1.410   .     S
C512   H725    1.113   .     S
C512   H724    1.113   .     S
C513   H727    1.111   .     S
C513   O864    1.412   .     S
C513   H726    1.114   .     S
C513   H729    1.109   .     S
C514   H732    1.110   .     S
C514   H730    1.113   .     S
C514   O865    1.411   .     S
C514   H731    1.109   .     S
C515   O866    1.410   .     S
C515   H734    1.113   .     S
C515   H735    1.109   .     S
C515   H733    1.113   .     S
C516   H736    1.109   .     S
C516   H737    1.113   .     S
C516   O867    1.410   .     S
C516   H738    1.113   .     S
C517   O904    1.384   .     S
C517   C561    1.400   .     A
C518   H742    1.109   .     S
C518   O868    1.412   .     S
C518   H741    1.111   .     S
C518   H740    1.114   .     S
C519   H744    1.114   .     S
C519   H745    1.111   .     S
C519   O869    1.412   .     S
C519   H743    1.109   .     S
C520   H748    1.109   .     S
C520   H747    1.115   .     S
C520   O870    1.415   .     S
C520   H746    1.109   .     S
C521   H751    1.109   .     S
C521   O871    1.411   .     S
C521   H752    1.110   .     S
C521   H749    1.113   .     S
C522   H754    1.113   .     S
C522   H755    1.109   .     S
C522   O873    1.410   .     S
C522   H753    1.113   .     S
C523   H758    1.113   .     S
C523   H757    1.113   .     S
C523   O874    1.410   .     S
C523   H756    1.109   .     S
C524   H760    1.111   .     S
C524   H762    1.109   .     S
C524   H759    1.114   .     S
C524   O875    1.412   .     S
C525   H763    1.109   .     S
C525   H765    1.111   .     S
C525   H764    1.114   .     S
C525   O876    1.412   .     S
C526   H768    1.109   .     S
C526   H766    1.110   .     S
C526   H767    1.115   .     S
C526   O877    1.415   .     S
C527   H770    1.113   .     S
C527   O878    1.410   .     S
C527   H769    1.109   .     S
C527   H771    1.113   .     S
C528   O807    1.384   .     S
C528   C102    1.399   1_655 S
C529   O879    1.412   .     S
C529   H773    1.114   .     S
C529   H775    1.109   .     S
C529   H774    1.111   .     S
C530   O880    1.410   .     S
C530   H778    1.113   .     S
C530   H776    1.109   .     S
C530   H777    1.113   .     S
C531   O881    1.412   .     S
C531   H779    1.114   .     S
C531   H781    1.109   .     S
C531   H780    1.111   .     S
C532   H784    1.109   .     S
C532   H785    1.110   .     S
C532   O882    1.411   .     S
C532   H782    1.113   .     S
C533   H787    1.113   .     S
C533   H786    1.113   .     S
C533   O884    1.410   .     S
C533   H788    1.109   .     S
C534   H790    1.113   .     S
C534   O885    1.410   .     S
C534   H791    1.113   .     S
C534   H789    1.109   .     S
C535   O886    1.412   .     S
C535   H792    1.114   .     S
C535   H795    1.109   .     S
C535   H793    1.111   .     S
C536   O887    1.412   .     S
C536   H797    1.114   .     S
C536   H798    1.111   .     S
C536   H796    1.109   .     S
C537   O888    1.415   .     S
C537   H799    1.109   .     S
C537   H801    1.109   .     S
C537   H800    1.115   .     S
C538   H804    1.109   .     S
C538   H802    1.113   .     S
C538   H803    1.113   .     S
C538   O889    1.411   .     S
C539   C583    1.460   .     S
C539   C130    1.399   1_655 S
C540   H663    1.113   .     S
C540   O890    1.411   .     S
C540   H664    1.113   .     S
C540   H665    1.109   .     S
C541   H667    1.113   .     S
C541   O891    1.411   .     S
C541   H666    1.113   .     S
C541   H668    1.109   .     S
C542   H669    1.113   .     S
C542   O892    1.411   .     S
C542   H670    1.113   .     S
C542   H671    1.109   .     S
C543   O893    1.411   .     S
C543   H674    1.113   .     S
C543   H672    1.113   .     S
C543   H675    1.109   .     S
C544   O895    1.411   .     S
C544   H678    1.109   .     S
C544   H677    1.113   .     S
C544   H676    1.113   .     S
C545   H681    1.109   .     S
C545   H680    1.113   .     S
C545   O896    1.411   .     S
C545   H679    1.113   .     S
C546   H683    1.113   .     S
C546   H685    1.109   .     S
C546   O897    1.411   .     S
C546   H682    1.113   .     S
C547   H688    1.109   .     S
C547   H686    1.113   .     S
C547   O898    1.411   .     S
C547   H687    1.113   .     S
C548   H690    1.113   .     S
C548   O899    1.411   .     S
C548   H689    1.113   .     S
C548   H691    1.109   .     S
C549   H693    1.113   .     S
C549   O900    1.411   .     S
C549   H692    1.113   .     S
C549   H694    1.109   .     S
C550   C557    1.400   .     A
C550   C584    1.461   .     S
C551   H697    1.113   .     S
C551   O901    1.411   .     S
C551   H698    1.109   .     S
C551   H696    1.113   .     S
C552   H699    1.113   .     S
C552   H701    1.109   .     S
C552   H700    1.113   .     S
C552   O902    1.411   .     S
C553   H702    1.113   .     S
C553   H704    1.109   .     S
C553   O903    1.411   .     S
C553   H703    1.113   .     S
C554   H707    1.113   .     S
C554   H705    1.113   .     S
C554   O904    1.411   .     S
C554   H708    1.109   .     S
C555   O807    1.411   .     S
C555   H710    1.113   .     S
C555   H709    1.113   .     S
C555   H711    1.109   .     S
C556   C581    1.461   .     S
C556   C612    1.400   .     A
C556   C1488   1.400   .     S
C557   O890    1.384   .     S
C558   C582    1.460   .     S
C558   C623    1.399   .     A
C558   C1499   1.399   1_545 S
C559   C587    1.460   .     S
C559   C1554   1.399   .     S
C560   C588    1.461   .     S
C560   C1426   1.400   .     S
C561   C585    1.461   .     S
C562   C586    1.460   .     S
C563   Cl645   1.778   .     S
C563   C569    1.401   .     A
C563   C642    1.417   .     A
C564   Cl653   1.778   .     S
C564   C643    1.417   .     A
C564   C567    1.401   .     A
C565   C644    1.417   .     A
C565   Cl654   1.778   .     S
C565   C571    1.401   .     A
C566   Cl655   1.778   .     S
C566   C570    1.401   .     A
C567   Cl656   1.777   .     S
C568   O891    1.384   .     S
C568   C1476   1.400   1_545 S
C569   Cl657   1.778   .     S
C570   Cl658   1.778   .     S
C571   Cl659   1.778   .     S
C572   Cl660   1.778   .     S
C572   C577    1.401   1_556 S
C573   Cl646   1.778   .     S
C573   C576    1.401   1_554 S
C574   Cl647   1.778   .     S
C574   C580    1.401   1_556 S
C575   Cl648   1.777   .     S
C575   C578    1.401   1_554 S
C576   Cl649   1.777   .     S
C576   C573    1.401   1_556 S
C577   Cl650   1.778   .     S
C577   C572    1.401   1_554 S
C578   Cl651   1.778   .     S
C578   C575    1.401   1_556 S
C579   O892    1.384   .     S
C579   C1478   1.399   .     S
C580   Cl652   1.778   .     S
C580   C574    1.401   1_554 S
C581   O850    1.278   .     A
C581   O1814   1.278   .     S
C582   O861    1.278   .     A
C582   O1726   1.278   1_545 S
C583   O808    1.278   .     A
C583   O412    1.278   1_655 S
C584   O809    1.278   .     A
C585   O810    1.278   .     A
C585   O814    1.278   .     A
C586   O811    1.278   .     A
C586   O815    1.278   .     S
C587   O1732   1.278   .     S
C587   O1736   1.278   .     S
C588   O1733   1.278   .     S
C588   O1738   1.278   .     S
C589   O819    1.281   .     A
C589   O847    1.281   .     A
C590   O893    1.384   .     S
C590   C642    1.412   .     A
C591   O848    1.279   .     A
C591   O820    1.279   .     A
C592   O821    1.280   .     A
C592   O845    1.278   .     A
C593   O846    1.282   .     A
C593   O822    1.278   .     A
C594   O852    1.280   .     A
C594   O823    1.280   .     A
C595   O824    1.278   .     A
C595   O853    1.278   .     A
C596   O825    1.278   .     A
C596   O849    1.280   .     A
C597   O826    1.282   .     A
C597   O851    1.278   .     A
C598   O827    1.278   .     A
C598   O838    1.280   .     A
C599   O829    1.282   .     A
C599   O840    1.278   .     A
C600   O830    1.281   .     A
C600   O836    1.281   .     A
C601   O895    1.384   .     S
C601   C643    1.412   .     A
C601   C90     1.400   1_655 S
C602   O837    1.279   .     A
C602   O831    1.279   .     A
C603   O843    1.278   .     A
C603   O832    1.280   .     A
C604   O833    1.278   .     A
C604   O844    1.282   .     A
C605   O841    1.280   .     A
C605   O834    1.280   .     A
C606   O842    1.278   .     A
C606   O835    1.278   .     A
C607   C624    1.397   .     A
C607   O854    1.385   .     S
C608   C622    1.397   .     A
C608   O855    1.384   .     S
C609   C621    1.399   .     A
C609   O856    1.384   .     S
C610   C620    1.399   .     A
C610   O857    1.385   .     S
C611   C619    1.397   .     A
C611   O858    1.385   .     S
C612   O896    1.384   .     S
C612   C644    1.412   .     A
C613   O859    1.386   .     S
C613   C618    1.397   .     A
C614   O860    1.384   .     S
C614   C617    1.398   .     A
C615   O862    1.385   .     S
C615   C616    1.398   .     A
C616   O863    1.384   .     S
C617   O864    1.385   .     S
C618   O865    1.385   .     S
C619   O866    1.384   .     S
C620   O867    1.384   .     S
C621   O868    1.385   .     S
C622   O869    1.385   .     S
C623   O897    1.384   .     S
C624   O870    1.386   .     S
C625   O871    1.385   .     S
C625   C641    1.397   .     A
C626   O873    1.384   .     S
C626   C640    1.397   .     A
C627   C639    1.399   .     A
C627   O874    1.384   .     S
C628   O875    1.385   .     S
C628   C638    1.399   .     A
C629   O876    1.385   .     S
C629   C637    1.397   .     A
C630   C636    1.397   .     A
C630   O877    1.386   .     S
C631   C635    1.398   .     A
C631   O878    1.384   .     S
C632   O879    1.385   .     S
C632   C633    1.398   .     A
C633   O880    1.384   .     S
C634   O898    1.384   .     S
C634   C1479   1.399   1_545 S
C635   O881    1.385   .     S
C636   O882    1.385   .     S
C637   O884    1.384   .     S
C638   O885    1.384   .     S
C639   O886    1.385   .     S
C640   O887    1.385   .     S
C641   O888    1.386   .     S
C644   C1417   1.423   .     S
O805   Zn916   1.946   .     S
O805   Zn908   1.947   .     S
O805   Zn905   1.947   .     S
O805   Zn1832  1.946   1_545 S
O806   Zn907   1.951   .     S
O806   C1502   1.278   .     S
O808   Zn910   1.951   .     S
O809   Zn909   1.951   .     S
O810   Zn919   1.951   .     S
O811   Zn918   1.951   .     S
O812   Zn913   1.951   .     S
O812   C1507   1.278   1_545 S
O813   Zn905   1.951   .     S
O813   C1508   1.278   1_545 S
O814   Zn915   1.951   .     S
O815   Zn914   1.951   .     S
O816   Zn917   1.951   .     S
O816   C1507   1.278   1_545 S
O817   Zn911   1.946   .     S
O817   Zn917   1.946   .     S
O817   Zn913   1.947   .     S
O817   Zn1827  1.947   1_545 S
O818   Zn916   1.951   .     S
O818   C1508   1.278   1_545 S
O819   Zn908   1.934   .     S
O820   Zn907   1.934   .     S
O821   Zn910   1.932   .     S
O822   Zn909   1.932   .     S
O823   Zn912   1.934   .     S
O824   Zn911   1.934   .     S
O825   Zn906   1.932   .     S
O826   Zn920   1.932   .     S
O827   Zn907   1.932   .     S
O828   Zn914   1.947   .     S
O828   Zn918   1.946   .     S
O828   Zn906   1.947   .     S
O829   Zn908   1.932   .     S
O830   Zn920   1.934   .     S
O831   Zn906   1.934   .     S
O832   Zn911   1.932   .     S
O833   Zn912   1.932   .     S
O834   Zn909   1.934   .     S
O835   Zn910   1.934   .     S
O836   Zn455   1.934   1_655 S
O837   Zn914   1.934   .     S
O838   Zn1837  1.932   .     S
O839   Zn915   1.947   .     S
O839   Zn909   1.946   .     S
O839   Zn919   1.946   .     S
O840   Zn916   1.932   .     S
O841   Zn919   1.934   .     S
O842   Zn458   1.934   1_655 S
O843   Zn913   1.932   .     S
O844   Zn1825  1.932   .     S
O845   Zn454   1.932   1_655 S
O846   Zn915   1.932   .     S
O847   Zn905   1.934   .     S
O848   Zn1833  1.934   .     S
O849   Zn918   1.932   .     S
O850   Zn912   1.951   .     S
O851   Zn459   1.932   1_655 S
O852   Zn1836  1.934   .     S
O853   Zn917   1.934   .     S
O861   Zn911   1.951   .     S
O872   Zn906   1.951   .     S
O883   Zn920   1.951   .     S
O883   C124    1.278   1_655 S
O894   Zn908   1.951   .     S
O894   C1501   1.278   1_545 S
Zn905  O1764   1.932   1_545 S
Zn907  O1737   1.947   .     S
Zn910  O368    1.946   1_655 S
Zn912  O1725   1.946   .     S
Zn913  O1768   1.934   1_545 S
Zn916  O1772   1.934   1_545 S
Zn917  O1758   1.932   1_545 S
Zn920  O379    1.947   1_655 S
C921   O1349   1.384   .     S
C921   C999    1.399   .     A
C921   C924    1.411   .     A
C922   C934    1.412   .     A
C922   O1359   1.384   .     S
C922   C1020   1.400   .     A
C923   C1083   1.411   .     A
C923   C1026   1.417   .     A
C923   C958    1.423   .     A
C924   C954    1.423   .     A
C924   C1027   1.417   .     A
C925   C1029   1.417   .     A
C925   C1017   1.412   .     A
C925   C1416   1.423   1_455 S
C926   C1030   1.417   .     A
C926   C957    1.423   .     A
C926   C1028   1.412   .     A
C927   C1039   1.412   .     A
C927   C1031   1.417   .     A
C927   C38     1.423   1_565 S
C928   C955    1.412   .     A
C928   C1032   1.417   .     A
C928   C959    1.423   .     A
C929   C966    1.412   .     A
C929   C1033   1.417   .     A
C930   C961    1.423   .     A
C930   C1034   1.417   .     A
C930   C977    1.412   .     A
C931   C1035   1.417   .     A
C931   C988    1.411   .     A
C931   C1422   1.423   .     S
C932   C1094   1.411   .     A
C932   C1036   1.417   .     A
C933   O1360   1.384   .     S
C933   C935    1.412   .     A
C933   C1481   1.400   .     S
C934   C1037   1.417   .     A
C934   C960    1.423   .     A
C935   C1038   1.417   .     A
C935   C1421   1.423   .     S
C936   C1040   1.417   .     A
C936   C944    1.412   .     A
C936   C962    1.423   .     A
C937   C1084   1.410   .     A
C937   C1086   1.406   .     A
C937   C1056   1.450   .     S
C938   C1057   1.454   .     S
C938   C1085   1.410   .     A
C938   C1082   1.407   .     A
C939   C1049   1.457   .     S
C939   C1081   1.409   .     A
C939   C1088   1.409   .     A
C940   C1080   1.405   .     A
C940   C1087   1.405   .     A
C940   C1051   1.450   .     S
C941   C1079   1.406   .     A
C941   C1052   1.450   .     S
C941   C1090   1.410   .     A
C942   C1053   1.454   .     S
C942   C1078   1.410   .     A
C942   C1089   1.407   .     A
C943   C1054   1.457   .     S
C943   C1077   1.410   .     A
C943   C1092   1.410   .     A
C944   O1361   1.384   .     S
C944   C1022   1.399   .     A
C945   C1091   1.405   .     A
C945   C1055   1.450   .     S
C945   C1076   1.405   .     A
C946   C1075   1.410   .     A
C946   C1065   1.457   .     S
C946   C1095   1.410   .     A
C947   C1074   1.405   .     A
C947   C1066   1.450   .     S
C947   C1093   1.405   .     A
C948   C1073   1.410   .     A
C948   C1097   1.406   .     A
C948   C1058   1.450   .     S
C949   C1071   1.407   .     A
C949   C1096   1.410   .     A
C949   C1059   1.454   .     S
C950   C1070   1.409   .     A
C950   C1099   1.409   .     A
C950   C1060   1.457   .     S
C951   C1069   1.405   .     A
C951   C1098   1.405   .     A
C951   C1062   1.450   .     S
C952   C1101   1.410   .     A
C952   C1068   1.406   .     A
C952   C1063   1.450   .     S
C953   C1064   1.454   .     S
C953   C1067   1.410   .     A
C953   C1100   1.407   .     A
C954   C956    1.412   .     A
C954   C1562   1.423   .     S
C955   O1362   1.384   .     S
C955   C1019   1.399   .     A
C956   C1103   1.423   .     A
C956   C1385   1.423   .     S
C957   C958    1.412   .     A
C959   C12     1.423   1_565 S
C959   C960    1.412   1_556 S
C960   C9      1.423   1_565 S
C960   C959    1.412   1_554 S
C961   C1395   1.423   1_455 S
C961   C962    1.412   1_556 S
C962   C1391   1.423   1_455 S
C962   C961    1.412   1_554 S
C963   H1121   1.113   .     S
C963   H1188   1.110   .     S
C963   H1177   1.109   .     S
C963   O1314   1.411   .     S
C964   H1199   1.113   .     S
C964   H1221   1.109   .     S
C964   O1315   1.410   .     S
C964   H1210   1.113   .     S
C965   H1232   1.109   .     S
C965   H1254   1.113   .     S
C965   H1243   1.113   .     S
C965   O1316   1.410   .     S
C966   O1363   1.384   .     S
C967   H1122   1.114   .     S
C967   H1133   1.111   .     S
C967   H1144   1.109   .     S
C967   O1317   1.412   .     S
C968   H1166   1.114   .     S
C968   H1172   1.111   .     S
C968   H1155   1.109   .     S
C968   O1318   1.412   .     S
C969   H1175   1.109   .     S
C969   O1319   1.415   .     S
C969   H1174   1.115   .     S
C969   H1173   1.110   .     S
C970   O1320   1.410   .     S
C970   H1178   1.113   .     S
C970   H1176   1.109   .     S
C970   H1179   1.113   .     S
C971   H1182   1.111   .     S
C971   H1180   1.109   .     S
C971   H1181   1.114   .     S
C971   O1322   1.412   .     S
C972   H1183   1.109   .     S
C972   O1323   1.410   .     S
C972   H1185   1.113   .     S
C972   H1184   1.113   .     S
C973   H1187   1.111   .     S
C973   O1324   1.412   .     S
C973   H1186   1.114   .     S
C973   H1189   1.109   .     S
C974   H1192   1.110   .     S
C974   H1190   1.113   .     S
C974   O1325   1.411   .     S
C974   H1191   1.109   .     S
C975   O1326   1.410   .     S
C975   H1194   1.113   .     S
C975   H1195   1.109   .     S
C975   H1193   1.113   .     S
C976   H1196   1.109   .     S
C976   H1197   1.113   .     S
C976   O1327   1.410   .     S
C976   H1198   1.113   .     S
C977   O1364   1.384   .     S
C977   C1021   1.400   .     A
C978   H1202   1.109   .     S
C978   O1328   1.412   .     S
C978   H1201   1.111   .     S
C978   H1200   1.114   .     S
C979   H1204   1.114   .     S
C979   H1205   1.111   .     S
C979   O1329   1.412   .     S
C979   H1203   1.109   .     S
C980   H1208   1.109   .     S
C980   H1207   1.115   .     S
C980   O1330   1.415   .     S
C980   H1206   1.109   .     S
C981   H1211   1.109   .     S
C981   O1331   1.411   .     S
C981   H1212   1.110   .     S
C981   H1209   1.113   .     S
C982   H1214   1.113   .     S
C982   H1215   1.109   .     S
C982   O1333   1.410   .     S
C982   H1213   1.113   .     S
C983   H1218   1.113   .     S
C983   H1217   1.113   .     S
C983   O1334   1.410   .     S
C983   H1216   1.109   .     S
C984   H1220   1.111   .     S
C984   H1222   1.109   .     S
C984   H1219   1.114   .     S
C984   O1335   1.412   .     S
C985   H1223   1.109   .     S
C985   H1225   1.111   .     S
C985   H1224   1.114   .     S
C985   O1336   1.412   .     S
C986   H1228   1.109   .     S
C986   H1226   1.110   .     S
C986   H1227   1.115   .     S
C986   O1337   1.415   .     S
C987   H1230   1.113   .     S
C987   O1338   1.410   .     S
C987   H1229   1.109   .     S
C987   H1231   1.113   .     S
C988   O1267   1.384   .     S
C988   C1482   1.399   .     S
C989   O1339   1.412   .     S
C989   H1233   1.114   .     S
C989   H1235   1.109   .     S
C989   H1234   1.111   .     S
C990   O1340   1.410   .     S
C990   H1238   1.113   .     S
C990   H1236   1.109   .     S
C990   H1237   1.113   .     S
C991   O1341   1.412   .     S
C991   H1239   1.114   .     S
C991   H1241   1.109   .     S
C991   H1240   1.111   .     S
C992   H1244   1.109   .     S
C992   H1245   1.110   .     S
C992   O1342   1.411   .     S
C992   H1242   1.113   .     S
C993   H1247   1.113   .     S
C993   H1246   1.113   .     S
C993   O1344   1.410   .     S
C993   H1248   1.109   .     S
C994   H1250   1.113   .     S
C994   O1345   1.410   .     S
C994   H1251   1.113   .     S
C994   H1249   1.109   .     S
C995   O1346   1.412   .     S
C995   H1252   1.114   .     S
C995   H1255   1.109   .     S
C995   H1253   1.111   .     S
C996   O1347   1.412   .     S
C996   H1257   1.114   .     S
C996   H1258   1.111   .     S
C996   H1256   1.109   .     S
C997   O1348   1.415   .     S
C997   H1259   1.109   .     S
C997   H1261   1.109   .     S
C997   H1260   1.115   .     S
C998   H1264   1.109   .     S
C998   H1262   1.113   .     S
C998   H1263   1.113   .     S
C998   O1349   1.411   .     S
C999   C1043   1.460   .     S
C999   C1510   1.399   .     S
C1000  H1123   1.113   .     S
C1000  O1350   1.411   .     S
C1000  H1124   1.113   .     S
C1000  H1125   1.109   .     S
C1001  H1127   1.113   .     S
C1001  O1351   1.411   .     S
C1001  H1126   1.113   .     S
C1001  H1128   1.109   .     S
C1002  H1129   1.113   .     S
C1002  O1352   1.411   .     S
C1002  H1130   1.113   .     S
C1002  H1131   1.109   .     S
C1003  O1353   1.411   .     S
C1003  H1134   1.113   .     S
C1003  H1132   1.113   .     S
C1003  H1135   1.109   .     S
C1004  O1355   1.411   .     S
C1004  H1138   1.109   .     S
C1004  H1137   1.113   .     S
C1004  H1136   1.113   .     S
C1005  H1141   1.109   .     S
C1005  H1140   1.113   .     S
C1005  O1356   1.411   .     S
C1005  H1139   1.113   .     S
C1006  H1143   1.113   .     S
C1006  H1145   1.109   .     S
C1006  O1357   1.411   .     S
C1006  H1142   1.113   .     S
C1007  H1148   1.109   .     S
C1007  H1146   1.113   .     S
C1007  O1358   1.411   .     S
C1007  H1147   1.113   .     S
C1008  H1150   1.113   .     S
C1008  O1359   1.411   .     S
C1008  H1149   1.113   .     S
C1008  H1151   1.109   .     S
C1009  H1153   1.113   .     S
C1009  O1360   1.411   .     S
C1009  H1152   1.113   .     S
C1009  H1154   1.109   .     S
C1010  C1017   1.400   .     A
C1010  C1044   1.461   .     S
C1010  C1521   1.400   1_455 S
C1011  H1157   1.113   .     S
C1011  O1361   1.411   .     S
C1011  H1158   1.109   .     S
C1011  H1156   1.113   .     S
C1012  H1159   1.113   .     S
C1012  H1161   1.109   .     S
C1012  H1160   1.113   .     S
C1012  O1362   1.411   .     S
C1013  H1162   1.113   .     S
C1013  H1164   1.109   .     S
C1013  O1363   1.411   .     S
C1013  H1163   1.113   .     S
C1014  H1167   1.113   .     S
C1014  H1165   1.113   .     S
C1014  O1364   1.411   .     S
C1014  H1168   1.109   .     S
C1015  O1267   1.411   .     S
C1015  H1170   1.113   .     S
C1015  H1169   1.113   .     S
C1015  H1171   1.109   .     S
C1016  C1041   1.461   .     S
C1016  C1072   1.400   .     A
C1016  C108    1.400   1_565 S
C1017  O1350   1.384   .     S
C1018  C1042   1.460   .     S
C1018  C1083   1.399   .     A
C1019  C1047   1.460   .     S
C1019  C174    1.399   1_565 S
C1020  C1048   1.461   .     S
C1020  C46     1.400   1_565 S
C1021  C1045   1.461   .     S
C1021  C1393   1.400   1_455 S
C1022  C1046   1.460   .     S
C1022  C1448   1.399   1_455 S
C1023  Cl1105  1.778   .     S
C1023  C1029   1.401   .     A
C1023  C1102   1.417   .     A
C1024  Cl1113  1.778   .     S
C1024  C1103   1.417   .     A
C1024  C1027   1.401   .     A
C1025  C1104   1.417   .     A
C1025  Cl1114  1.778   .     S
C1025  C1031   1.401   .     A
C1026  Cl1115  1.778   .     S
C1026  C1030   1.401   .     A
C1027  Cl1116  1.777   .     S
C1028  O1351   1.384   .     S
C1029  Cl1117  1.778   .     S
C1030  Cl1118  1.778   .     S
C1031  Cl1119  1.778   .     S
C1032  Cl1120  1.778   .     S
C1032  C1037   1.401   1_556 S
C1033  Cl1106  1.778   .     S
C1033  C1036   1.401   1_554 S
C1034  Cl1107  1.778   .     S
C1034  C1040   1.401   1_556 S
C1035  Cl1108  1.777   .     S
C1035  C1038   1.401   1_554 S
C1036  Cl1109  1.777   .     S
C1036  C1033   1.401   1_556 S
C1037  Cl1110  1.778   .     S
C1037  C1032   1.401   1_554 S
C1038  Cl1111  1.778   .     S
C1038  C1035   1.401   1_556 S
C1039  O1352   1.384   .     S
C1039  C98     1.399   1_565 S
C1040  Cl1112  1.778   .     S
C1040  C1034   1.401   1_554 S
C1041  O1310   1.278   .     A
C1041  O434    1.278   1_565 S
C1042  O1321   1.278   .     A
C1043  O1268   1.278   .     A
C1043  O1792   1.278   .     S
C1044  O1269   1.278   .     A
C1044  O1803   1.278   1_455 S
C1045  O1270   1.278   .     A
C1045  O1274   1.278   .     A
C1046  O1271   1.278   .     A
C1046  O1275   1.278   .     S
C1047  O352    1.278   1_565 S
C1047  O356    1.278   1_565 S
C1048  O353    1.278   1_565 S
C1048  O358    1.278   1_565 S
C1049  O1279   1.281   .     A
C1049  O1307   1.281   .     A
C1050  O1353   1.384   .     S
C1050  C1102   1.412   .     A
C1050  C1459   1.399   1_455 S
C1051  O1308   1.279   .     A
C1051  O1280   1.279   .     A
C1052  O1281   1.280   .     A
C1052  O1305   1.278   .     A
C1053  O1306   1.282   .     A
C1053  O1282   1.278   .     A
C1054  O1312   1.280   .     A
C1054  O1283   1.280   .     A
C1055  O1284   1.278   .     A
C1055  O1313   1.278   .     A
C1056  O1285   1.278   .     A
C1056  O1309   1.280   .     A
C1057  O1286   1.282   .     A
C1057  O1311   1.278   .     A
C1058  O1287   1.278   .     A
C1058  O1298   1.280   .     A
C1059  O1289   1.282   .     A
C1059  O1300   1.278   .     A
C1060  O1290   1.281   .     A
C1060  O1296   1.281   .     A
C1061  O1355   1.384   .     S
C1061  C1103   1.412   .     A
C1061  C1470   1.400   .     S
C1062  O1297   1.279   .     A
C1062  O1291   1.279   .     A
C1063  O1303   1.278   .     A
C1063  O1292   1.280   .     A
C1064  O1293   1.278   .     A
C1064  O1304   1.282   .     A
C1065  O1301   1.280   .     A
C1065  O1294   1.280   .     A
C1066  O1302   1.278   .     A
C1066  O1295   1.278   .     A
C1067  C1084   1.397   .     A
C1067  O1314   1.385   .     S
C1068  C1082   1.397   .     A
C1068  O1315   1.384   .     S
C1069  C1081   1.399   .     A
C1069  O1316   1.384   .     S
C1070  C1080   1.399   .     A
C1070  O1317   1.385   .     S
C1071  C1079   1.397   .     A
C1071  O1318   1.385   .     S
C1072  O1356   1.384   .     S
C1072  C1104   1.412   .     A
C1073  O1319   1.386   .     S
C1073  C1078   1.397   .     A
C1074  O1320   1.384   .     S
C1074  C1077   1.398   .     A
C1075  O1322   1.385   .     S
C1075  C1076   1.398   .     A
C1076  O1323   1.384   .     S
C1077  O1324   1.385   .     S
C1078  O1325   1.385   .     S
C1079  O1326   1.384   .     S
C1080  O1327   1.384   .     S
C1081  O1328   1.385   .     S
C1082  O1329   1.385   .     S
C1083  O1357   1.384   .     S
C1084  O1330   1.386   .     S
C1085  O1331   1.385   .     S
C1085  C1101   1.397   .     A
C1086  O1333   1.384   .     S
C1086  C1100   1.397   .     A
C1087  C1099   1.399   .     A
C1087  O1334   1.384   .     S
C1088  O1335   1.385   .     S
C1088  C1098   1.399   .     A
C1089  O1336   1.385   .     S
C1089  C1097   1.397   .     A
C1090  C1096   1.397   .     A
C1090  O1337   1.386   .     S
C1091  C1095   1.398   .     A
C1091  O1338   1.384   .     S
C1092  O1339   1.385   .     S
C1092  C1093   1.398   .     A
C1093  O1340   1.384   .     S
C1094  O1358   1.384   .     S
C1095  O1341   1.385   .     S
C1096  O1342   1.385   .     S
C1097  O1344   1.384   .     S
C1098  O1345   1.384   .     S
C1099  O1346   1.385   .     S
C1100  O1347   1.385   .     S
C1101  O1348   1.386   .     S
C1102  C1414   1.423   1_455 S
C1104  C37     1.423   1_565 S
O1265  Zn1376  1.946   .     S
O1265  Zn1368  1.947   .     S
O1265  Zn1365  1.947   .     S
O1266  Zn1367  1.951   .     S
O1266  C122    1.278   1_565 S
O1268  Zn1370  1.951   .     S
O1269  Zn1369  1.951   .     S
O1270  Zn1379  1.951   .     S
O1271  Zn1378  1.951   .     S
O1272  Zn1373  1.951   .     S
O1273  Zn1365  1.951   .     S
O1274  Zn1375  1.951   .     S
O1275  Zn1374  1.951   .     S
O1276  Zn1377  1.951   .     S
O1277  Zn1371  1.946   .     S
O1277  Zn1377  1.946   .     S
O1277  Zn1373  1.947   .     S
O1278  Zn1376  1.951   .     S
O1279  Zn1368  1.934   .     S
O1280  Zn1367  1.934   .     S
O1281  Zn1370  1.932   .     S
O1282  Zn1369  1.932   .     S
O1283  Zn1372  1.934   .     S
O1284  Zn1371  1.934   .     S
O1285  Zn1366  1.932   .     S
O1286  Zn1380  1.932   .     S
O1287  Zn1367  1.932   .     S
O1288  Zn1374  1.947   .     S
O1288  Zn1378  1.946   .     S
O1288  Zn1366  1.947   .     S
O1288  Zn1830  1.946   1_455 S
O1289  Zn1368  1.932   .     S
O1290  Zn1380  1.934   .     S
O1291  Zn1366  1.934   .     S
O1292  Zn1371  1.932   .     S
O1293  Zn1372  1.932   .     S
O1294  Zn1369  1.934   .     S
O1295  Zn1370  1.934   .     S
O1296  Zn1835  1.934   .     S
O1297  Zn1374  1.934   .     S
O1298  Zn457   1.932   1_565 S
O1299  Zn1375  1.947   .     S
O1299  Zn1369  1.946   .     S
O1299  Zn1379  1.946   .     S
O1299  Zn1840  1.947   1_455 S
O1300  Zn1376  1.932   .     S
O1301  Zn1379  1.934   .     S
O1302  Zn1838  1.934   .     S
O1303  Zn1373  1.932   .     S
O1304  Zn445   1.932   1_565 S
O1305  Zn1834  1.932   .     S
O1306  Zn1375  1.932   .     S
O1307  Zn1365  1.934   .     S
O1308  Zn453   1.934   1_565 S
O1309  Zn1378  1.932   .     S
O1310  Zn1372  1.951   .     S
O1311  Zn1839  1.932   .     S
O1312  Zn456   1.934   1_565 S
O1313  Zn1377  1.934   .     S
O1321  Zn1371  1.951   .     S
O1332  Zn1366  1.951   .     S
O1332  C1503   1.278   1_455 S
O1343  Zn1380  1.951   .     S
O1343  C1504   1.278   .     S
O1354  Zn1368  1.951   .     S
Zn1367 O357    1.947   1_565 S
Zn1370 O1748   1.946   .     S
Zn1372 O345    1.946   1_565 S
Zn1374 O1765   1.932   1_455 S
Zn1375 O1756   1.934   1_455 S
Zn1378 O1762   1.934   1_455 S
Zn1379 O1771   1.932   1_455 S
Zn1380 O1759   1.947   .     S
C1381  O1809   1.384   .     S
C1381  C1459   1.399   .     A
C1381  C1384   1.411   .     A
C1382  C1394   1.412   .     A
C1382  O1819   1.384   .     S
C1382  C1480   1.400   .     A
C1383  C1543   1.411   .     A
C1383  C1486   1.417   .     A
C1383  C1418   1.423   .     A
C1384  C1414   1.423   .     A
C1384  C1487   1.417   .     A
C1385  C1489   1.417   .     A
C1385  C1477   1.412   .     A
C1386  C1490   1.417   .     A
C1386  C1417   1.423   .     A
C1386  C1488   1.412   .     A
C1387  C1499   1.412   .     A
C1387  C1491   1.417   .     A
C1387  C498    1.423   1_565 S
C1388  C1415   1.412   .     A
C1388  C1492   1.417   .     A
C1388  C1419   1.423   .     A
C1389  C1426   1.412   .     A
C1389  C1493   1.417   .     A
C1390  C1421   1.423   .     A
C1390  C1494   1.417   .     A
C1390  C1437   1.412   .     A
C1391  C1495   1.417   .     A
C1391  C1448   1.411   .     A
C1391  C962    1.423   1_655 S
C1392  C1554   1.411   .     A
C1392  C1496   1.417   .     A
C1393  O1820   1.384   .     S
C1393  C1395   1.412   .     A
C1393  C1021   1.400   1_655 S
C1394  C1497   1.417   .     A
C1394  C1420   1.423   .     A
C1395  C1498   1.417   .     A
C1395  C961    1.423   1_655 S
C1396  C1500   1.417   .     A
C1396  C1404   1.412   .     A
C1396  C1422   1.423   .     A
C1397  C1544   1.410   .     A
C1397  C1546   1.406   .     A
C1397  C1516   1.450   .     S
C1398  C1517   1.454   .     S
C1398  C1545   1.410   .     A
C1398  C1542   1.407   .     A
C1399  C1509   1.457   .     S
C1399  C1541   1.409   .     A
C1399  C1548   1.409   .     A
C1400  C1540   1.405   .     A
C1400  C1547   1.405   .     A
C1400  C1511   1.450   .     S
C1401  C1539   1.406   .     A
C1401  C1512   1.450   .     S
C1401  C1550   1.410   .     A
C1402  C1513   1.454   .     S
C1402  C1538   1.410   .     A
C1402  C1549   1.407   .     A
C1403  C1514   1.457   .     S
C1403  C1537   1.410   .     A
C1403  C1552   1.410   .     A
C1404  O1821   1.384   .     S
C1404  C1482   1.399   .     A
C1405  C1551   1.405   .     A
C1405  C1515   1.450   .     S
C1405  C1536   1.405   .     A
C1406  C1535   1.410   .     A
C1406  C1525   1.457   .     S
C1406  C1555   1.410   .     A
C1407  C1534   1.405   .     A
C1407  C1526   1.450   .     S
C1407  C1553   1.405   .     A
C1408  C1533   1.410   .     A
C1408  C1557   1.406   .     A
C1408  C1518   1.450   .     S
C1409  C1531   1.407   .     A
C1409  C1556   1.410   .     A
C1409  C1519   1.454   .     S
C1410  C1530   1.409   .     A
C1410  C1559   1.409   .     A
C1410  C1520   1.457   .     S
C1411  C1529   1.405   .     A
C1411  C1558   1.405   .     A
C1411  C1522   1.450   .     S
C1412  C1561   1.410   .     A
C1412  C1528   1.406   .     A
C1412  C1523   1.450   .     S
C1413  C1524   1.454   .     S
C1413  C1527   1.410   .     A
C1413  C1560   1.407   .     A
C1414  C1416   1.412   .     A
C1414  C1102   1.423   1_655 S
C1415  O1822   1.384   .     S
C1415  C1479   1.399   .     A
C1416  C1563   1.423   .     A
C1416  C925    1.423   1_655 S
C1417  C1418   1.412   .     A
C1419  C472    1.423   1_565 S
C1419  C1420   1.412   1_556 S
C1420  C469    1.423   1_565 S
C1420  C1419   1.412   1_554 S
C1421  C1422   1.412   1_556 S
C1422  C1421   1.412   1_554 S
C1423  H1581   1.113   .     S
C1423  H1648   1.110   .     S
C1423  H1637   1.109   .     S
C1423  O1774   1.411   .     S
C1424  H1659   1.113   .     S
C1424  H1681   1.109   .     S
C1424  O1775   1.410   .     S
C1424  H1670   1.113   .     S
C1425  H1692   1.109   .     S
C1425  H1714   1.113   .     S
C1425  H1703   1.113   .     S
C1425  O1776   1.410   .     S
C1426  O1823   1.384   .     S
C1427  H1582   1.114   .     S
C1427  H1593   1.111   .     S
C1427  H1604   1.109   .     S
C1427  O1777   1.412   .     S
C1428  H1626   1.114   .     S
C1428  H1632   1.111   .     S
C1428  H1615   1.109   .     S
C1428  O1778   1.412   .     S
C1429  H1635   1.109   .     S
C1429  O1779   1.415   .     S
C1429  H1634   1.115   .     S
C1429  H1633   1.110   .     S
C1430  O1780   1.410   .     S
C1430  H1638   1.113   .     S
C1430  H1636   1.109   .     S
C1430  H1639   1.113   .     S
C1431  H1642   1.111   .     S
C1431  H1640   1.109   .     S
C1431  H1641   1.114   .     S
C1431  O1782   1.412   .     S
C1432  H1643   1.109   .     S
C1432  O1783   1.410   .     S
C1432  H1645   1.113   .     S
C1432  H1644   1.113   .     S
C1433  H1647   1.111   .     S
C1433  O1784   1.412   .     S
C1433  H1646   1.114   .     S
C1433  H1649   1.109   .     S
C1434  H1652   1.110   .     S
C1434  H1650   1.113   .     S
C1434  O1785   1.411   .     S
C1434  H1651   1.109   .     S
C1435  O1786   1.410   .     S
C1435  H1654   1.113   .     S
C1435  H1655   1.109   .     S
C1435  H1653   1.113   .     S
C1436  H1656   1.109   .     S
C1436  H1657   1.113   .     S
C1436  O1787   1.410   .     S
C1436  H1658   1.113   .     S
C1437  O1824   1.384   .     S
C1437  C1481   1.400   .     A
C1438  H1662   1.109   .     S
C1438  O1788   1.412   .     S
C1438  H1661   1.111   .     S
C1438  H1660   1.114   .     S
C1439  H1664   1.114   .     S
C1439  H1665   1.111   .     S
C1439  O1789   1.412   .     S
C1439  H1663   1.109   .     S
C1440  H1668   1.109   .     S
C1440  H1667   1.115   .     S
C1440  O1790   1.415   .     S
C1440  H1666   1.109   .     S
C1441  H1671   1.109   .     S
C1441  O1791   1.411   .     S
C1441  H1672   1.110   .     S
C1441  H1669   1.113   .     S
C1442  H1674   1.113   .     S
C1442  H1675   1.109   .     S
C1442  O1793   1.410   .     S
C1442  H1673   1.113   .     S
C1443  H1678   1.113   .     S
C1443  H1677   1.113   .     S
C1443  O1794   1.410   .     S
C1443  H1676   1.109   .     S
C1444  H1680   1.111   .     S
C1444  H1682   1.109   .     S
C1444  H1679   1.114   .     S
C1444  O1795   1.412   .     S
C1445  H1683   1.109   .     S
C1445  H1685   1.111   .     S
C1445  H1684   1.114   .     S
C1445  O1796   1.412   .     S
C1446  H1688   1.109   .     S
C1446  H1686   1.110   .     S
C1446  H1687   1.115   .     S
C1446  O1797   1.415   .     S
C1447  H1690   1.113   .     S
C1447  O1798   1.410   .     S
C1447  H1689   1.109   .     S
C1447  H1691   1.113   .     S
C1448  O1727   1.384   .     S
C1448  C1022   1.399   1_655 S
C1449  O1799   1.412   .     S
C1449  H1693   1.114   .     S
C1449  H1695   1.109   .     S
C1449  H1694   1.111   .     S
C1450  O1800   1.410   .     S
C1450  H1698   1.113   .     S
C1450  H1696   1.109   .     S
C1450  H1697   1.113   .     S
C1451  O1801   1.412   .     S
C1451  H1699   1.114   .     S
C1451  H1701   1.109   .     S
C1451  H1700   1.111   .     S
C1452  H1704   1.109   .     S
C1452  H1705   1.110   .     S
C1452  O1802   1.411   .     S
C1452  H1702   1.113   .     S
C1453  H1707   1.113   .     S
C1453  H1706   1.113   .     S
C1453  O1804   1.410   .     S
C1453  H1708   1.109   .     S
C1454  H1710   1.113   .     S
C1454  O1805   1.410   .     S
C1454  H1711   1.113   .     S
C1454  H1709   1.109   .     S
C1455  O1806   1.412   .     S
C1455  H1712   1.114   .     S
C1455  H1715   1.109   .     S
C1455  H1713   1.111   .     S
C1456  O1807   1.412   .     S
C1456  H1717   1.114   .     S
C1456  H1718   1.111   .     S
C1456  H1716   1.109   .     S
C1457  O1808   1.415   .     S
C1457  H1719   1.109   .     S
C1457  H1721   1.109   .     S
C1457  H1720   1.115   .     S
C1458  H1724   1.109   .     S
C1458  H1722   1.113   .     S
C1458  H1723   1.113   .     S
C1458  O1809   1.411   .     S
C1459  C1503   1.460   .     S
C1459  C1050   1.399   1_655 S
C1460  H1583   1.113   .     S
C1460  O1810   1.411   .     S
C1460  H1584   1.113   .     S
C1460  H1585   1.109   .     S
C1461  H1587   1.113   .     S
C1461  O1811   1.411   .     S
C1461  H1586   1.113   .     S
C1461  H1588   1.109   .     S
C1462  H1589   1.113   .     S
C1462  O1812   1.411   .     S
C1462  H1590   1.113   .     S
C1462  H1591   1.109   .     S
C1463  O1813   1.411   .     S
C1463  H1594   1.113   .     S
C1463  H1592   1.113   .     S
C1463  H1595   1.109   .     S
C1464  O1815   1.411   .     S
C1464  H1598   1.109   .     S
C1464  H1597   1.113   .     S
C1464  H1596   1.113   .     S
C1465  H1601   1.109   .     S
C1465  H1600   1.113   .     S
C1465  O1816   1.411   .     S
C1465  H1599   1.113   .     S
C1466  H1603   1.113   .     S
C1466  H1605   1.109   .     S
C1466  O1817   1.411   .     S
C1466  H1602   1.113   .     S
C1467  H1608   1.109   .     S
C1467  H1606   1.113   .     S
C1467  O1818   1.411   .     S
C1467  H1607   1.113   .     S
C1468  H1610   1.113   .     S
C1468  O1819   1.411   .     S
C1468  H1609   1.113   .     S
C1468  H1611   1.109   .     S
C1469  H1613   1.113   .     S
C1469  O1820   1.411   .     S
C1469  H1612   1.113   .     S
C1469  H1614   1.109   .     S
C1470  C1477   1.400   .     A
C1470  C1504   1.461   .     S
C1471  H1617   1.113   .     S
C1471  O1821   1.411   .     S
C1471  H1618   1.109   .     S
C1471  H1616   1.113   .     S
C1472  H1619   1.113   .     S
C1472  H1621   1.109   .     S
C1472  H1620   1.113   .     S
C1472  O1822   1.411   .     S
C1473  H1622   1.113   .     S
C1473  H1624   1.109   .     S
C1473  O1823   1.411   .     S
C1473  H1623   1.113   .     S
C1474  H1627   1.113   .     S
C1474  H1625   1.113   .     S
C1474  O1824   1.411   .     S
C1474  H1628   1.109   .     S
C1475  O1727   1.411   .     S
C1475  H1630   1.113   .     S
C1475  H1629   1.113   .     S
C1475  H1631   1.109   .     S
C1476  C1501   1.461   .     S
C1476  C1532   1.400   .     A
C1476  C568    1.400   1_565 S
C1477  O1810   1.384   .     S
C1478  C1502   1.460   .     S
C1478  C1543   1.399   .     A
C1479  C1507   1.460   .     S
C1479  C634    1.399   1_565 S
C1480  C1508   1.461   .     S
C1480  C506    1.400   1_565 S
C1481  C1505   1.461   .     S
C1482  C1506   1.460   .     S
C1483  Cl1565  1.778   .     S
C1483  C1489   1.401   .     A
C1483  C1562   1.417   .     A
C1484  Cl1573  1.778   .     S
C1484  C1563   1.417   .     A
C1484  C1487   1.401   .     A
C1485  C1564   1.417   .     A
C1485  Cl1574  1.778   .     S
C1485  C1491   1.401   .     A
C1486  Cl1575  1.778   .     S
C1486  C1490   1.401   .     A
C1487  Cl1576  1.777   .     S
C1488  O1811   1.384   .     S
C1489  Cl1577  1.778   .     S
C1490  Cl1578  1.778   .     S
C1491  Cl1579  1.778   .     S
C1492  Cl1580  1.778   .     S
C1492  C1497   1.401   1_556 S
C1493  Cl1566  1.778   .     S
C1493  C1496   1.401   1_554 S
C1494  Cl1567  1.778   .     S
C1494  C1500   1.401   1_556 S
C1495  Cl1568  1.777   .     S
C1495  C1498   1.401   1_554 S
C1496  Cl1569  1.777   .     S
C1496  C1493   1.401   1_556 S
C1497  Cl1570  1.778   .     S
C1497  C1492   1.401   1_554 S
C1498  Cl1571  1.778   .     S
C1498  C1495   1.401   1_556 S
C1499  O1812   1.384   .     S
C1499  C558    1.399   1_565 S
C1500  Cl1572  1.778   .     S
C1500  C1494   1.401   1_554 S
C1501  O1770   1.278   .     A
C1501  O894    1.278   1_565 S
C1502  O1781   1.278   .     A
C1503  O1728   1.278   .     A
C1503  O1332   1.278   1_655 S
C1504  O1729   1.278   .     A
C1505  O1730   1.278   .     A
C1505  O1734   1.278   .     A
C1506  O1731   1.278   .     A
C1506  O1735   1.278   .     S
C1507  O812    1.278   1_565 S
C1507  O816    1.278   1_565 S
C1508  O813    1.278   1_565 S
C1508  O818    1.278   1_565 S
C1509  O1739   1.281   .     A
C1509  O1767   1.281   .     A
C1510  O1813   1.384   .     S
C1510  C1562   1.412   .     A
C1511  O1768   1.279   .     A
C1511  O1740   1.279   .     A
C1512  O1741   1.280   .     A
C1512  O1765   1.278   .     A
C1513  O1766   1.282   .     A
C1513  O1742   1.278   .     A
C1514  O1772   1.280   .     A
C1514  O1743   1.280   .     A
C1515  O1744   1.278   .     A
C1515  O1773   1.278   .     A
C1516  O1745   1.278   .     A
C1516  O1769   1.280   .     A
C1517  O1746   1.282   .     A
C1517  O1771   1.278   .     A
C1518  O1747   1.278   .     A
C1518  O1758   1.280   .     A
C1519  O1749   1.282   .     A
C1519  O1760   1.278   .     A
C1520  O1750   1.281   .     A
C1520  O1756   1.281   .     A
C1521  O1815   1.384   .     S
C1521  C1563   1.412   .     A
C1521  C1010   1.400   1_655 S
C1522  O1757   1.279   .     A
C1522  O1751   1.279   .     A
C1523  O1763   1.278   .     A
C1523  O1752   1.280   .     A
C1524  O1753   1.278   .     A
C1524  O1764   1.282   .     A
C1525  O1761   1.280   .     A
C1525  O1754   1.280   .     A
C1526  O1762   1.278   .     A
C1526  O1755   1.278   .     A
C1527  C1544   1.397   .     A
C1527  O1774   1.385   .     S
C1528  C1542   1.397   .     A
C1528  O1775   1.384   .     S
C1529  C1541   1.399   .     A
C1529  O1776   1.384   .     S
C1530  C1540   1.399   .     A
C1530  O1777   1.385   .     S
C1531  C1539   1.397   .     A
C1531  O1778   1.385   .     S
C1532  O1816   1.384   .     S
C1532  C1564   1.412   .     A
C1533  O1779   1.386   .     S
C1533  C1538   1.397   .     A
C1534  O1780   1.384   .     S
C1534  C1537   1.398   .     A
C1535  O1782   1.385   .     S
C1535  C1536   1.398   .     A
C1536  O1783   1.384   .     S
C1537  O1784   1.385   .     S
C1538  O1785   1.385   .     S
C1539  O1786   1.384   .     S
C1540  O1787   1.384   .     S
C1541  O1788   1.385   .     S
C1542  O1789   1.385   .     S
C1543  O1817   1.384   .     S
C1544  O1790   1.386   .     S
C1545  O1791   1.385   .     S
C1545  C1561   1.397   .     A
C1546  O1793   1.384   .     S
C1546  C1560   1.397   .     A
C1547  C1559   1.399   .     A
C1547  O1794   1.384   .     S
C1548  O1795   1.385   .     S
C1548  C1558   1.399   .     A
C1549  O1796   1.385   .     S
C1549  C1557   1.397   .     A
C1550  C1556   1.397   .     A
C1550  O1797   1.386   .     S
C1551  C1555   1.398   .     A
C1551  O1798   1.384   .     S
C1552  O1799   1.385   .     S
C1552  C1553   1.398   .     A
C1553  O1800   1.384   .     S
C1554  O1818   1.384   .     S
C1555  O1801   1.385   .     S
C1556  O1802   1.385   .     S
C1557  O1804   1.384   .     S
C1558  O1805   1.384   .     S
C1559  O1806   1.385   .     S
C1560  O1807   1.385   .     S
C1561  O1808   1.386   .     S
C1564  C497    1.423   1_565 S
O1725  Zn1836  1.946   .     S
O1725  Zn1828  1.947   .     S
O1725  Zn1825  1.947   .     S
O1726  Zn1827  1.951   .     S
O1726  C582    1.278   1_565 S
O1728  Zn1830  1.951   .     S
O1729  Zn1829  1.951   .     S
O1730  Zn1839  1.951   .     S
O1731  Zn1838  1.951   .     S
O1732  Zn1833  1.951   .     S
O1733  Zn1825  1.951   .     S
O1734  Zn1835  1.951   .     S
O1735  Zn1834  1.951   .     S
O1736  Zn1837  1.951   .     S
O1737  Zn1831  1.946   .     S
O1737  Zn1837  1.946   .     S
O1737  Zn1833  1.947   .     S
O1738  Zn1836  1.951   .     S
O1739  Zn1828  1.934   .     S
O1740  Zn1827  1.934   .     S
O1741  Zn1830  1.932   .     S
O1742  Zn1829  1.932   .     S
O1743  Zn1832  1.934   .     S
O1744  Zn1831  1.934   .     S
O1745  Zn1826  1.932   .     S
O1746  Zn1840  1.932   .     S
O1747  Zn1827  1.932   .     S
O1748  Zn1834  1.947   .     S
O1748  Zn1838  1.946   .     S
O1748  Zn1826  1.947   .     S
O1749  Zn1828  1.932   .     S
O1750  Zn1840  1.934   .     S
O1751  Zn1826  1.934   .     S
O1752  Zn1831  1.932   .     S
O1753  Zn1832  1.932   .     S
O1754  Zn1829  1.934   .     S
O1755  Zn1830  1.934   .     S
O1756  Zn1375  1.934   1_655 S
O1757  Zn1834  1.934   .     S
O1758  Zn917   1.932   1_565 S
O1759  Zn1835  1.947   .     S
O1759  Zn1829  1.946   .     S
O1759  Zn1839  1.946   .     S
O1760  Zn1836  1.932   .     S
O1761  Zn1839  1.934   .     S
O1762  Zn1378  1.934   1_655 S
O1763  Zn1833  1.932   .     S
O1764  Zn905   1.932   1_565 S
O1765  Zn1374  1.932   1_655 S
O1766  Zn1835  1.932   .     S
O1767  Zn1825  1.934   .     S
O1768  Zn913   1.934   1_565 S
O1769  Zn1838  1.932   .     S
O1770  Zn1832  1.951   .     S
O1771  Zn1379  1.932   1_655 S
O1772  Zn916   1.934   1_565 S
O1773  Zn1837  1.934   .     S
O1781  Zn1831  1.951   .     S
O1792  Zn1826  1.951   .     S
O1803  Zn1840  1.951   .     S
O1803  C1044   1.278   1_655 S
O1814  Zn1828  1.951   .     S
Zn1827 O817    1.947   1_565 S
Zn1830 O1288   1.946   1_655 S
Zn1832 O805    1.946   1_565 S
Zn1840 O1299   1.947   1_655 S
