data_str_m1_o1_o5_pcu_sym.17
_audit_creation_date              2020-01-03
_audit_creation_method            'Materials Studio'
_symmetry_space_group_name_H-M    'P1'
_symmetry_Int_Tables_number       1
_symmetry_cell_setting            triclinic
loop_
_symmetry_equiv_pos_as_xyz
  x,y,z
_cell_length_a                    36.7299
_cell_length_b                    36.7299
_cell_length_c                    22.4200
_cell_angle_alpha                 90.0000
_cell_angle_beta                  90.0000
_cell_angle_gamma                 89.9930
loop_
_atom_site_label
_atom_site_type_symbol
_atom_site_fract_x
_atom_site_fract_y
_atom_site_fract_z
_atom_site_U_iso_or_equiv
_atom_site_adp_type
_atom_site_occupancy
C1     C     0.00000   0.25000   0.02667   0.00000  Uiso   1.00
C2     C     0.00000   0.25000   0.58994   0.00000  Uiso   1.00
C3     C     0.39730   0.34261   0.36034   0.00000  Uiso   1.00
C4     C     0.10475   0.44994   0.76243   0.00000  Uiso   1.00
C5     C     0.39525   0.05006   0.23757   0.00000  Uiso   1.00
C6     C     0.39731   0.34261   0.63966   0.00000  Uiso   1.00
C7     C     0.10269   0.15739   0.36034   0.00000  Uiso   1.00
C8     C     0.34261   0.39730   0.36034   0.00000  Uiso   1.00
C9     C     0.15739   0.10270   0.63966   0.00000  Uiso   1.00
C10    C     0.05006   0.39525   0.23757   0.00000  Uiso   1.00
C11    C     0.44994   0.10475   0.76243   0.00000  Uiso   1.00
C12    C     0.15739   0.10269   0.36034   0.00000  Uiso   1.00
C13    C     0.25000   0.00000   0.41006   0.00000  Uiso   1.00
C14    C     0.34261   0.39731   0.63966   0.00000  Uiso   1.00
C15    C     0.44994   0.10475   0.23757   0.00000  Uiso   1.00
C16    C     0.05006   0.39525   0.76243   0.00000  Uiso   1.00
C17    C     0.25000  -0.00000   0.58994   0.00000  Uiso   1.00
C18    C     0.25000  -0.00000   0.91006   0.00000  Uiso   1.00
C19    C     0.25000   0.00000   0.08994   0.00000  Uiso   1.00
C20    C     0.00000   0.25000   0.91006   0.00000  Uiso   1.00
C21    C     0.00000   0.25000   0.08994   0.00000  Uiso   1.00
C22    C     0.06998   0.18002   0.25000   0.00000  Uiso   1.00
C23    C     0.43002   0.31998   0.75000   0.00000  Uiso   1.00
C24    C     0.18002   0.43002   0.25000   0.00000  Uiso   1.00
C25    C     0.00000   0.25000   0.97333   0.00000  Uiso   1.00
C26    C     0.31998   0.06998   0.75000   0.00000  Uiso   1.00
C27    C     0.43002   0.31998   0.25000   0.00000  Uiso   1.00
C28    C     0.06998   0.18002   0.75000   0.00000  Uiso   1.00
C29    C     0.31998   0.06998   0.25000   0.00000  Uiso   1.00
C30    C     0.18002   0.43002   0.75000   0.00000  Uiso   1.00
C31    C     0.06998   0.31998   0.75000   0.00000  Uiso   1.00
C32    C     0.43002   0.18002   0.25000   0.00000  Uiso   1.00
C33    C     0.18002   0.06998   0.75000   0.00000  Uiso   1.00
C34    C     0.31998   0.43002   0.25000   0.00000  Uiso   1.00
C35    C     0.43002   0.18002   0.75000   0.00000  Uiso   1.00
C36    C     0.25000  -0.00000   0.02667   0.00000  Uiso   1.00
C37    C     0.06998   0.31998   0.25000   0.00000  Uiso   1.00
C38    C     0.31998   0.43002   0.75000   0.00000  Uiso   1.00
C39    C     0.18002   0.06998   0.25000   0.00000  Uiso   1.00
C40    C     0.13502   0.33801   0.25508   0.00000  Uiso   1.00
C41    C     0.36498   0.16199   0.74492   0.00000  Uiso   1.00
C42    C     0.36355   0.39052   0.19552   0.00000  Uiso   1.00
C43    C     0.13645   0.10948   0.80448   0.00000  Uiso   1.00
C44    C     0.36498   0.16199   0.25508   0.00000  Uiso   1.00
C45    C     0.13502   0.33801   0.74492   0.00000  Uiso   1.00
C46    C     0.13645   0.10948   0.19552   0.00000  Uiso   1.00
C47    C     0.25000  -0.00000   0.97333   0.00000  Uiso   1.00
C48    C     0.36355   0.39052   0.80448   0.00000  Uiso   1.00
C49    C     0.10948   0.13645   0.80448   0.00000  Uiso   1.00
C50    C     0.39052   0.36355   0.19552   0.00000  Uiso   1.00
C51    C     0.33801   0.13502   0.74492   0.00000  Uiso   1.00
C52    C     0.16199   0.36498   0.25508   0.00000  Uiso   1.00
C53    C     0.39052   0.36355   0.80448   0.00000  Uiso   1.00
C54    C     0.10948   0.13645   0.19552   0.00000  Uiso   1.00
C55    C     0.16199   0.36498   0.74492   0.00000  Uiso   1.00
C56    C     0.33801   0.13502   0.25508   0.00000  Uiso   1.00
C57    C     0.38502   0.08801   0.75508   0.00000  Uiso   1.00
C58    C     0.25000  -0.00000   0.52667   0.00000  Uiso   1.00
C59    C     0.11498   0.41199   0.24492   0.00000  Uiso   1.00
C60    C     0.11355   0.14052   0.69552   0.00000  Uiso   1.00
C61    C     0.38645   0.35948   0.30448   0.00000  Uiso   1.00
C62    C     0.11498   0.41199   0.75508   0.00000  Uiso   1.00
C63    C     0.38502   0.08801   0.24492   0.00000  Uiso   1.00
C64    C     0.38645   0.35948   0.69552   0.00000  Uiso   1.00
C65    C     0.11355   0.14052   0.30448   0.00000  Uiso   1.00
C66    C     0.35948   0.38645   0.30448   0.00000  Uiso   1.00
C67    C     0.14052   0.11355   0.69552   0.00000  Uiso   1.00
C68    C     0.08801   0.38502   0.24492   0.00000  Uiso   1.00
C69    C     0.25000  -0.00000   0.47333   0.00000  Uiso   1.00
C70    C     0.41199   0.11498   0.75508   0.00000  Uiso   1.00
C71    C     0.14052   0.11355   0.30448   0.00000  Uiso   1.00
C72    C     0.35948   0.38645   0.69552   0.00000  Uiso   1.00
C73    C     0.41199   0.11498   0.24492   0.00000  Uiso   1.00
C74    C     0.08801   0.38502   0.75508   0.00000  Uiso   1.00
C75    C     0.15192   0.40192   0.25000   0.00000  Uiso   1.00
C76    C     0.34808   0.09808   0.75000   0.00000  Uiso   1.00
C77    C     0.40192   0.34808   0.25000   0.00000  Uiso   1.00
C78    C     0.09808   0.15192   0.75000   0.00000  Uiso   1.00
C79    C     0.34808   0.09808   0.25000   0.00000  Uiso   1.00
C80    C     0.00000   0.25000   0.52667   0.00000  Uiso   1.00
C81    C     0.15192   0.40192   0.75000   0.00000  Uiso   1.00
C82    C     0.09808   0.15192   0.25000   0.00000  Uiso   1.00
C83    C     0.40192   0.34808   0.75000   0.00000  Uiso   1.00
C84    C     0.15192   0.09808   0.75000   0.00000  Uiso   1.00
C85    C     0.34808   0.40192   0.25000   0.00000  Uiso   1.00
C86    C     0.40192   0.15191   0.75000   0.00000  Uiso   1.00
C87    C     0.09808   0.34808   0.25000   0.00000  Uiso   1.00
C88    C     0.34808   0.40192   0.75000   0.00000  Uiso   1.00
C89    C     0.15192   0.09808   0.25000   0.00000  Uiso   1.00
C90    C     0.09808   0.34808   0.75000   0.00000  Uiso   1.00
C91    C     0.00000   0.25000   0.47333   0.00000  Uiso   1.00
C92    C     0.40192   0.15191   0.25000   0.00000  Uiso   1.00
C93    C     0.14525   0.30006   0.26243   0.00000  Uiso   1.00
C94    C     0.35475   0.19994   0.73757   0.00000  Uiso   1.00
C95    C     0.35270   0.40739   0.13966   0.00000  Uiso   1.00
C96    C     0.14730   0.09261   0.86034   0.00000  Uiso   1.00
C97    C     0.35475   0.19994   0.26243   0.00000  Uiso   1.00
C98    C     0.14525   0.30006   0.73757   0.00000  Uiso   1.00
C99    C     0.14731   0.09261   0.13966   0.00000  Uiso   1.00
C100   C     0.35269   0.40739   0.86034   0.00000  Uiso   1.00
C101   C     0.09261   0.14730   0.86034   0.00000  Uiso   1.00
C102   C     0.00000   0.25000   0.41006   0.00000  Uiso   1.00
C103   C     0.40739   0.35270   0.13966   0.00000  Uiso   1.00
C104   C     0.30006   0.14525   0.73757   0.00000  Uiso   1.00
C105   C     0.19994   0.35475   0.26243   0.00000  Uiso   1.00
C106   C     0.40739   0.35269   0.86034   0.00000  Uiso   1.00
C107   C     0.09261   0.14731   0.13966   0.00000  Uiso   1.00
C108   C     0.19994   0.35475   0.73757   0.00000  Uiso   1.00
C109   C     0.30006   0.14525   0.26243   0.00000  Uiso   1.00
C110   C     0.39525   0.05006   0.76243   0.00000  Uiso   1.00
C111   C     0.10475   0.44994   0.23757   0.00000  Uiso   1.00
C112   C     0.10270   0.15739   0.63966   0.00000  Uiso   1.00
N113   N     0.15338   0.26982   0.26831   0.00000  Uiso   1.00
N114   N     0.42084   0.34406   0.09516   0.00000  Uiso   1.00
N115   N     0.26982   0.15338   0.73170   0.00000  Uiso   1.00
N116   N     0.23018   0.34662   0.26831   0.00000  Uiso   1.00
N117   N     0.42083   0.34406   0.90484   0.00000  Uiso   1.00
N118   N     0.07917   0.15595   0.09516   0.00000  Uiso   1.00
N119   N     0.23018   0.34662   0.73169   0.00000  Uiso   1.00
N120   N     0.26982   0.15338   0.26831   0.00000  Uiso   1.00
N121   N     0.40338   0.01982   0.76831   0.00000  Uiso   1.00
N122   N     0.09662   0.48018   0.23169   0.00000  Uiso   1.00
N123   N     0.09406   0.17084   0.59516   0.00000  Uiso   1.00
N124   N     0.34662   0.23018   0.73169   0.00000  Uiso   1.00
N125   N     0.40594   0.32916   0.40484   0.00000  Uiso   1.00
N126   N     0.09662   0.48018   0.76831   0.00000  Uiso   1.00
N127   N     0.40338   0.01982   0.23169   0.00000  Uiso   1.00
N128   N     0.40594   0.32917   0.59516   0.00000  Uiso   1.00
N129   N     0.09405   0.17083   0.40484   0.00000  Uiso   1.00
N130   N     0.32916   0.40594   0.40484   0.00000  Uiso   1.00
N131   N     0.17084   0.09406   0.59516   0.00000  Uiso   1.00
N132   N     0.01982   0.40338   0.23169   0.00000  Uiso   1.00
N133   N     0.48018   0.09662   0.76831   0.00000  Uiso   1.00
N134   N     0.17083   0.09405   0.40484   0.00000  Uiso   1.00
N135   N     0.34406   0.42084   0.09516   0.00000  Uiso   1.00
N136   N     0.32917   0.40594   0.59516   0.00000  Uiso   1.00
N137   N     0.48018   0.09662   0.23169   0.00000  Uiso   1.00
N138   N     0.01982   0.40338   0.76831   0.00000  Uiso   1.00
N139   N     0.15594   0.07917   0.90484   0.00000  Uiso   1.00
N140   N     0.34662   0.23018   0.26831   0.00000  Uiso   1.00
N141   N     0.15338   0.26982   0.73170   0.00000  Uiso   1.00
N142   N     0.15595   0.07917   0.09516   0.00000  Uiso   1.00
N143   N     0.34406   0.42083   0.90484   0.00000  Uiso   1.00
N144   N     0.07917   0.15594   0.90484   0.00000  Uiso   1.00
O145   O     0.00000   0.25000   0.25000   0.00000  Uiso   1.00
O146   O     0.00000   0.28035   0.61781   0.00000  Uiso   1.00
O147   O     0.21965  -0.00000   0.38219   0.00000  Uiso   1.00
O148   O     0.28036  -0.00000   0.61781   0.00000  Uiso   1.00
O149   O     0.25000   0.03035   0.88219   0.00000  Uiso   1.00
O150   O     0.25000   0.46965   0.11781   0.00000  Uiso   1.00
O151   O     0.03036   0.25000   0.88219   0.00000  Uiso   1.00
O152   O     0.46965   0.25000   0.11781   0.00000  Uiso   1.00
O153   O     0.25000   0.46965   0.88219   0.00000  Uiso   1.00
O154   O     0.25000   0.03035   0.11781   0.00000  Uiso   1.00
O155   O     0.46965   0.25000   0.88219   0.00000  Uiso   1.00
O156   O     0.00000   0.25000   0.75000   0.00000  Uiso   1.00
O157   O     0.03036   0.25000   0.11781   0.00000  Uiso   1.00
O158   O     0.04268   0.17693   0.28474   0.00000  Uiso   1.00
O159   O     0.45733   0.32307   0.71526   0.00000  Uiso   1.00
O160   O     0.17693   0.45733   0.28474   0.00000  Uiso   1.00
O161   O     0.32308   0.04267   0.71526   0.00000  Uiso   1.00
O162   O     0.45733   0.32307   0.28474   0.00000  Uiso   1.00
O163   O     0.04268   0.17693   0.71526   0.00000  Uiso   1.00
O164   O     0.32308   0.04267   0.28474   0.00000  Uiso   1.00
O165   O     0.17693   0.45733   0.71526   0.00000  Uiso   1.00
O166   O     0.04268   0.32308   0.71526   0.00000  Uiso   1.00
O167   O     0.25000  -0.00000   0.25000   0.00000  Uiso   1.00
O168   O     0.45733   0.17692   0.28474   0.00000  Uiso   1.00
O169   O     0.17693   0.04267   0.71526   0.00000  Uiso   1.00
O170   O     0.32308   0.45733   0.28474   0.00000  Uiso   1.00
O171   O     0.45733   0.17692   0.71526   0.00000  Uiso   1.00
O172   O     0.04268   0.32308   0.28474   0.00000  Uiso   1.00
O173   O     0.32308   0.45733   0.71526   0.00000  Uiso   1.00
O174   O     0.17693   0.04267   0.28474   0.00000  Uiso   1.00
O175   O     0.29268   0.42693   0.78474   0.00000  Uiso   1.00
O176   O     0.20733   0.07307   0.21526   0.00000  Uiso   1.00
O177   O     0.42693   0.20732   0.78474   0.00000  Uiso   1.00
O178   O     0.25000  -0.00000   0.75000   0.00000  Uiso   1.00
O179   O     0.07308   0.29268   0.21526   0.00000  Uiso   1.00
O180   O     0.20733   0.07307   0.78474   0.00000  Uiso   1.00
O181   O     0.29268   0.42693   0.21526   0.00000  Uiso   1.00
O182   O     0.07308   0.29268   0.78474   0.00000  Uiso   1.00
O183   O     0.42693   0.20732   0.21526   0.00000  Uiso   1.00
O184   O     0.29268   0.07307   0.21526   0.00000  Uiso   1.00
O185   O     0.20733   0.42693   0.78474   0.00000  Uiso   1.00
O186   O     0.42693   0.29267   0.21526   0.00000  Uiso   1.00
O187   O     0.07308   0.20733   0.78474   0.00000  Uiso   1.00
O188   O     0.20733   0.42693   0.21526   0.00000  Uiso   1.00
O189   O     0.00000   0.28035   0.38219   0.00000  Uiso   1.00
O190   O     0.29268   0.07307   0.78474   0.00000  Uiso   1.00
O191   O     0.07308   0.20733   0.21526   0.00000  Uiso   1.00
O192   O     0.42693   0.29267   0.78474   0.00000  Uiso   1.00
O193   O     0.00000   0.21965   0.61781   0.00000  Uiso   1.00
O194   O     0.28036  -0.00000   0.38219   0.00000  Uiso   1.00
O195   O     0.21965  -0.00000   0.61781   0.00000  Uiso   1.00
O196   O     0.00000   0.21964   0.38219   0.00000  Uiso   1.00
Zn197  Zn    0.04333   0.25000   0.20067   0.00000  Uiso   1.00
Zn198  Zn    0.20667  -0.00000   0.29933   0.00000  Uiso   1.00
Zn199  Zn    0.00000   0.20667   0.70067   0.00000  Uiso   1.00
Zn200  Zn    0.00000   0.29333   0.29933   0.00000  Uiso   1.00
Zn201  Zn    0.20667  -0.00000   0.70067   0.00000  Uiso   1.00
Zn202  Zn    0.29333  -0.00000   0.29933   0.00000  Uiso   1.00
Zn203  Zn    0.00000   0.29333   0.70067   0.00000  Uiso   1.00
Zn204  Zn    0.00000   0.20667   0.29933   0.00000  Uiso   1.00
Zn205  Zn    0.45667   0.25000   0.79933   0.00000  Uiso   1.00
Zn206  Zn    0.25000   0.45667   0.20067   0.00000  Uiso   1.00
Zn207  Zn    0.25000   0.04333   0.79933   0.00000  Uiso   1.00
Zn208  Zn    0.45667   0.25000   0.20067   0.00000  Uiso   1.00
Zn209  Zn    0.04333   0.25000   0.79933   0.00000  Uiso   1.00
Zn210  Zn    0.25000   0.04333   0.20067   0.00000  Uiso   1.00
Zn211  Zn    0.25000   0.45667   0.79933   0.00000  Uiso   1.00
Zn212  Zn    0.29333  -0.00000   0.70067   0.00000  Uiso   1.00
C213   C     0.50000   0.25000   0.02667   0.00000  Uiso   1.00
C214   C     0.50000   0.25000   0.58994   0.00000  Uiso   1.00
C215   C     0.89730   0.34261   0.36034   0.00000  Uiso   1.00
C216   C     0.60475   0.44994   0.76243   0.00000  Uiso   1.00
C217   C     0.89525   0.05006   0.23757   0.00000  Uiso   1.00
C218   C     0.89731   0.34261   0.63966   0.00000  Uiso   1.00
C219   C     0.60269   0.15739   0.36034   0.00000  Uiso   1.00
C220   C     0.84261   0.39730   0.36034   0.00000  Uiso   1.00
C221   C     0.65739   0.10270   0.63966   0.00000  Uiso   1.00
C222   C     0.55006   0.39525   0.23757   0.00000  Uiso   1.00
C223   C     0.94994   0.10475   0.76243   0.00000  Uiso   1.00
C224   C     0.65739   0.10269   0.36034   0.00000  Uiso   1.00
C225   C     0.75000   0.00000   0.41006   0.00000  Uiso   1.00
C226   C     0.84261   0.39731   0.63966   0.00000  Uiso   1.00
C227   C     0.94994   0.10475   0.23757   0.00000  Uiso   1.00
C228   C     0.55006   0.39525   0.76243   0.00000  Uiso   1.00
C229   C     0.75000  -0.00000   0.58994   0.00000  Uiso   1.00
C230   C     0.75000  -0.00000   0.91006   0.00000  Uiso   1.00
C231   C     0.75000   0.00000   0.08994   0.00000  Uiso   1.00
C232   C     0.50000   0.25000   0.91006   0.00000  Uiso   1.00
C233   C     0.50000   0.25000   0.08994   0.00000  Uiso   1.00
C234   C     0.56998   0.18002   0.25000   0.00000  Uiso   1.00
C235   C     0.93002   0.31998   0.75000   0.00000  Uiso   1.00
C236   C     0.68002   0.43002   0.25000   0.00000  Uiso   1.00
C237   C     0.50000   0.25000   0.97333   0.00000  Uiso   1.00
C238   C     0.81998   0.06998   0.75000   0.00000  Uiso   1.00
C239   C     0.93002   0.31998   0.25000   0.00000  Uiso   1.00
C240   C     0.56998   0.18002   0.75000   0.00000  Uiso   1.00
C241   C     0.81998   0.06998   0.25000   0.00000  Uiso   1.00
C242   C     0.68002   0.43002   0.75000   0.00000  Uiso   1.00
C243   C     0.56998   0.31998   0.75000   0.00000  Uiso   1.00
C244   C     0.93002   0.18002   0.25000   0.00000  Uiso   1.00
C245   C     0.68002   0.06998   0.75000   0.00000  Uiso   1.00
C246   C     0.81998   0.43002   0.25000   0.00000  Uiso   1.00
C247   C     0.93002   0.18002   0.75000   0.00000  Uiso   1.00
C248   C     0.75000  -0.00000   0.02667   0.00000  Uiso   1.00
C249   C     0.56998   0.31998   0.25000   0.00000  Uiso   1.00
C250   C     0.81998   0.43002   0.75000   0.00000  Uiso   1.00
C251   C     0.68002   0.06998   0.25000   0.00000  Uiso   1.00
C252   C     0.63502   0.33801   0.25508   0.00000  Uiso   1.00
C253   C     0.86498   0.16199   0.74492   0.00000  Uiso   1.00
C254   C     0.86355   0.39052   0.19552   0.00000  Uiso   1.00
C255   C     0.63645   0.10948   0.80448   0.00000  Uiso   1.00
C256   C     0.86498   0.16199   0.25508   0.00000  Uiso   1.00
C257   C     0.63502   0.33801   0.74492   0.00000  Uiso   1.00
C258   C     0.63645   0.10948   0.19552   0.00000  Uiso   1.00
C259   C     0.75000  -0.00000   0.97333   0.00000  Uiso   1.00
C260   C     0.86355   0.39052   0.80448   0.00000  Uiso   1.00
C261   C     0.60948   0.13645   0.80448   0.00000  Uiso   1.00
C262   C     0.89052   0.36355   0.19552   0.00000  Uiso   1.00
C263   C     0.83801   0.13502   0.74492   0.00000  Uiso   1.00
C264   C     0.66199   0.36498   0.25508   0.00000  Uiso   1.00
C265   C     0.89052   0.36355   0.80448   0.00000  Uiso   1.00
C266   C     0.60948   0.13645   0.19552   0.00000  Uiso   1.00
C267   C     0.66199   0.36498   0.74492   0.00000  Uiso   1.00
C268   C     0.83801   0.13502   0.25508   0.00000  Uiso   1.00
C269   C     0.88502   0.08801   0.75508   0.00000  Uiso   1.00
C270   C     0.75000  -0.00000   0.52667   0.00000  Uiso   1.00
C271   C     0.61498   0.41199   0.24492   0.00000  Uiso   1.00
C272   C     0.61355   0.14052   0.69552   0.00000  Uiso   1.00
C273   C     0.88645   0.35948   0.30448   0.00000  Uiso   1.00
C274   C     0.61498   0.41199   0.75508   0.00000  Uiso   1.00
C275   C     0.88502   0.08801   0.24492   0.00000  Uiso   1.00
C276   C     0.88645   0.35948   0.69552   0.00000  Uiso   1.00
C277   C     0.61355   0.14052   0.30448   0.00000  Uiso   1.00
C278   C     0.85948   0.38645   0.30448   0.00000  Uiso   1.00
C279   C     0.64052   0.11355   0.69552   0.00000  Uiso   1.00
C280   C     0.58801   0.38502   0.24492   0.00000  Uiso   1.00
C281   C     0.75000  -0.00000   0.47333   0.00000  Uiso   1.00
C282   C     0.91199   0.11498   0.75508   0.00000  Uiso   1.00
C283   C     0.64052   0.11355   0.30448   0.00000  Uiso   1.00
C284   C     0.85948   0.38645   0.69552   0.00000  Uiso   1.00
C285   C     0.91199   0.11498   0.24492   0.00000  Uiso   1.00
C286   C     0.58801   0.38502   0.75508   0.00000  Uiso   1.00
C287   C     0.65192   0.40192   0.25000   0.00000  Uiso   1.00
C288   C     0.84808   0.09808   0.75000   0.00000  Uiso   1.00
C289   C     0.90192   0.34808   0.25000   0.00000  Uiso   1.00
C290   C     0.59808   0.15192   0.75000   0.00000  Uiso   1.00
C291   C     0.84808   0.09808   0.25000   0.00000  Uiso   1.00
C292   C     0.50000   0.25000   0.52667   0.00000  Uiso   1.00
C293   C     0.65192   0.40192   0.75000   0.00000  Uiso   1.00
C294   C     0.59808   0.15192   0.25000   0.00000  Uiso   1.00
C295   C     0.90192   0.34808   0.75000   0.00000  Uiso   1.00
C296   C     0.65192   0.09808   0.75000   0.00000  Uiso   1.00
C297   C     0.84808   0.40192   0.25000   0.00000  Uiso   1.00
C298   C     0.90192   0.15191   0.75000   0.00000  Uiso   1.00
C299   C     0.59808   0.34808   0.25000   0.00000  Uiso   1.00
C300   C     0.84808   0.40192   0.75000   0.00000  Uiso   1.00
C301   C     0.65192   0.09808   0.25000   0.00000  Uiso   1.00
C302   C     0.59808   0.34808   0.75000   0.00000  Uiso   1.00
C303   C     0.50000   0.25000   0.47333   0.00000  Uiso   1.00
C304   C     0.90192   0.15191   0.25000   0.00000  Uiso   1.00
C305   C     0.64525   0.30006   0.26243   0.00000  Uiso   1.00
C306   C     0.85475   0.19994   0.73757   0.00000  Uiso   1.00
C307   C     0.85270   0.40739   0.13966   0.00000  Uiso   1.00
C308   C     0.64730   0.09261   0.86034   0.00000  Uiso   1.00
C309   C     0.85475   0.19994   0.26243   0.00000  Uiso   1.00
C310   C     0.64525   0.30006   0.73757   0.00000  Uiso   1.00
C311   C     0.64731   0.09261   0.13966   0.00000  Uiso   1.00
C312   C     0.85269   0.40739   0.86034   0.00000  Uiso   1.00
C313   C     0.59261   0.14730   0.86034   0.00000  Uiso   1.00
C314   C     0.50000   0.25000   0.41006   0.00000  Uiso   1.00
C315   C     0.90739   0.35270   0.13966   0.00000  Uiso   1.00
C316   C     0.80006   0.14525   0.73757   0.00000  Uiso   1.00
C317   C     0.69994   0.35475   0.26243   0.00000  Uiso   1.00
C318   C     0.90739   0.35269   0.86034   0.00000  Uiso   1.00
C319   C     0.59261   0.14731   0.13966   0.00000  Uiso   1.00
C320   C     0.69994   0.35475   0.73757   0.00000  Uiso   1.00
C321   C     0.80006   0.14525   0.26243   0.00000  Uiso   1.00
C322   C     0.89525   0.05006   0.76243   0.00000  Uiso   1.00
C323   C     0.60475   0.44994   0.23757   0.00000  Uiso   1.00
C324   C     0.60270   0.15739   0.63966   0.00000  Uiso   1.00
N325   N     0.65338   0.26982   0.26831   0.00000  Uiso   1.00
N326   N     0.92084   0.34406   0.09516   0.00000  Uiso   1.00
N327   N     0.76982   0.15338   0.73170   0.00000  Uiso   1.00
N328   N     0.73018   0.34662   0.26831   0.00000  Uiso   1.00
N329   N     0.92083   0.34406   0.90484   0.00000  Uiso   1.00
N330   N     0.57917   0.15595   0.09516   0.00000  Uiso   1.00
N331   N     0.73018   0.34662   0.73169   0.00000  Uiso   1.00
N332   N     0.76982   0.15338   0.26831   0.00000  Uiso   1.00
N333   N     0.90338   0.01982   0.76831   0.00000  Uiso   1.00
N334   N     0.59662   0.48018   0.23169   0.00000  Uiso   1.00
N335   N     0.59406   0.17084   0.59516   0.00000  Uiso   1.00
N336   N     0.84662   0.23018   0.73169   0.00000  Uiso   1.00
N337   N     0.90594   0.32916   0.40484   0.00000  Uiso   1.00
N338   N     0.59662   0.48018   0.76831   0.00000  Uiso   1.00
N339   N     0.90338   0.01982   0.23169   0.00000  Uiso   1.00
N340   N     0.90594   0.32917   0.59516   0.00000  Uiso   1.00
N341   N     0.59405   0.17083   0.40484   0.00000  Uiso   1.00
N342   N     0.82916   0.40594   0.40484   0.00000  Uiso   1.00
N343   N     0.67084   0.09406   0.59516   0.00000  Uiso   1.00
N344   N     0.51982   0.40338   0.23169   0.00000  Uiso   1.00
N345   N     0.98018   0.09662   0.76831   0.00000  Uiso   1.00
N346   N     0.67083   0.09405   0.40484   0.00000  Uiso   1.00
N347   N     0.84406   0.42084   0.09516   0.00000  Uiso   1.00
N348   N     0.82917   0.40594   0.59516   0.00000  Uiso   1.00
N349   N     0.98018   0.09662   0.23169   0.00000  Uiso   1.00
N350   N     0.51982   0.40338   0.76831   0.00000  Uiso   1.00
N351   N     0.65594   0.07917   0.90484   0.00000  Uiso   1.00
N352   N     0.84662   0.23018   0.26831   0.00000  Uiso   1.00
N353   N     0.65338   0.26982   0.73170   0.00000  Uiso   1.00
N354   N     0.65595   0.07917   0.09516   0.00000  Uiso   1.00
N355   N     0.84406   0.42083   0.90484   0.00000  Uiso   1.00
N356   N     0.57917   0.15594   0.90484   0.00000  Uiso   1.00
O357   O     0.50000   0.25000   0.25000   0.00000  Uiso   1.00
O358   O     0.50000   0.28035   0.61781   0.00000  Uiso   1.00
O359   O     0.71965  -0.00000   0.38219   0.00000  Uiso   1.00
O360   O     0.78036  -0.00000   0.61781   0.00000  Uiso   1.00
O361   O     0.75000   0.03035   0.88219   0.00000  Uiso   1.00
O362   O     0.75000   0.46965   0.11781   0.00000  Uiso   1.00
O363   O     0.53036   0.25000   0.88219   0.00000  Uiso   1.00
O364   O     0.96965   0.25000   0.11781   0.00000  Uiso   1.00
O365   O     0.75000   0.46965   0.88219   0.00000  Uiso   1.00
O366   O     0.75000   0.03035   0.11781   0.00000  Uiso   1.00
O367   O     0.96965   0.25000   0.88219   0.00000  Uiso   1.00
O368   O     0.50000   0.25000   0.75000   0.00000  Uiso   1.00
O369   O     0.53036   0.25000   0.11781   0.00000  Uiso   1.00
O370   O     0.54268   0.17693   0.28474   0.00000  Uiso   1.00
O371   O     0.95733   0.32307   0.71526   0.00000  Uiso   1.00
O372   O     0.67693   0.45733   0.28474   0.00000  Uiso   1.00
O373   O     0.82308   0.04267   0.71526   0.00000  Uiso   1.00
O374   O     0.95733   0.32307   0.28474   0.00000  Uiso   1.00
O375   O     0.54268   0.17693   0.71526   0.00000  Uiso   1.00
O376   O     0.82308   0.04267   0.28474   0.00000  Uiso   1.00
O377   O     0.67693   0.45733   0.71526   0.00000  Uiso   1.00
O378   O     0.54268   0.32308   0.71526   0.00000  Uiso   1.00
O379   O     0.75000  -0.00000   0.25000   0.00000  Uiso   1.00
O380   O     0.95733   0.17692   0.28474   0.00000  Uiso   1.00
O381   O     0.67693   0.04267   0.71526   0.00000  Uiso   1.00
O382   O     0.82308   0.45733   0.28474   0.00000  Uiso   1.00
O383   O     0.95733   0.17692   0.71526   0.00000  Uiso   1.00
O384   O     0.54268   0.32308   0.28474   0.00000  Uiso   1.00
O385   O     0.82308   0.45733   0.71526   0.00000  Uiso   1.00
O386   O     0.67693   0.04267   0.28474   0.00000  Uiso   1.00
O387   O     0.79268   0.42693   0.78474   0.00000  Uiso   1.00
O388   O     0.70733   0.07307   0.21526   0.00000  Uiso   1.00
O389   O     0.92693   0.20732   0.78474   0.00000  Uiso   1.00
O390   O     0.75000  -0.00000   0.75000   0.00000  Uiso   1.00
O391   O     0.57308   0.29268   0.21526   0.00000  Uiso   1.00
O392   O     0.70733   0.07307   0.78474   0.00000  Uiso   1.00
O393   O     0.79268   0.42693   0.21526   0.00000  Uiso   1.00
O394   O     0.57308   0.29268   0.78474   0.00000  Uiso   1.00
O395   O     0.92693   0.20732   0.21526   0.00000  Uiso   1.00
O396   O     0.79268   0.07307   0.21526   0.00000  Uiso   1.00
O397   O     0.70733   0.42693   0.78474   0.00000  Uiso   1.00
O398   O     0.92693   0.29267   0.21526   0.00000  Uiso   1.00
O399   O     0.57308   0.20733   0.78474   0.00000  Uiso   1.00
O400   O     0.70733   0.42693   0.21526   0.00000  Uiso   1.00
O401   O     0.50000   0.28035   0.38219   0.00000  Uiso   1.00
O402   O     0.79268   0.07307   0.78474   0.00000  Uiso   1.00
O403   O     0.57308   0.20733   0.21526   0.00000  Uiso   1.00
O404   O     0.92693   0.29267   0.78474   0.00000  Uiso   1.00
O405   O     0.50000   0.21965   0.61781   0.00000  Uiso   1.00
O406   O     0.78036  -0.00000   0.38219   0.00000  Uiso   1.00
O407   O     0.71965  -0.00000   0.61781   0.00000  Uiso   1.00
O408   O     0.50000   0.21964   0.38219   0.00000  Uiso   1.00
Zn409  Zn    0.54333   0.25000   0.20067   0.00000  Uiso   1.00
Zn410  Zn    0.70667  -0.00000   0.29933   0.00000  Uiso   1.00
Zn411  Zn    0.50000   0.20667   0.70067   0.00000  Uiso   1.00
Zn412  Zn    0.50000   0.29333   0.29933   0.00000  Uiso   1.00
Zn413  Zn    0.70667  -0.00000   0.70067   0.00000  Uiso   1.00
Zn414  Zn    0.79333  -0.00000   0.29933   0.00000  Uiso   1.00
Zn415  Zn    0.50000   0.29333   0.70067   0.00000  Uiso   1.00
Zn416  Zn    0.50000   0.20667   0.29933   0.00000  Uiso   1.00
Zn417  Zn    0.95667   0.25000   0.79933   0.00000  Uiso   1.00
Zn418  Zn    0.75000   0.45667   0.20067   0.00000  Uiso   1.00
Zn419  Zn    0.75000   0.04333   0.79933   0.00000  Uiso   1.00
Zn420  Zn    0.95667   0.25000   0.20067   0.00000  Uiso   1.00
Zn421  Zn    0.54333   0.25000   0.79933   0.00000  Uiso   1.00
Zn422  Zn    0.75000   0.04333   0.20067   0.00000  Uiso   1.00
Zn423  Zn    0.75000   0.45667   0.79933   0.00000  Uiso   1.00
Zn424  Zn    0.79333  -0.00000   0.70067   0.00000  Uiso   1.00
C425   C     0.00000   0.75000   0.02667   0.00000  Uiso   1.00
C426   C     0.00000   0.75000   0.58994   0.00000  Uiso   1.00
C427   C     0.39730   0.84261   0.36034   0.00000  Uiso   1.00
C428   C     0.10475   0.94994   0.76243   0.00000  Uiso   1.00
C429   C     0.39525   0.55006   0.23757   0.00000  Uiso   1.00
C430   C     0.39731   0.84261   0.63966   0.00000  Uiso   1.00
C431   C     0.10269   0.65739   0.36034   0.00000  Uiso   1.00
C432   C     0.34261   0.89730   0.36034   0.00000  Uiso   1.00
C433   C     0.15739   0.60270   0.63966   0.00000  Uiso   1.00
C434   C     0.05006   0.89525   0.23757   0.00000  Uiso   1.00
C435   C     0.44994   0.60475   0.76243   0.00000  Uiso   1.00
C436   C     0.15739   0.60269   0.36034   0.00000  Uiso   1.00
C437   C     0.25000   0.50000   0.41006   0.00000  Uiso   1.00
C438   C     0.34261   0.89731   0.63966   0.00000  Uiso   1.00
C439   C     0.44994   0.60475   0.23757   0.00000  Uiso   1.00
C440   C     0.05006   0.89525   0.76243   0.00000  Uiso   1.00
C441   C     0.25000   0.50000   0.58994   0.00000  Uiso   1.00
C442   C     0.25000   0.50000   0.91006   0.00000  Uiso   1.00
C443   C     0.25000   0.50000   0.08994   0.00000  Uiso   1.00
C444   C     0.00000   0.75000   0.91006   0.00000  Uiso   1.00
C445   C     0.00000   0.75000   0.08994   0.00000  Uiso   1.00
C446   C     0.06998   0.68002   0.25000   0.00000  Uiso   1.00
C447   C     0.43002   0.81998   0.75000   0.00000  Uiso   1.00
C448   C     0.18002   0.93002   0.25000   0.00000  Uiso   1.00
C449   C     0.00000   0.75000   0.97333   0.00000  Uiso   1.00
C450   C     0.31998   0.56998   0.75000   0.00000  Uiso   1.00
C451   C     0.43002   0.81998   0.25000   0.00000  Uiso   1.00
C452   C     0.06998   0.68002   0.75000   0.00000  Uiso   1.00
C453   C     0.31998   0.56998   0.25000   0.00000  Uiso   1.00
C454   C     0.18002   0.93002   0.75000   0.00000  Uiso   1.00
C455   C     0.06998   0.81998   0.75000   0.00000  Uiso   1.00
C456   C     0.43002   0.68002   0.25000   0.00000  Uiso   1.00
C457   C     0.18002   0.56998   0.75000   0.00000  Uiso   1.00
C458   C     0.31998   0.93002   0.25000   0.00000  Uiso   1.00
C459   C     0.43002   0.68002   0.75000   0.00000  Uiso   1.00
C460   C     0.25000   0.50000   0.02667   0.00000  Uiso   1.00
C461   C     0.06998   0.81998   0.25000   0.00000  Uiso   1.00
C462   C     0.31998   0.93002   0.75000   0.00000  Uiso   1.00
C463   C     0.18002   0.56998   0.25000   0.00000  Uiso   1.00
C464   C     0.13502   0.83801   0.25508   0.00000  Uiso   1.00
C465   C     0.36498   0.66199   0.74492   0.00000  Uiso   1.00
C466   C     0.36355   0.89052   0.19552   0.00000  Uiso   1.00
C467   C     0.13645   0.60948   0.80448   0.00000  Uiso   1.00
C468   C     0.36498   0.66199   0.25508   0.00000  Uiso   1.00
C469   C     0.13502   0.83801   0.74492   0.00000  Uiso   1.00
C470   C     0.13645   0.60948   0.19552   0.00000  Uiso   1.00
C471   C     0.25000   0.50000   0.97333   0.00000  Uiso   1.00
C472   C     0.36355   0.89052   0.80448   0.00000  Uiso   1.00
C473   C     0.10948   0.63645   0.80448   0.00000  Uiso   1.00
C474   C     0.39052   0.86355   0.19552   0.00000  Uiso   1.00
C475   C     0.33801   0.63502   0.74492   0.00000  Uiso   1.00
C476   C     0.16199   0.86498   0.25508   0.00000  Uiso   1.00
C477   C     0.39052   0.86355   0.80448   0.00000  Uiso   1.00
C478   C     0.10948   0.63645   0.19552   0.00000  Uiso   1.00
C479   C     0.16199   0.86498   0.74492   0.00000  Uiso   1.00
C480   C     0.33801   0.63502   0.25508   0.00000  Uiso   1.00
C481   C     0.38502   0.58801   0.75508   0.00000  Uiso   1.00
C482   C     0.25000   0.50000   0.52667   0.00000  Uiso   1.00
C483   C     0.11498   0.91199   0.24492   0.00000  Uiso   1.00
C484   C     0.11355   0.64052   0.69552   0.00000  Uiso   1.00
C485   C     0.38645   0.85948   0.30448   0.00000  Uiso   1.00
C486   C     0.11498   0.91199   0.75508   0.00000  Uiso   1.00
C487   C     0.38502   0.58801   0.24492   0.00000  Uiso   1.00
C488   C     0.38645   0.85948   0.69552   0.00000  Uiso   1.00
C489   C     0.11355   0.64052   0.30448   0.00000  Uiso   1.00
C490   C     0.35948   0.88645   0.30448   0.00000  Uiso   1.00
C491   C     0.14052   0.61355   0.69552   0.00000  Uiso   1.00
C492   C     0.08801   0.88502   0.24492   0.00000  Uiso   1.00
C493   C     0.25000   0.50000   0.47333   0.00000  Uiso   1.00
C494   C     0.41199   0.61498   0.75508   0.00000  Uiso   1.00
C495   C     0.14052   0.61355   0.30448   0.00000  Uiso   1.00
C496   C     0.35948   0.88645   0.69552   0.00000  Uiso   1.00
C497   C     0.41199   0.61498   0.24492   0.00000  Uiso   1.00
C498   C     0.08801   0.88502   0.75508   0.00000  Uiso   1.00
C499   C     0.15192   0.90192   0.25000   0.00000  Uiso   1.00
C500   C     0.34808   0.59808   0.75000   0.00000  Uiso   1.00
C501   C     0.40192   0.84808   0.25000   0.00000  Uiso   1.00
C502   C     0.09808   0.65192   0.75000   0.00000  Uiso   1.00
C503   C     0.34808   0.59808   0.25000   0.00000  Uiso   1.00
C504   C     0.00000   0.75000   0.52667   0.00000  Uiso   1.00
C505   C     0.15192   0.90192   0.75000   0.00000  Uiso   1.00
C506   C     0.09808   0.65192   0.25000   0.00000  Uiso   1.00
C507   C     0.40192   0.84808   0.75000   0.00000  Uiso   1.00
C508   C     0.15192   0.59808   0.75000   0.00000  Uiso   1.00
C509   C     0.34808   0.90192   0.25000   0.00000  Uiso   1.00
C510   C     0.40192   0.65191   0.75000   0.00000  Uiso   1.00
C511   C     0.09808   0.84808   0.25000   0.00000  Uiso   1.00
C512   C     0.34808   0.90192   0.75000   0.00000  Uiso   1.00
C513   C     0.15192   0.59808   0.25000   0.00000  Uiso   1.00
C514   C     0.09808   0.84808   0.75000   0.00000  Uiso   1.00
C515   C     0.00000   0.75000   0.47333   0.00000  Uiso   1.00
C516   C     0.40192   0.65191   0.25000   0.00000  Uiso   1.00
C517   C     0.14525   0.80006   0.26243   0.00000  Uiso   1.00
C518   C     0.35475   0.69994   0.73757   0.00000  Uiso   1.00
C519   C     0.35270   0.90739   0.13966   0.00000  Uiso   1.00
C520   C     0.14730   0.59261   0.86034   0.00000  Uiso   1.00
C521   C     0.35475   0.69994   0.26243   0.00000  Uiso   1.00
C522   C     0.14525   0.80006   0.73757   0.00000  Uiso   1.00
C523   C     0.14731   0.59261   0.13966   0.00000  Uiso   1.00
C524   C     0.35269   0.90739   0.86034   0.00000  Uiso   1.00
C525   C     0.09261   0.64730   0.86034   0.00000  Uiso   1.00
C526   C     0.00000   0.75000   0.41006   0.00000  Uiso   1.00
C527   C     0.40739   0.85270   0.13966   0.00000  Uiso   1.00
C528   C     0.30006   0.64525   0.73757   0.00000  Uiso   1.00
C529   C     0.19994   0.85475   0.26243   0.00000  Uiso   1.00
C530   C     0.40739   0.85269   0.86034   0.00000  Uiso   1.00
C531   C     0.09261   0.64731   0.13966   0.00000  Uiso   1.00
C532   C     0.19994   0.85475   0.73757   0.00000  Uiso   1.00
C533   C     0.30006   0.64525   0.26243   0.00000  Uiso   1.00
C534   C     0.39525   0.55006   0.76243   0.00000  Uiso   1.00
C535   C     0.10475   0.94994   0.23757   0.00000  Uiso   1.00
C536   C     0.10270   0.65739   0.63966   0.00000  Uiso   1.00
N537   N     0.15338   0.76982   0.26831   0.00000  Uiso   1.00
N538   N     0.42084   0.84406   0.09516   0.00000  Uiso   1.00
N539   N     0.26982   0.65338   0.73170   0.00000  Uiso   1.00
N540   N     0.23018   0.84662   0.26831   0.00000  Uiso   1.00
N541   N     0.42083   0.84406   0.90484   0.00000  Uiso   1.00
N542   N     0.07917   0.65595   0.09516   0.00000  Uiso   1.00
N543   N     0.23018   0.84662   0.73169   0.00000  Uiso   1.00
N544   N     0.26982   0.65338   0.26831   0.00000  Uiso   1.00
N545   N     0.40338   0.51982   0.76831   0.00000  Uiso   1.00
N546   N     0.09662   0.98018   0.23169   0.00000  Uiso   1.00
N547   N     0.09406   0.67084   0.59516   0.00000  Uiso   1.00
N548   N     0.34662   0.73018   0.73169   0.00000  Uiso   1.00
N549   N     0.40594   0.82916   0.40484   0.00000  Uiso   1.00
N550   N     0.09662   0.98018   0.76831   0.00000  Uiso   1.00
N551   N     0.40338   0.51982   0.23169   0.00000  Uiso   1.00
N552   N     0.40594   0.82917   0.59516   0.00000  Uiso   1.00
N553   N     0.09405   0.67083   0.40484   0.00000  Uiso   1.00
N554   N     0.32916   0.90594   0.40484   0.00000  Uiso   1.00
N555   N     0.17084   0.59406   0.59516   0.00000  Uiso   1.00
N556   N     0.01982   0.90338   0.23169   0.00000  Uiso   1.00
N557   N     0.48018   0.59662   0.76831   0.00000  Uiso   1.00
N558   N     0.17083   0.59405   0.40484   0.00000  Uiso   1.00
N559   N     0.34406   0.92084   0.09516   0.00000  Uiso   1.00
N560   N     0.32917   0.90594   0.59516   0.00000  Uiso   1.00
N561   N     0.48018   0.59662   0.23169   0.00000  Uiso   1.00
N562   N     0.01982   0.90338   0.76831   0.00000  Uiso   1.00
N563   N     0.15594   0.57917   0.90484   0.00000  Uiso   1.00
N564   N     0.34662   0.73018   0.26831   0.00000  Uiso   1.00
N565   N     0.15338   0.76982   0.73170   0.00000  Uiso   1.00
N566   N     0.15595   0.57917   0.09516   0.00000  Uiso   1.00
N567   N     0.34406   0.92083   0.90484   0.00000  Uiso   1.00
N568   N     0.07917   0.65594   0.90484   0.00000  Uiso   1.00
O569   O     0.00000   0.75000   0.25000   0.00000  Uiso   1.00
O570   O     0.00000   0.78035   0.61781   0.00000  Uiso   1.00
O571   O     0.21965   0.50000   0.38219   0.00000  Uiso   1.00
O572   O     0.28036   0.50000   0.61781   0.00000  Uiso   1.00
O573   O     0.25000   0.53035   0.88219   0.00000  Uiso   1.00
O574   O     0.25000   0.96965   0.11781   0.00000  Uiso   1.00
O575   O     0.03036   0.75000   0.88219   0.00000  Uiso   1.00
O576   O     0.46965   0.75000   0.11781   0.00000  Uiso   1.00
O577   O     0.25000   0.96965   0.88219   0.00000  Uiso   1.00
O578   O     0.25000   0.53035   0.11781   0.00000  Uiso   1.00
O579   O     0.46965   0.75000   0.88219   0.00000  Uiso   1.00
O580   O     0.00000   0.75000   0.75000   0.00000  Uiso   1.00
O581   O     0.03036   0.75000   0.11781   0.00000  Uiso   1.00
O582   O     0.04268   0.67693   0.28474   0.00000  Uiso   1.00
O583   O     0.45733   0.82307   0.71526   0.00000  Uiso   1.00
O584   O     0.17693   0.95733   0.28474   0.00000  Uiso   1.00
O585   O     0.32308   0.54267   0.71526   0.00000  Uiso   1.00
O586   O     0.45733   0.82307   0.28474   0.00000  Uiso   1.00
O587   O     0.04268   0.67693   0.71526   0.00000  Uiso   1.00
O588   O     0.32308   0.54267   0.28474   0.00000  Uiso   1.00
O589   O     0.17693   0.95733   0.71526   0.00000  Uiso   1.00
O590   O     0.04268   0.82308   0.71526   0.00000  Uiso   1.00
O591   O     0.25000   0.50000   0.25000   0.00000  Uiso   1.00
O592   O     0.45733   0.67692   0.28474   0.00000  Uiso   1.00
O593   O     0.17693   0.54267   0.71526   0.00000  Uiso   1.00
O594   O     0.32308   0.95733   0.28474   0.00000  Uiso   1.00
O595   O     0.45733   0.67692   0.71526   0.00000  Uiso   1.00
O596   O     0.04268   0.82308   0.28474   0.00000  Uiso   1.00
O597   O     0.32308   0.95733   0.71526   0.00000  Uiso   1.00
O598   O     0.17693   0.54267   0.28474   0.00000  Uiso   1.00
O599   O     0.29268   0.92693   0.78474   0.00000  Uiso   1.00
O600   O     0.20733   0.57307   0.21526   0.00000  Uiso   1.00
O601   O     0.42693   0.70732   0.78474   0.00000  Uiso   1.00
O602   O     0.25000   0.50000   0.75000   0.00000  Uiso   1.00
O603   O     0.07308   0.79268   0.21526   0.00000  Uiso   1.00
O604   O     0.20733   0.57307   0.78474   0.00000  Uiso   1.00
O605   O     0.29268   0.92693   0.21526   0.00000  Uiso   1.00
O606   O     0.07308   0.79268   0.78474   0.00000  Uiso   1.00
O607   O     0.42693   0.70732   0.21526   0.00000  Uiso   1.00
O608   O     0.29268   0.57307   0.21526   0.00000  Uiso   1.00
O609   O     0.20733   0.92693   0.78474   0.00000  Uiso   1.00
O610   O     0.42693   0.79267   0.21526   0.00000  Uiso   1.00
O611   O     0.07308   0.70733   0.78474   0.00000  Uiso   1.00
O612   O     0.20733   0.92693   0.21526   0.00000  Uiso   1.00
O613   O     0.00000   0.78035   0.38219   0.00000  Uiso   1.00
O614   O     0.29268   0.57307   0.78474   0.00000  Uiso   1.00
O615   O     0.07308   0.70733   0.21526   0.00000  Uiso   1.00
O616   O     0.42693   0.79267   0.78474   0.00000  Uiso   1.00
O617   O     0.00000   0.71965   0.61781   0.00000  Uiso   1.00
O618   O     0.28036   0.50000   0.38219   0.00000  Uiso   1.00
O619   O     0.21965   0.50000   0.61781   0.00000  Uiso   1.00
O620   O     0.00000   0.71964   0.38219   0.00000  Uiso   1.00
Zn621  Zn    0.04333   0.75000   0.20067   0.00000  Uiso   1.00
Zn622  Zn    0.20667   0.50000   0.29933   0.00000  Uiso   1.00
Zn623  Zn    0.00000   0.70667   0.70067   0.00000  Uiso   1.00
Zn624  Zn    0.00000   0.79333   0.29933   0.00000  Uiso   1.00
Zn625  Zn    0.20667   0.50000   0.70067   0.00000  Uiso   1.00
Zn626  Zn    0.29333   0.50000   0.29933   0.00000  Uiso   1.00
Zn627  Zn    0.00000   0.79333   0.70067   0.00000  Uiso   1.00
Zn628  Zn    0.00000   0.70667   0.29933   0.00000  Uiso   1.00
Zn629  Zn    0.45667   0.75000   0.79933   0.00000  Uiso   1.00
Zn630  Zn    0.25000   0.95667   0.20067   0.00000  Uiso   1.00
Zn631  Zn    0.25000   0.54333   0.79933   0.00000  Uiso   1.00
Zn632  Zn    0.45667   0.75000   0.20067   0.00000  Uiso   1.00
Zn633  Zn    0.04333   0.75000   0.79933   0.00000  Uiso   1.00
Zn634  Zn    0.25000   0.54333   0.20067   0.00000  Uiso   1.00
Zn635  Zn    0.25000   0.95667   0.79933   0.00000  Uiso   1.00
Zn636  Zn    0.29333   0.50000   0.70067   0.00000  Uiso   1.00
C637   C     0.50000   0.75000   0.02667   0.00000  Uiso   1.00
C638   C     0.50000   0.75000   0.58994   0.00000  Uiso   1.00
C639   C     0.89730   0.84261   0.36034   0.00000  Uiso   1.00
C640   C     0.60475   0.94994   0.76243   0.00000  Uiso   1.00
C641   C     0.89525   0.55006   0.23757   0.00000  Uiso   1.00
C642   C     0.89731   0.84261   0.63966   0.00000  Uiso   1.00
C643   C     0.60269   0.65739   0.36034   0.00000  Uiso   1.00
C644   C     0.84261   0.89730   0.36034   0.00000  Uiso   1.00
C645   C     0.65739   0.60270   0.63966   0.00000  Uiso   1.00
C646   C     0.55006   0.89525   0.23757   0.00000  Uiso   1.00
C647   C     0.94994   0.60475   0.76243   0.00000  Uiso   1.00
C648   C     0.65739   0.60269   0.36034   0.00000  Uiso   1.00
C649   C     0.75000   0.50000   0.41006   0.00000  Uiso   1.00
C650   C     0.84261   0.89731   0.63966   0.00000  Uiso   1.00
C651   C     0.94994   0.60475   0.23757   0.00000  Uiso   1.00
C652   C     0.55006   0.89525   0.76243   0.00000  Uiso   1.00
C653   C     0.75000   0.50000   0.58994   0.00000  Uiso   1.00
C654   C     0.75000   0.50000   0.91006   0.00000  Uiso   1.00
C655   C     0.75000   0.50000   0.08994   0.00000  Uiso   1.00
C656   C     0.50000   0.75000   0.91006   0.00000  Uiso   1.00
C657   C     0.50000   0.75000   0.08994   0.00000  Uiso   1.00
C658   C     0.56998   0.68002   0.25000   0.00000  Uiso   1.00
C659   C     0.93002   0.81998   0.75000   0.00000  Uiso   1.00
C660   C     0.68002   0.93002   0.25000   0.00000  Uiso   1.00
C661   C     0.50000   0.75000   0.97333   0.00000  Uiso   1.00
C662   C     0.81998   0.56998   0.75000   0.00000  Uiso   1.00
C663   C     0.93002   0.81998   0.25000   0.00000  Uiso   1.00
C664   C     0.56998   0.68002   0.75000   0.00000  Uiso   1.00
C665   C     0.81998   0.56998   0.25000   0.00000  Uiso   1.00
C666   C     0.68002   0.93002   0.75000   0.00000  Uiso   1.00
C667   C     0.56998   0.81998   0.75000   0.00000  Uiso   1.00
C668   C     0.93002   0.68002   0.25000   0.00000  Uiso   1.00
C669   C     0.68002   0.56998   0.75000   0.00000  Uiso   1.00
C670   C     0.81998   0.93002   0.25000   0.00000  Uiso   1.00
C671   C     0.93002   0.68002   0.75000   0.00000  Uiso   1.00
C672   C     0.75000   0.50000   0.02667   0.00000  Uiso   1.00
C673   C     0.56998   0.81998   0.25000   0.00000  Uiso   1.00
C674   C     0.81998   0.93002   0.75000   0.00000  Uiso   1.00
C675   C     0.68002   0.56998   0.25000   0.00000  Uiso   1.00
C676   C     0.63502   0.83801   0.25508   0.00000  Uiso   1.00
C677   C     0.86498   0.66199   0.74492   0.00000  Uiso   1.00
C678   C     0.86355   0.89052   0.19552   0.00000  Uiso   1.00
C679   C     0.63645   0.60948   0.80448   0.00000  Uiso   1.00
C680   C     0.86498   0.66199   0.25508   0.00000  Uiso   1.00
C681   C     0.63502   0.83801   0.74492   0.00000  Uiso   1.00
C682   C     0.63645   0.60948   0.19552   0.00000  Uiso   1.00
C683   C     0.75000   0.50000   0.97333   0.00000  Uiso   1.00
C684   C     0.86355   0.89052   0.80448   0.00000  Uiso   1.00
C685   C     0.60948   0.63645   0.80448   0.00000  Uiso   1.00
C686   C     0.89052   0.86355   0.19552   0.00000  Uiso   1.00
C687   C     0.83801   0.63502   0.74492   0.00000  Uiso   1.00
C688   C     0.66199   0.86498   0.25508   0.00000  Uiso   1.00
C689   C     0.89052   0.86355   0.80448   0.00000  Uiso   1.00
C690   C     0.60948   0.63645   0.19552   0.00000  Uiso   1.00
C691   C     0.66199   0.86498   0.74492   0.00000  Uiso   1.00
C692   C     0.83801   0.63502   0.25508   0.00000  Uiso   1.00
C693   C     0.88502   0.58801   0.75508   0.00000  Uiso   1.00
C694   C     0.75000   0.50000   0.52667   0.00000  Uiso   1.00
C695   C     0.61498   0.91199   0.24492   0.00000  Uiso   1.00
C696   C     0.61355   0.64052   0.69552   0.00000  Uiso   1.00
C697   C     0.88645   0.85948   0.30448   0.00000  Uiso   1.00
C698   C     0.61498   0.91199   0.75508   0.00000  Uiso   1.00
C699   C     0.88502   0.58801   0.24492   0.00000  Uiso   1.00
C700   C     0.88645   0.85948   0.69552   0.00000  Uiso   1.00
C701   C     0.61355   0.64052   0.30448   0.00000  Uiso   1.00
C702   C     0.85948   0.88645   0.30448   0.00000  Uiso   1.00
C703   C     0.64052   0.61355   0.69552   0.00000  Uiso   1.00
C704   C     0.58801   0.88502   0.24492   0.00000  Uiso   1.00
C705   C     0.75000   0.50000   0.47333   0.00000  Uiso   1.00
C706   C     0.91199   0.61498   0.75508   0.00000  Uiso   1.00
C707   C     0.64052   0.61355   0.30448   0.00000  Uiso   1.00
C708   C     0.85948   0.88645   0.69552   0.00000  Uiso   1.00
C709   C     0.91199   0.61498   0.24492   0.00000  Uiso   1.00
C710   C     0.58801   0.88502   0.75508   0.00000  Uiso   1.00
C711   C     0.65192   0.90192   0.25000   0.00000  Uiso   1.00
C712   C     0.84808   0.59808   0.75000   0.00000  Uiso   1.00
C713   C     0.90192   0.84808   0.25000   0.00000  Uiso   1.00
C714   C     0.59808   0.65192   0.75000   0.00000  Uiso   1.00
C715   C     0.84808   0.59808   0.25000   0.00000  Uiso   1.00
C716   C     0.50000   0.75000   0.52667   0.00000  Uiso   1.00
C717   C     0.65192   0.90192   0.75000   0.00000  Uiso   1.00
C718   C     0.59808   0.65192   0.25000   0.00000  Uiso   1.00
C719   C     0.90192   0.84808   0.75000   0.00000  Uiso   1.00
C720   C     0.65192   0.59808   0.75000   0.00000  Uiso   1.00
C721   C     0.84808   0.90192   0.25000   0.00000  Uiso   1.00
C722   C     0.90192   0.65191   0.75000   0.00000  Uiso   1.00
C723   C     0.59808   0.84808   0.25000   0.00000  Uiso   1.00
C724   C     0.84808   0.90192   0.75000   0.00000  Uiso   1.00
C725   C     0.65192   0.59808   0.25000   0.00000  Uiso   1.00
C726   C     0.59808   0.84808   0.75000   0.00000  Uiso   1.00
C727   C     0.50000   0.75000   0.47333   0.00000  Uiso   1.00
C728   C     0.90192   0.65191   0.25000   0.00000  Uiso   1.00
C729   C     0.64525   0.80006   0.26243   0.00000  Uiso   1.00
C730   C     0.85475   0.69994   0.73757   0.00000  Uiso   1.00
C731   C     0.85270   0.90739   0.13966   0.00000  Uiso   1.00
C732   C     0.64730   0.59261   0.86034   0.00000  Uiso   1.00
C733   C     0.85475   0.69994   0.26243   0.00000  Uiso   1.00
C734   C     0.64525   0.80006   0.73757   0.00000  Uiso   1.00
C735   C     0.64731   0.59261   0.13966   0.00000  Uiso   1.00
C736   C     0.85269   0.90739   0.86034   0.00000  Uiso   1.00
C737   C     0.59261   0.64730   0.86034   0.00000  Uiso   1.00
C738   C     0.50000   0.75000   0.41006   0.00000  Uiso   1.00
C739   C     0.90739   0.85270   0.13966   0.00000  Uiso   1.00
C740   C     0.80006   0.64525   0.73757   0.00000  Uiso   1.00
C741   C     0.69994   0.85475   0.26243   0.00000  Uiso   1.00
C742   C     0.90739   0.85269   0.86034   0.00000  Uiso   1.00
C743   C     0.59261   0.64731   0.13966   0.00000  Uiso   1.00
C744   C     0.69994   0.85475   0.73757   0.00000  Uiso   1.00
C745   C     0.80006   0.64525   0.26243   0.00000  Uiso   1.00
C746   C     0.89525   0.55006   0.76243   0.00000  Uiso   1.00
C747   C     0.60475   0.94994   0.23757   0.00000  Uiso   1.00
C748   C     0.60270   0.65739   0.63966   0.00000  Uiso   1.00
N749   N     0.65338   0.76982   0.26831   0.00000  Uiso   1.00
N750   N     0.92084   0.84406   0.09516   0.00000  Uiso   1.00
N751   N     0.76982   0.65338   0.73170   0.00000  Uiso   1.00
N752   N     0.73018   0.84662   0.26831   0.00000  Uiso   1.00
N753   N     0.92083   0.84406   0.90484   0.00000  Uiso   1.00
N754   N     0.57917   0.65595   0.09516   0.00000  Uiso   1.00
N755   N     0.73018   0.84662   0.73169   0.00000  Uiso   1.00
N756   N     0.76982   0.65338   0.26831   0.00000  Uiso   1.00
N757   N     0.90338   0.51982   0.76831   0.00000  Uiso   1.00
N758   N     0.59662   0.98018   0.23169   0.00000  Uiso   1.00
N759   N     0.59406   0.67084   0.59516   0.00000  Uiso   1.00
N760   N     0.84662   0.73018   0.73169   0.00000  Uiso   1.00
N761   N     0.90594   0.82916   0.40484   0.00000  Uiso   1.00
N762   N     0.59662   0.98018   0.76831   0.00000  Uiso   1.00
N763   N     0.90338   0.51982   0.23169   0.00000  Uiso   1.00
N764   N     0.90594   0.82917   0.59516   0.00000  Uiso   1.00
N765   N     0.59405   0.67083   0.40484   0.00000  Uiso   1.00
N766   N     0.82916   0.90594   0.40484   0.00000  Uiso   1.00
N767   N     0.67084   0.59406   0.59516   0.00000  Uiso   1.00
N768   N     0.51982   0.90338   0.23169   0.00000  Uiso   1.00
N769   N     0.98018   0.59662   0.76831   0.00000  Uiso   1.00
N770   N     0.67083   0.59405   0.40484   0.00000  Uiso   1.00
N771   N     0.84406   0.92084   0.09516   0.00000  Uiso   1.00
N772   N     0.82917   0.90594   0.59516   0.00000  Uiso   1.00
N773   N     0.98018   0.59662   0.23169   0.00000  Uiso   1.00
N774   N     0.51982   0.90338   0.76831   0.00000  Uiso   1.00
N775   N     0.65594   0.57917   0.90484   0.00000  Uiso   1.00
N776   N     0.84662   0.73018   0.26831   0.00000  Uiso   1.00
N777   N     0.65338   0.76982   0.73170   0.00000  Uiso   1.00
N778   N     0.65595   0.57917   0.09516   0.00000  Uiso   1.00
N779   N     0.84406   0.92083   0.90484   0.00000  Uiso   1.00
N780   N     0.57917   0.65594   0.90484   0.00000  Uiso   1.00
O781   O     0.50000   0.75000   0.25000   0.00000  Uiso   1.00
O782   O     0.50000   0.78035   0.61781   0.00000  Uiso   1.00
O783   O     0.71965   0.50000   0.38219   0.00000  Uiso   1.00
O784   O     0.78036   0.50000   0.61781   0.00000  Uiso   1.00
O785   O     0.75000   0.53035   0.88219   0.00000  Uiso   1.00
O786   O     0.75000   0.96965   0.11781   0.00000  Uiso   1.00
O787   O     0.53036   0.75000   0.88219   0.00000  Uiso   1.00
O788   O     0.96965   0.75000   0.11781   0.00000  Uiso   1.00
O789   O     0.75000   0.96965   0.88219   0.00000  Uiso   1.00
O790   O     0.75000   0.53035   0.11781   0.00000  Uiso   1.00
O791   O     0.96965   0.75000   0.88219   0.00000  Uiso   1.00
O792   O     0.50000   0.75000   0.75000   0.00000  Uiso   1.00
O793   O     0.53036   0.75000   0.11781   0.00000  Uiso   1.00
O794   O     0.54268   0.67693   0.28474   0.00000  Uiso   1.00
O795   O     0.95733   0.82307   0.71526   0.00000  Uiso   1.00
O796   O     0.67693   0.95733   0.28474   0.00000  Uiso   1.00
O797   O     0.82308   0.54267   0.71526   0.00000  Uiso   1.00
O798   O     0.95733   0.82307   0.28474   0.00000  Uiso   1.00
O799   O     0.54268   0.67693   0.71526   0.00000  Uiso   1.00
O800   O     0.82308   0.54267   0.28474   0.00000  Uiso   1.00
O801   O     0.67693   0.95733   0.71526   0.00000  Uiso   1.00
O802   O     0.54268   0.82308   0.71526   0.00000  Uiso   1.00
O803   O     0.75000   0.50000   0.25000   0.00000  Uiso   1.00
O804   O     0.95733   0.67692   0.28474   0.00000  Uiso   1.00
O805   O     0.67693   0.54267   0.71526   0.00000  Uiso   1.00
O806   O     0.82308   0.95733   0.28474   0.00000  Uiso   1.00
O807   O     0.95733   0.67692   0.71526   0.00000  Uiso   1.00
O808   O     0.54268   0.82308   0.28474   0.00000  Uiso   1.00
O809   O     0.82308   0.95733   0.71526   0.00000  Uiso   1.00
O810   O     0.67693   0.54267   0.28474   0.00000  Uiso   1.00
O811   O     0.79268   0.92693   0.78474   0.00000  Uiso   1.00
O812   O     0.70733   0.57307   0.21526   0.00000  Uiso   1.00
O813   O     0.92693   0.70732   0.78474   0.00000  Uiso   1.00
O814   O     0.75000   0.50000   0.75000   0.00000  Uiso   1.00
O815   O     0.57308   0.79268   0.21526   0.00000  Uiso   1.00
O816   O     0.70733   0.57307   0.78474   0.00000  Uiso   1.00
O817   O     0.79268   0.92693   0.21526   0.00000  Uiso   1.00
O818   O     0.57308   0.79268   0.78474   0.00000  Uiso   1.00
O819   O     0.92693   0.70732   0.21526   0.00000  Uiso   1.00
O820   O     0.79268   0.57307   0.21526   0.00000  Uiso   1.00
O821   O     0.70733   0.92693   0.78474   0.00000  Uiso   1.00
O822   O     0.92693   0.79267   0.21526   0.00000  Uiso   1.00
O823   O     0.57308   0.70733   0.78474   0.00000  Uiso   1.00
O824   O     0.70733   0.92693   0.21526   0.00000  Uiso   1.00
O825   O     0.50000   0.78035   0.38219   0.00000  Uiso   1.00
O826   O     0.79268   0.57307   0.78474   0.00000  Uiso   1.00
O827   O     0.57308   0.70733   0.21526   0.00000  Uiso   1.00
O828   O     0.92693   0.79267   0.78474   0.00000  Uiso   1.00
O829   O     0.50000   0.71965   0.61781   0.00000  Uiso   1.00
O830   O     0.78036   0.50000   0.38219   0.00000  Uiso   1.00
O831   O     0.71965   0.50000   0.61781   0.00000  Uiso   1.00
O832   O     0.50000   0.71964   0.38219   0.00000  Uiso   1.00
Zn833  Zn    0.54333   0.75000   0.20067   0.00000  Uiso   1.00
Zn834  Zn    0.70667   0.50000   0.29933   0.00000  Uiso   1.00
Zn835  Zn    0.50000   0.70667   0.70067   0.00000  Uiso   1.00
Zn836  Zn    0.50000   0.79333   0.29933   0.00000  Uiso   1.00
Zn837  Zn    0.70667   0.50000   0.70067   0.00000  Uiso   1.00
Zn838  Zn    0.79333   0.50000   0.29933   0.00000  Uiso   1.00
Zn839  Zn    0.50000   0.79333   0.70067   0.00000  Uiso   1.00
Zn840  Zn    0.50000   0.70667   0.29933   0.00000  Uiso   1.00
Zn841  Zn    0.95667   0.75000   0.79933   0.00000  Uiso   1.00
Zn842  Zn    0.75000   0.95667   0.20067   0.00000  Uiso   1.00
Zn843  Zn    0.75000   0.54333   0.79933   0.00000  Uiso   1.00
Zn844  Zn    0.95667   0.75000   0.20067   0.00000  Uiso   1.00
Zn845  Zn    0.54333   0.75000   0.79933   0.00000  Uiso   1.00
Zn846  Zn    0.75000   0.54333   0.20067   0.00000  Uiso   1.00
Zn847  Zn    0.75000   0.95667   0.79933   0.00000  Uiso   1.00
Zn848  Zn    0.79333   0.50000   0.70067   0.00000  Uiso   1.00
loop_
_geom_bond_atom_site_label_1
_geom_bond_atom_site_label_2
_geom_bond_distance
_geom_bond_site_symmetry_2
_ccdc_geom_bond_type
C1     C21     1.418   .     S
C1     C25     1.196   1_554 S
C2     O193    1.278   .     A
C2     C80     1.418   .     S
C2     O146    1.278   .     S
C3     N125    1.157   .     T
C3     C61     1.453   .     S
C4     C62     1.453   .     S
C4     N126    1.157   .     T
C5     C63     1.453   .     S
C5     N127    1.157   .     T
C6     C64     1.453   .     S
C6     N128    1.157   .     T
C7     C65     1.453   .     S
C7     N129    1.157   .     T
C8     C66     1.453   .     S
C8     N130    1.157   .     T
C9     C67     1.453   .     S
C9     N131    1.157   .     T
C10    C68     1.453   .     S
C10    N132    1.157   .     T
C11    C70     1.453   .     S
C11    N133    1.157   .     T
C12    C71     1.453   .     S
C12    N134    1.157   .     T
C13    C69     1.418   .     S
C13    O147    1.278   .     S
C13    O194    1.278   .     S
C14    C72     1.453   .     S
C14    N136    1.157   .     T
C15    C73     1.453   .     S
C15    N137    1.157   .     T
C16    C74     1.453   .     S
C16    N138    1.157   .     T
C17    C58     1.418   .     S
C17    O148    1.278   .     A
C17    O195    1.278   .     A
C18    C47     1.418   .     S
C18    O149    1.278   .     A
C18    O577    1.278   1_545 S
C19    O574    1.278   1_545 A
C19    C36     1.418   .     S
C19    O154    1.278   .     S
C20    C25     1.418   .     S
C20    O151    1.278   .     A
C20    O367    1.278   1_455 S
C21    O364    1.278   1_455 A
C21    O157    1.278   .     S
C22    C82     1.460   .     S
C22    O158    1.275   .     A
C22    O191    1.275   .     A
C23    C83     1.460   .     S
C23    O159    1.275   .     A
C23    O192    1.275   .     A
C24    O188    1.275   .     A
C24    O160    1.275   .     A
C24    C75     1.460   .     S
C25    C1      1.196   1_556 S
C26    O190    1.275   .     A
C26    C76     1.460   .     S
C26    O161    1.275   .     A
C27    C77     1.460   .     S
C27    O162    1.275   .     A
C27    O186    1.275   .     A
C28    C78     1.460   .     S
C28    O187    1.275   .     A
C28    O163    1.275   .     A
C29    O184    1.275   .     A
C29    O164    1.275   .     A
C29    C79     1.460   .     S
C30    O185    1.275   .     A
C30    C81     1.460   .     S
C30    O165    1.275   .     A
C31    O182    1.275   .     A
C31    O166    1.275   .     A
C31    C90     1.460   .     S
C32    O183    1.275   .     A
C32    O168    1.275   .     A
C32    C92     1.460   .     S
C33    O169    1.275   .     A
C33    C84     1.460   .     S
C33    O180    1.275   .     A
C34    O181    1.275   .     A
C34    O170    1.275   .     A
C34    C85     1.460   .     S
C35    O177    1.275   .     A
C35    O171    1.275   .     A
C35    C86     1.460   .     S
C36    C47     1.196   1_554 S
C37    O179    1.275   .     A
C37    C87     1.460   .     S
C37    O172    1.275   .     A
C38    O173    1.275   .     A
C38    C88     1.460   .     S
C38    O175    1.275   .     A
C39    O174    1.275   .     A
C39    C89     1.460   .     S
C39    O176    1.275   .     A
C40    C93     1.453   .     S
C40    C52     1.401   .     A
C40    C87     1.411   .     A
C41    C86     1.411   .     A
C41    C94     1.453   .     S
C41    C51     1.401   .     A
C42    C95     1.453   .     S
C42    C85     1.411   .     A
C42    C50     1.401   .     A
C43    C84     1.411   .     A
C43    C49     1.401   .     A
C43    C96     1.453   .     S
C44    C97     1.453   .     S
C44    C56     1.401   .     A
C44    C92     1.411   .     A
C45    C90     1.411   .     A
C45    C98     1.453   .     S
C45    C55     1.401   .     A
C46    C99     1.453   .     S
C46    C89     1.411   .     A
C46    C54     1.401   .     A
C47    C36     1.196   1_556 S
C48    C88     1.411   .     A
C48    C53     1.401   .     A
C48    C100    1.453   .     S
C49    C101    1.453   .     S
C49    C78     1.411   .     A
C50    C103    1.453   .     S
C50    C77     1.411   .     A
C51    C76     1.411   .     A
C51    C104    1.453   .     S
C52    C75     1.411   .     A
C52    C105    1.453   .     S
C53    C106    1.453   .     S
C53    C83     1.411   .     A
C54    C107    1.453   .     S
C54    C82     1.411   .     A
C55    C81     1.411   .     A
C55    C108    1.453   .     S
C56    C79     1.411   .     A
C56    C109    1.453   .     S
C57    C76     1.411   .     A
C57    C70     1.401   .     A
C57    C110    1.453   .     S
C58    C69     1.196   .     T
C59    C111    1.453   .     S
C59    C68     1.401   .     A
C59    C75     1.411   .     A
C60    C67     1.401   .     A
C60    C112    1.453   .     S
C60    C78     1.411   .     A
C61    C77     1.411   .     A
C61    C66     1.401   .     A
C62    C74     1.401   .     A
C62    C81     1.411   .     A
C63    C79     1.411   .     A
C63    C73     1.401   .     A
C64    C83     1.411   .     A
C64    C72     1.401   .     A
C65    C82     1.411   .     A
C65    C71     1.401   .     A
C66    C85     1.411   .     A
C67    C84     1.411   .     A
C68    C87     1.411   .     A
C70    C86     1.411   .     A
C71    C89     1.411   .     A
C72    C88     1.411   .     A
C73    C92     1.411   .     A
C74    C90     1.411   .     A
C80    C91     1.196   .     S
C91    C102    1.418   .     S
C93    N113    1.157   .     T
C94    N124    1.157   .     T
C95    N135    1.157   .     T
C96    N139    1.157   .     T
C97    N140    1.157   .     T
C98    N141    1.157   .     T
C99    N142    1.157   .     T
C100   N143    1.157   .     T
C101   N144    1.157   .     T
C102   O189    1.278   .     S
C102   O196    1.278   .     S
C103   N114    1.157   .     T
C104   N115    1.157   .     T
C105   N116    1.157   .     T
C106   N117    1.157   .     T
C107   N118    1.157   .     T
C108   N119    1.157   .     T
C109   N120    1.157   .     T
C110   N121    1.157   .     T
C111   N122    1.157   .     T
C112   N123    1.157   .     T
O145   Zn420   1.938   1_455 S
O145   Zn197   1.938   .     S
O145   Zn200   1.938   .     S
O145   Zn204   1.938   .     S
O146   Zn203   1.918   .     S
O147   Zn198   1.918   .     S
O148   Zn212   1.918   .     S
O149   Zn207   1.918   .     S
O150   C443    1.278   .     A
O150   Zn206   1.918   .     S
O151   Zn209   1.918   .     S
O152   C233    1.278   .     A
O152   Zn208   1.918   .     S
O153   Zn211   1.918   .     S
O153   C442    1.278   .     S
O154   Zn210   1.918   .     S
O155   Zn205   1.918   .     S
O155   C232    1.278   .     S
O156   Zn209   1.938   .     S
O156   Zn199   1.938   .     S
O156   Zn203   1.938   .     S
O156   Zn417   1.938   1_455 S
O157   Zn197   1.918   .     S
O158   Zn204   1.938   .     S
O159   Zn415   1.938   .     S
O160   Zn622   1.939   .     S
O161   Zn212   1.939   .     S
O162   Zn412   1.938   .     S
O163   Zn199   1.938   .     S
O164   Zn202   1.939   .     S
O165   Zn625   1.939   .     S
O166   Zn203   1.939   .     S
O167   Zn202   1.938   .     S
O167   Zn210   1.938   .     S
O167   Zn198   1.938   .     S
O167   Zn630   1.938   1_545 S
O168   Zn416   1.939   .     S
O169   Zn201   1.938   .     S
O170   Zn626   1.938   .     S
O171   Zn411   1.939   .     S
O172   Zn200   1.939   .     S
O173   Zn636   1.938   .     S
O174   Zn198   1.938   .     S
O175   Zn211   1.938   .     S
O176   Zn210   1.938   .     S
O177   Zn205   1.939   .     S
O178   Zn207   1.938   .     S
O178   Zn212   1.938   .     S
O178   Zn201   1.938   .     S
O178   Zn635   1.938   1_545 S
O179   Zn197   1.939   .     S
O180   Zn207   1.938   .     S
O181   Zn206   1.938   .     S
O182   Zn209   1.939   .     S
O183   Zn208   1.939   .     S
O184   Zn210   1.939   .     S
O185   Zn211   1.939   .     S
O186   Zn208   1.938   .     S
O187   Zn209   1.938   .     S
O188   Zn206   1.939   .     S
O189   Zn200   1.918   .     S
O190   Zn207   1.939   .     S
O191   Zn197   1.938   .     S
O192   Zn205   1.938   .     S
O193   Zn199   1.918   .     S
O194   Zn202   1.918   .     S
O195   Zn201   1.918   .     S
O196   Zn204   1.918   .     S
Zn198  O584    1.939   1_545 S
Zn199  O383    1.939   1_455 S
Zn200  O374    1.938   1_455 S
Zn201  O589    1.939   1_545 S
Zn202  O594    1.938   1_545 S
Zn203  O371    1.938   1_455 S
Zn204  O380    1.939   1_455 S
Zn205  O368    1.938   .     S
Zn206  O591    1.938   .     S
Zn208  O357    1.938   .     S
Zn211  O602    1.938   .     S
Zn212  O597    1.938   1_545 S
C213   C233    1.418   .     S
C213   C237    1.196   1_554 S
C214   O405    1.278   .     A
C214   C292    1.418   .     S
C214   O358    1.278   .     S
C215   N337    1.157   .     T
C215   C273    1.453   .     S
C216   C274    1.453   .     S
C216   N338    1.157   .     T
C217   C275    1.453   .     S
C217   N339    1.157   .     T
C218   C276    1.453   .     S
C218   N340    1.157   .     T
C219   C277    1.453   .     S
C219   N341    1.157   .     T
C220   C278    1.453   .     S
C220   N342    1.157   .     T
C221   C279    1.453   .     S
C221   N343    1.157   .     T
C222   C280    1.453   .     S
C222   N344    1.157   .     T
C223   C282    1.453   .     S
C223   N345    1.157   .     T
C224   C283    1.453   .     S
C224   N346    1.157   .     T
C225   C281    1.418   .     S
C225   O359    1.278   .     S
C225   O406    1.278   .     S
C226   C284    1.453   .     S
C226   N348    1.157   .     T
C227   C285    1.453   .     S
C227   N349    1.157   .     T
C228   C286    1.453   .     S
C228   N350    1.157   .     T
C229   C270    1.418   .     S
C229   O360    1.278   .     A
C229   O407    1.278   .     A
C230   C259    1.418   .     S
C230   O361    1.278   .     A
C230   O789    1.278   1_545 S
C231   O786    1.278   1_545 A
C231   C248    1.418   .     S
C231   O366    1.278   .     S
C232   C237    1.418   .     S
C232   O363    1.278   .     A
C233   O369    1.278   .     S
C234   C294    1.460   .     S
C234   O370    1.275   .     A
C234   O403    1.275   .     A
C235   C295    1.460   .     S
C235   O371    1.275   .     A
C235   O404    1.275   .     A
C236   O400    1.275   .     A
C236   O372    1.275   .     A
C236   C287    1.460   .     S
C237   C213    1.196   1_556 S
C238   O402    1.275   .     A
C238   C288    1.460   .     S
C238   O373    1.275   .     A
C239   C289    1.460   .     S
C239   O374    1.275   .     A
C239   O398    1.275   .     A
C240   C290    1.460   .     S
C240   O399    1.275   .     A
C240   O375    1.275   .     A
C241   O396    1.275   .     A
C241   O376    1.275   .     A
C241   C291    1.460   .     S
C242   O397    1.275   .     A
C242   C293    1.460   .     S
C242   O377    1.275   .     A
C243   O394    1.275   .     A
C243   O378    1.275   .     A
C243   C302    1.460   .     S
C244   O395    1.275   .     A
C244   O380    1.275   .     A
C244   C304    1.460   .     S
C245   O381    1.275   .     A
C245   C296    1.460   .     S
C245   O392    1.275   .     A
C246   O393    1.275   .     A
C246   O382    1.275   .     A
C246   C297    1.460   .     S
C247   O389    1.275   .     A
C247   O383    1.275   .     A
C247   C298    1.460   .     S
C248   C259    1.196   1_554 S
C249   O391    1.275   .     A
C249   C299    1.460   .     S
C249   O384    1.275   .     A
C250   O385    1.275   .     A
C250   C300    1.460   .     S
C250   O387    1.275   .     A
C251   O386    1.275   .     A
C251   C301    1.460   .     S
C251   O388    1.275   .     A
C252   C305    1.453   .     S
C252   C264    1.401   .     A
C252   C299    1.411   .     A
C253   C298    1.411   .     A
C253   C306    1.453   .     S
C253   C263    1.401   .     A
C254   C307    1.453   .     S
C254   C297    1.411   .     A
C254   C262    1.401   .     A
C255   C296    1.411   .     A
C255   C261    1.401   .     A
C255   C308    1.453   .     S
C256   C309    1.453   .     S
C256   C268    1.401   .     A
C256   C304    1.411   .     A
C257   C302    1.411   .     A
C257   C310    1.453   .     S
C257   C267    1.401   .     A
C258   C311    1.453   .     S
C258   C301    1.411   .     A
C258   C266    1.401   .     A
C259   C248    1.196   1_556 S
C260   C300    1.411   .     A
C260   C265    1.401   .     A
C260   C312    1.453   .     S
C261   C313    1.453   .     S
C261   C290    1.411   .     A
C262   C315    1.453   .     S
C262   C289    1.411   .     A
C263   C288    1.411   .     A
C263   C316    1.453   .     S
C264   C287    1.411   .     A
C264   C317    1.453   .     S
C265   C318    1.453   .     S
C265   C295    1.411   .     A
C266   C319    1.453   .     S
C266   C294    1.411   .     A
C267   C293    1.411   .     A
C267   C320    1.453   .     S
C268   C291    1.411   .     A
C268   C321    1.453   .     S
C269   C288    1.411   .     A
C269   C282    1.401   .     A
C269   C322    1.453   .     S
C270   C281    1.196   .     T
C271   C323    1.453   .     S
C271   C280    1.401   .     A
C271   C287    1.411   .     A
C272   C279    1.401   .     A
C272   C324    1.453   .     S
C272   C290    1.411   .     A
C273   C289    1.411   .     A
C273   C278    1.401   .     A
C274   C286    1.401   .     A
C274   C293    1.411   .     A
C275   C291    1.411   .     A
C275   C285    1.401   .     A
C276   C295    1.411   .     A
C276   C284    1.401   .     A
C277   C294    1.411   .     A
C277   C283    1.401   .     A
C278   C297    1.411   .     A
C279   C296    1.411   .     A
C280   C299    1.411   .     A
C282   C298    1.411   .     A
C283   C301    1.411   .     A
C284   C300    1.411   .     A
C285   C304    1.411   .     A
C286   C302    1.411   .     A
C292   C303    1.196   .     S
C303   C314    1.418   .     S
C305   N325    1.157   .     T
C306   N336    1.157   .     T
C307   N347    1.157   .     T
C308   N351    1.157   .     T
C309   N352    1.157   .     T
C310   N353    1.157   .     T
C311   N354    1.157   .     T
C312   N355    1.157   .     T
C313   N356    1.157   .     T
C314   O401    1.278   .     S
C314   O408    1.278   .     S
C315   N326    1.157   .     T
C316   N327    1.157   .     T
C317   N328    1.157   .     T
C318   N329    1.157   .     T
C319   N330    1.157   .     T
C320   N331    1.157   .     T
C321   N332    1.157   .     T
C322   N333    1.157   .     T
C323   N334    1.157   .     T
C324   N335    1.157   .     T
O357   Zn409   1.938   .     S
O357   Zn412   1.938   .     S
O357   Zn416   1.938   .     S
O358   Zn415   1.918   .     S
O359   Zn410   1.918   .     S
O360   Zn424   1.918   .     S
O361   Zn419   1.918   .     S
O362   C655    1.278   .     A
O362   Zn418   1.918   .     S
O363   Zn421   1.918   .     S
O364   C21     1.278   1_655 A
O364   Zn420   1.918   .     S
O365   Zn423   1.918   .     S
O365   C654    1.278   .     S
O366   Zn422   1.918   .     S
O367   Zn417   1.918   .     S
O367   C20     1.278   1_655 S
O368   Zn421   1.938   .     S
O368   Zn411   1.938   .     S
O368   Zn415   1.938   .     S
O369   Zn409   1.918   .     S
O370   Zn416   1.938   .     S
O371   Zn203   1.938   1_655 S
O372   Zn834   1.939   .     S
O373   Zn424   1.939   .     S
O374   Zn200   1.938   1_655 S
O375   Zn411   1.938   .     S
O376   Zn414   1.939   .     S
O377   Zn837   1.939   .     S
O378   Zn415   1.939   .     S
O379   Zn414   1.938   .     S
O379   Zn422   1.938   .     S
O379   Zn410   1.938   .     S
O379   Zn842   1.938   1_545 S
O380   Zn204   1.939   1_655 S
O381   Zn413   1.938   .     S
O382   Zn838   1.938   .     S
O383   Zn199   1.939   1_655 S
O384   Zn412   1.939   .     S
O385   Zn848   1.938   .     S
O386   Zn410   1.938   .     S
O387   Zn423   1.938   .     S
O388   Zn422   1.938   .     S
O389   Zn417   1.939   .     S
O390   Zn419   1.938   .     S
O390   Zn424   1.938   .     S
O390   Zn413   1.938   .     S
O390   Zn847   1.938   1_545 S
O391   Zn409   1.939   .     S
O392   Zn419   1.938   .     S
O393   Zn418   1.938   .     S
O394   Zn421   1.939   .     S
O395   Zn420   1.939   .     S
O396   Zn422   1.939   .     S
O397   Zn423   1.939   .     S
O398   Zn420   1.938   .     S
O399   Zn421   1.938   .     S
O400   Zn418   1.939   .     S
O401   Zn412   1.918   .     S
O402   Zn419   1.939   .     S
O403   Zn409   1.938   .     S
O404   Zn417   1.938   .     S
O405   Zn411   1.918   .     S
O406   Zn414   1.918   .     S
O407   Zn413   1.918   .     S
O408   Zn416   1.918   .     S
Zn410  O796    1.939   1_545 S
Zn413  O801    1.939   1_545 S
Zn414  O806    1.938   1_545 S
Zn417  O156    1.938   1_655 S
Zn418  O803    1.938   .     S
Zn420  O145    1.938   1_655 S
Zn423  O814    1.938   .     S
Zn424  O809    1.938   1_545 S
C425   C445    1.418   .     S
C425   C449    1.196   1_554 S
C426   O617    1.278   .     A
C426   C504    1.418   .     S
C426   O570    1.278   .     S
C427   N549    1.157   .     T
C427   C485    1.453   .     S
C428   C486    1.453   .     S
C428   N550    1.157   .     T
C429   C487    1.453   .     S
C429   N551    1.157   .     T
C430   C488    1.453   .     S
C430   N552    1.157   .     T
C431   C489    1.453   .     S
C431   N553    1.157   .     T
C432   C490    1.453   .     S
C432   N554    1.157   .     T
C433   C491    1.453   .     S
C433   N555    1.157   .     T
C434   C492    1.453   .     S
C434   N556    1.157   .     T
C435   C494    1.453   .     S
C435   N557    1.157   .     T
C436   C495    1.453   .     S
C436   N558    1.157   .     T
C437   C493    1.418   .     S
C437   O571    1.278   .     S
C437   O618    1.278   .     S
C438   C496    1.453   .     S
C438   N560    1.157   .     T
C439   C497    1.453   .     S
C439   N561    1.157   .     T
C440   C498    1.453   .     S
C440   N562    1.157   .     T
C441   C482    1.418   .     S
C441   O572    1.278   .     A
C441   O619    1.278   .     A
C442   C471    1.418   .     S
C442   O573    1.278   .     A
C443   C460    1.418   .     S
C443   O578    1.278   .     S
C444   C449    1.418   .     S
C444   O575    1.278   .     A
C444   O791    1.278   1_455 S
C445   O788    1.278   1_455 A
C445   O581    1.278   .     S
C446   C506    1.460   .     S
C446   O582    1.275   .     A
C446   O615    1.275   .     A
C447   C507    1.460   .     S
C447   O583    1.275   .     A
C447   O616    1.275   .     A
C448   O612    1.275   .     A
C448   O584    1.275   .     A
C448   C499    1.460   .     S
C449   C425    1.196   1_556 S
C450   O614    1.275   .     A
C450   C500    1.460   .     S
C450   O585    1.275   .     A
C451   C501    1.460   .     S
C451   O586    1.275   .     A
C451   O610    1.275   .     A
C452   C502    1.460   .     S
C452   O611    1.275   .     A
C452   O587    1.275   .     A
C453   O608    1.275   .     A
C453   O588    1.275   .     A
C453   C503    1.460   .     S
C454   O609    1.275   .     A
C454   C505    1.460   .     S
C454   O589    1.275   .     A
C455   O606    1.275   .     A
C455   O590    1.275   .     A
C455   C514    1.460   .     S
C456   O607    1.275   .     A
C456   O592    1.275   .     A
C456   C516    1.460   .     S
C457   O593    1.275   .     A
C457   C508    1.460   .     S
C457   O604    1.275   .     A
C458   O605    1.275   .     A
C458   O594    1.275   .     A
C458   C509    1.460   .     S
C459   O601    1.275   .     A
C459   O595    1.275   .     A
C459   C510    1.460   .     S
C460   C471    1.196   1_554 S
C461   O603    1.275   .     A
C461   C511    1.460   .     S
C461   O596    1.275   .     A
C462   O597    1.275   .     A
C462   C512    1.460   .     S
C462   O599    1.275   .     A
C463   O598    1.275   .     A
C463   C513    1.460   .     S
C463   O600    1.275   .     A
C464   C517    1.453   .     S
C464   C476    1.401   .     A
C464   C511    1.411   .     A
C465   C510    1.411   .     A
C465   C518    1.453   .     S
C465   C475    1.401   .     A
C466   C519    1.453   .     S
C466   C509    1.411   .     A
C466   C474    1.401   .     A
C467   C508    1.411   .     A
C467   C473    1.401   .     A
C467   C520    1.453   .     S
C468   C521    1.453   .     S
C468   C480    1.401   .     A
C468   C516    1.411   .     A
C469   C514    1.411   .     A
C469   C522    1.453   .     S
C469   C479    1.401   .     A
C470   C523    1.453   .     S
C470   C513    1.411   .     A
C470   C478    1.401   .     A
C471   C460    1.196   1_556 S
C472   C512    1.411   .     A
C472   C477    1.401   .     A
C472   C524    1.453   .     S
C473   C525    1.453   .     S
C473   C502    1.411   .     A
C474   C527    1.453   .     S
C474   C501    1.411   .     A
C475   C500    1.411   .     A
C475   C528    1.453   .     S
C476   C499    1.411   .     A
C476   C529    1.453   .     S
C477   C530    1.453   .     S
C477   C507    1.411   .     A
C478   C531    1.453   .     S
C478   C506    1.411   .     A
C479   C505    1.411   .     A
C479   C532    1.453   .     S
C480   C503    1.411   .     A
C480   C533    1.453   .     S
C481   C500    1.411   .     A
C481   C494    1.401   .     A
C481   C534    1.453   .     S
C482   C493    1.196   .     T
C483   C535    1.453   .     S
C483   C492    1.401   .     A
C483   C499    1.411   .     A
C484   C491    1.401   .     A
C484   C536    1.453   .     S
C484   C502    1.411   .     A
C485   C501    1.411   .     A
C485   C490    1.401   .     A
C486   C498    1.401   .     A
C486   C505    1.411   .     A
C487   C503    1.411   .     A
C487   C497    1.401   .     A
C488   C507    1.411   .     A
C488   C496    1.401   .     A
C489   C506    1.411   .     A
C489   C495    1.401   .     A
C490   C509    1.411   .     A
C491   C508    1.411   .     A
C492   C511    1.411   .     A
C494   C510    1.411   .     A
C495   C513    1.411   .     A
C496   C512    1.411   .     A
C497   C516    1.411   .     A
C498   C514    1.411   .     A
C504   C515    1.196   .     S
C515   C526    1.418   .     S
C517   N537    1.157   .     T
C518   N548    1.157   .     T
C519   N559    1.157   .     T
C520   N563    1.157   .     T
C521   N564    1.157   .     T
C522   N565    1.157   .     T
C523   N566    1.157   .     T
C524   N567    1.157   .     T
C525   N568    1.157   .     T
C526   O613    1.278   .     S
C526   O620    1.278   .     S
C527   N538    1.157   .     T
C528   N539    1.157   .     T
C529   N540    1.157   .     T
C530   N541    1.157   .     T
C531   N542    1.157   .     T
C532   N543    1.157   .     T
C533   N544    1.157   .     T
C534   N545    1.157   .     T
C535   N546    1.157   .     T
C536   N547    1.157   .     T
O569   Zn844   1.938   1_455 S
O569   Zn621   1.938   .     S
O569   Zn624   1.938   .     S
O569   Zn628   1.938   .     S
O570   Zn627   1.918   .     S
O571   Zn622   1.918   .     S
O572   Zn636   1.918   .     S
O573   Zn631   1.918   .     S
O574   C19     1.278   1_565 A
O574   Zn630   1.918   .     S
O575   Zn633   1.918   .     S
O576   C657    1.278   .     A
O576   Zn632   1.918   .     S
O577   Zn635   1.918   .     S
O577   C18     1.278   1_565 S
O578   Zn634   1.918   .     S
O579   Zn629   1.918   .     S
O579   C656    1.278   .     S
O580   Zn633   1.938   .     S
O580   Zn623   1.938   .     S
O580   Zn627   1.938   .     S
O580   Zn841   1.938   1_455 S
O581   Zn621   1.918   .     S
O582   Zn628   1.938   .     S
O583   Zn839   1.938   .     S
O584   Zn198   1.939   1_565 S
O585   Zn636   1.939   .     S
O586   Zn836   1.938   .     S
O587   Zn623   1.938   .     S
O588   Zn626   1.939   .     S
O589   Zn201   1.939   1_565 S
O590   Zn627   1.939   .     S
O591   Zn626   1.938   .     S
O591   Zn634   1.938   .     S
O591   Zn622   1.938   .     S
O592   Zn840   1.939   .     S
O593   Zn625   1.938   .     S
O594   Zn202   1.938   1_565 S
O595   Zn835   1.939   .     S
O596   Zn624   1.939   .     S
O597   Zn212   1.938   1_565 S
O598   Zn622   1.938   .     S
O599   Zn635   1.938   .     S
O600   Zn634   1.938   .     S
O601   Zn629   1.939   .     S
O602   Zn631   1.938   .     S
O602   Zn636   1.938   .     S
O602   Zn625   1.938   .     S
O603   Zn621   1.939   .     S
O604   Zn631   1.938   .     S
O605   Zn630   1.938   .     S
O606   Zn633   1.939   .     S
O607   Zn632   1.939   .     S
O608   Zn634   1.939   .     S
O609   Zn635   1.939   .     S
O610   Zn632   1.938   .     S
O611   Zn633   1.938   .     S
O612   Zn630   1.939   .     S
O613   Zn624   1.918   .     S
O614   Zn631   1.939   .     S
O615   Zn621   1.938   .     S
O616   Zn629   1.938   .     S
O617   Zn623   1.918   .     S
O618   Zn626   1.918   .     S
O619   Zn625   1.918   .     S
O620   Zn628   1.918   .     S
Zn623  O807    1.939   1_455 S
Zn624  O798    1.938   1_455 S
Zn627  O795    1.938   1_455 S
Zn628  O804    1.939   1_455 S
Zn629  O792    1.938   .     S
Zn630  O167    1.938   1_565 S
Zn632  O781    1.938   .     S
Zn635  O178    1.938   1_565 S
C637   C657    1.418   .     S
C637   C661    1.196   1_554 S
C638   O829    1.278   .     A
C638   C716    1.418   .     S
C638   O782    1.278   .     S
C639   N761    1.157   .     T
C639   C697    1.453   .     S
C640   C698    1.453   .     S
C640   N762    1.157   .     T
C641   C699    1.453   .     S
C641   N763    1.157   .     T
C642   C700    1.453   .     S
C642   N764    1.157   .     T
C643   C701    1.453   .     S
C643   N765    1.157   .     T
C644   C702    1.453   .     S
C644   N766    1.157   .     T
C645   C703    1.453   .     S
C645   N767    1.157   .     T
C646   C704    1.453   .     S
C646   N768    1.157   .     T
C647   C706    1.453   .     S
C647   N769    1.157   .     T
C648   C707    1.453   .     S
C648   N770    1.157   .     T
C649   C705    1.418   .     S
C649   O783    1.278   .     S
C649   O830    1.278   .     S
C650   C708    1.453   .     S
C650   N772    1.157   .     T
C651   C709    1.453   .     S
C651   N773    1.157   .     T
C652   C710    1.453   .     S
C652   N774    1.157   .     T
C653   C694    1.418   .     S
C653   O784    1.278   .     A
C653   O831    1.278   .     A
C654   C683    1.418   .     S
C654   O785    1.278   .     A
C655   C672    1.418   .     S
C655   O790    1.278   .     S
C656   C661    1.418   .     S
C656   O787    1.278   .     A
C657   O793    1.278   .     S
C658   C718    1.460   .     S
C658   O794    1.275   .     A
C658   O827    1.275   .     A
C659   C719    1.460   .     S
C659   O795    1.275   .     A
C659   O828    1.275   .     A
C660   O824    1.275   .     A
C660   O796    1.275   .     A
C660   C711    1.460   .     S
C661   C637    1.196   1_556 S
C662   O826    1.275   .     A
C662   C712    1.460   .     S
C662   O797    1.275   .     A
C663   C713    1.460   .     S
C663   O798    1.275   .     A
C663   O822    1.275   .     A
C664   C714    1.460   .     S
C664   O823    1.275   .     A
C664   O799    1.275   .     A
C665   O820    1.275   .     A
C665   O800    1.275   .     A
C665   C715    1.460   .     S
C666   O821    1.275   .     A
C666   C717    1.460   .     S
C666   O801    1.275   .     A
C667   O818    1.275   .     A
C667   O802    1.275   .     A
C667   C726    1.460   .     S
C668   O819    1.275   .     A
C668   O804    1.275   .     A
C668   C728    1.460   .     S
C669   O805    1.275   .     A
C669   C720    1.460   .     S
C669   O816    1.275   .     A
C670   O817    1.275   .     A
C670   O806    1.275   .     A
C670   C721    1.460   .     S
C671   O813    1.275   .     A
C671   O807    1.275   .     A
C671   C722    1.460   .     S
C672   C683    1.196   1_554 S
C673   O815    1.275   .     A
C673   C723    1.460   .     S
C673   O808    1.275   .     A
C674   O809    1.275   .     A
C674   C724    1.460   .     S
C674   O811    1.275   .     A
C675   O810    1.275   .     A
C675   C725    1.460   .     S
C675   O812    1.275   .     A
C676   C729    1.453   .     S
C676   C688    1.401   .     A
C676   C723    1.411   .     A
C677   C722    1.411   .     A
C677   C730    1.453   .     S
C677   C687    1.401   .     A
C678   C731    1.453   .     S
C678   C721    1.411   .     A
C678   C686    1.401   .     A
C679   C720    1.411   .     A
C679   C685    1.401   .     A
C679   C732    1.453   .     S
C680   C733    1.453   .     S
C680   C692    1.401   .     A
C680   C728    1.411   .     A
C681   C726    1.411   .     A
C681   C734    1.453   .     S
C681   C691    1.401   .     A
C682   C735    1.453   .     S
C682   C725    1.411   .     A
C682   C690    1.401   .     A
C683   C672    1.196   1_556 S
C684   C724    1.411   .     A
C684   C689    1.401   .     A
C684   C736    1.453   .     S
C685   C737    1.453   .     S
C685   C714    1.411   .     A
C686   C739    1.453   .     S
C686   C713    1.411   .     A
C687   C712    1.411   .     A
C687   C740    1.453   .     S
C688   C711    1.411   .     A
C688   C741    1.453   .     S
C689   C742    1.453   .     S
C689   C719    1.411   .     A
C690   C743    1.453   .     S
C690   C718    1.411   .     A
C691   C717    1.411   .     A
C691   C744    1.453   .     S
C692   C715    1.411   .     A
C692   C745    1.453   .     S
C693   C712    1.411   .     A
C693   C706    1.401   .     A
C693   C746    1.453   .     S
C694   C705    1.196   .     T
C695   C747    1.453   .     S
C695   C704    1.401   .     A
C695   C711    1.411   .     A
C696   C703    1.401   .     A
C696   C748    1.453   .     S
C696   C714    1.411   .     A
C697   C713    1.411   .     A
C697   C702    1.401   .     A
C698   C710    1.401   .     A
C698   C717    1.411   .     A
C699   C715    1.411   .     A
C699   C709    1.401   .     A
C700   C719    1.411   .     A
C700   C708    1.401   .     A
C701   C718    1.411   .     A
C701   C707    1.401   .     A
C702   C721    1.411   .     A
C703   C720    1.411   .     A
C704   C723    1.411   .     A
C706   C722    1.411   .     A
C707   C725    1.411   .     A
C708   C724    1.411   .     A
C709   C728    1.411   .     A
C710   C726    1.411   .     A
C716   C727    1.196   .     S
C727   C738    1.418   .     S
C729   N749    1.157   .     T
C730   N760    1.157   .     T
C731   N771    1.157   .     T
C732   N775    1.157   .     T
C733   N776    1.157   .     T
C734   N777    1.157   .     T
C735   N778    1.157   .     T
C736   N779    1.157   .     T
C737   N780    1.157   .     T
C738   O825    1.278   .     S
C738   O832    1.278   .     S
C739   N750    1.157   .     T
C740   N751    1.157   .     T
C741   N752    1.157   .     T
C742   N753    1.157   .     T
C743   N754    1.157   .     T
C744   N755    1.157   .     T
C745   N756    1.157   .     T
C746   N757    1.157   .     T
C747   N758    1.157   .     T
C748   N759    1.157   .     T
O781   Zn833   1.938   .     S
O781   Zn836   1.938   .     S
O781   Zn840   1.938   .     S
O782   Zn839   1.918   .     S
O783   Zn834   1.918   .     S
O784   Zn848   1.918   .     S
O785   Zn843   1.918   .     S
O786   C231    1.278   1_565 A
O786   Zn842   1.918   .     S
O787   Zn845   1.918   .     S
O788   C445    1.278   1_655 A
O788   Zn844   1.918   .     S
O789   Zn847   1.918   .     S
O789   C230    1.278   1_565 S
O790   Zn846   1.918   .     S
O791   Zn841   1.918   .     S
O791   C444    1.278   1_655 S
O792   Zn845   1.938   .     S
O792   Zn835   1.938   .     S
O792   Zn839   1.938   .     S
O793   Zn833   1.918   .     S
O794   Zn840   1.938   .     S
O795   Zn627   1.938   1_655 S
O796   Zn410   1.939   1_565 S
O797   Zn848   1.939   .     S
O798   Zn624   1.938   1_655 S
O799   Zn835   1.938   .     S
O800   Zn838   1.939   .     S
O801   Zn413   1.939   1_565 S
O802   Zn839   1.939   .     S
O803   Zn838   1.938   .     S
O803   Zn846   1.938   .     S
O803   Zn834   1.938   .     S
O804   Zn628   1.939   1_655 S
O805   Zn837   1.938   .     S
O806   Zn414   1.938   1_565 S
O807   Zn623   1.939   1_655 S
O808   Zn836   1.939   .     S
O809   Zn424   1.938   1_565 S
O810   Zn834   1.938   .     S
O811   Zn847   1.938   .     S
O812   Zn846   1.938   .     S
O813   Zn841   1.939   .     S
O814   Zn843   1.938   .     S
O814   Zn848   1.938   .     S
O814   Zn837   1.938   .     S
O815   Zn833   1.939   .     S
O816   Zn843   1.938   .     S
O817   Zn842   1.938   .     S
O818   Zn845   1.939   .     S
O819   Zn844   1.939   .     S
O820   Zn846   1.939   .     S
O821   Zn847   1.939   .     S
O822   Zn844   1.938   .     S
O823   Zn845   1.938   .     S
O824   Zn842   1.939   .     S
O825   Zn836   1.918   .     S
O826   Zn843   1.939   .     S
O827   Zn833   1.938   .     S
O828   Zn841   1.938   .     S
O829   Zn835   1.918   .     S
O830   Zn838   1.918   .     S
O831   Zn837   1.918   .     S
O832   Zn840   1.918   .     S
Zn841  O580    1.938   1_655 S
Zn842  O379    1.938   1_565 S
Zn844  O569    1.938   1_655 S
Zn847  O390    1.938   1_565 S
