data_str_m1_o1_o17_pcu_sym.11
_audit_creation_date              2020-01-03
_audit_creation_method            'Materials Studio'
_symmetry_space_group_name_H-M    'P1'
_symmetry_Int_Tables_number       1
_symmetry_cell_setting            triclinic
loop_
_symmetry_equiv_pos_as_xyz
  x,y,z
_cell_length_a                    36.9924
_cell_length_b                    36.9986
_cell_length_c                    34.0447
_cell_angle_alpha                 89.9892
_cell_angle_beta                  90.0268
_cell_angle_gamma                 89.9316
loop_
_atom_site_label
_atom_site_type_symbol
_atom_site_fract_x
_atom_site_fract_y
_atom_site_fract_z
_atom_site_U_iso_or_equiv
_atom_site_adp_type
_atom_site_occupancy
Br1    Br    0.11881   0.44130   0.18177   0.00000  Uiso   1.00
Br2    Br    0.37104   0.43188   0.17230   0.00000  Uiso   1.00
Br3    Br    0.06049   0.37941   0.82043   0.00000  Uiso   1.00
Br4    Br    0.44992   0.11017   0.19473   0.00000  Uiso   1.00
Br5    Br    0.39094   0.45119   0.80280   0.00000  Uiso   1.00
Br6    Br    0.11556   0.05558   0.18637   0.00000  Uiso   1.00
Br7    Br    0.43853   0.12171   0.82245   0.00000  Uiso   1.00
Br8    Br    0.05848   0.38138   0.18180   0.00000  Uiso   1.00
Br9    Br    0.35926   0.20077   0.69680   0.00000  Uiso   1.00
Br10   Br    0.14383   0.29721   0.29669   0.00000  Uiso   1.00
Br11   Br    0.31329   0.37384   0.67597   0.00000  Uiso   1.00
Br12   Br    0.37920   0.06083   0.82149   0.00000  Uiso   1.00
Br13   Br    0.19640   0.13650   0.31029   0.00000  Uiso   1.00
Br14   Br    0.13967   0.30027   0.69503   0.00000  Uiso   1.00
Br15   Br    0.37806   0.18286   0.32747   0.00000  Uiso   1.00
Br16   Br    0.18566   0.12496   0.67474   0.00000  Uiso   1.00
Br17   Br    0.31270   0.37198   0.32147   0.00000  Uiso   1.00
Br18   Br    0.36372   0.30429   0.31115   0.00000  Uiso   1.00
Br19   Br    0.12701   0.18735   0.67673   0.00000  Uiso   1.00
Br20   Br    0.31099   0.12982   0.32024   0.00000  Uiso   1.00
Br21   Br    0.20018   0.35988   0.69586   0.00000  Uiso   1.00
Br22   Br    0.13911   0.19878   0.30585   0.00000  Uiso   1.00
Br23   Br    0.05504   0.11493   0.18728   0.00000  Uiso   1.00
Br24   Br    0.37348   0.31309   0.67627   0.00000  Uiso   1.00
Br25   Br    0.19140   0.36666   0.31594   0.00000  Uiso   1.00
Br26   Br    0.29964   0.14032   0.69603   0.00000  Uiso   1.00
Br27   Br    0.45181   0.39141   0.80168   0.00000  Uiso   1.00
Br28   Br    0.38910   0.05070   0.19376   0.00000  Uiso   1.00
Br29   Br    0.12041   0.43977   0.82017   0.00000  Uiso   1.00
Br30   Br    0.43849   0.37923   0.17926   0.00000  Uiso   1.00
Br31   Br    0.04855   0.10883   0.80230   0.00000  Uiso   1.00
Br32   Br    0.10813   0.04767   0.80074   0.00000  Uiso   1.00
C33    C     0.49553   0.28237   0.41757   0.00000  Uiso   1.00
C34    C     0.25606   0.46744   0.08271   0.00000  Uiso   1.00
C35    C     0.21650   0.00274   0.54139   0.00000  Uiso   1.00
C36    C     0.49543   0.28326   0.45868   0.00000  Uiso   1.00
C37    C     0.00457   0.21653   0.54134   0.00000  Uiso   1.00
C38    C     0.21630   0.00023   0.45869   0.00000  Uiso   1.00
C39    C     0.28369   0.49974   0.54129   0.00000  Uiso   1.00
C40    C     0.25383   0.46622   0.95871   0.00000  Uiso   1.00
C41    C     0.24835   0.03324   0.04108   0.00000  Uiso   1.00
C42    C     0.03282   0.24307   0.95857   0.00000  Uiso   1.00
C43    C     0.46690   0.25660   0.04112   0.00000  Uiso   1.00
C44    C     0.24627   0.03291   0.95872   0.00000  Uiso   1.00
C45    C     0.46817   0.25625   0.91761   0.00000  Uiso   1.00
C46    C     0.25650   0.46649   0.04133   0.00000  Uiso   1.00
C47    C     0.46671   0.25381   0.95864   0.00000  Uiso   1.00
C48    C     0.03320   0.24476   0.04132   0.00000  Uiso   1.00
C49    C     0.10008   0.34610   0.24638   0.00000  Uiso   1.00
C50    C     0.39937   0.15440   0.75397   0.00000  Uiso   1.00
C51    C     0.15244   0.09869   0.24902   0.00000  Uiso   1.00
C52    C     0.35110   0.40489   0.74556   0.00000  Uiso   1.00
C53    C     0.40518   0.14874   0.25429   0.00000  Uiso   1.00
C54    C     0.10024   0.34601   0.75326   0.00000  Uiso   1.00
C55    C     0.34684   0.40065   0.24847   0.00000  Uiso   1.00
C56    C     0.03186   0.24309   0.08227   0.00000  Uiso   1.00
C57    C     0.14864   0.09479   0.74510   0.00000  Uiso   1.00
C58    C     0.09515   0.14889   0.74552   0.00000  Uiso   1.00
C59    C     0.40041   0.34674   0.24797   0.00000  Uiso   1.00
C60    C     0.15403   0.39974   0.75333   0.00000  Uiso   1.00
C61    C     0.35055   0.09584   0.25333   0.00000  Uiso   1.00
C62    C     0.40492   0.35113   0.74546   0.00000  Uiso   1.00
C63    C     0.09896   0.15268   0.24859   0.00000  Uiso   1.00
C64    C     0.34577   0.10051   0.75376   0.00000  Uiso   1.00
C65    C     0.15246   0.40114   0.24864   0.00000  Uiso   1.00
C66    C     0.49917   0.24986   0.47935   0.00000  Uiso   1.00
C67    C     0.25447   0.46752   0.91737   0.00000  Uiso   1.00
C68    C     0.00033   0.24991   0.52051   0.00000  Uiso   1.00
C69    C     0.24995   0.49934   0.47944   0.00000  Uiso   1.00
C70    C     0.25004   0.00066   0.52055   0.00000  Uiso   1.00
C71    C     0.25065   0.49958   0.97923   0.00000  Uiso   1.00
C72    C     0.25173   0.49974   0.02052   0.00000  Uiso   1.00
C73    C     0.49979   0.24874   0.97960   0.00000  Uiso   1.00
C74    C     0.49994   0.24981   0.02051   0.00000  Uiso   1.00
C75    C     0.24618   0.03211   0.08211   0.00000  Uiso   1.00
C76    C     0.03204   0.24275   0.91769   0.00000  Uiso   1.00
C77    C     0.46820   0.25767   0.08240   0.00000  Uiso   1.00
C78    C     0.49983   0.25005   0.39777   0.00000  Uiso   1.00
C79    C     0.00019   0.24988   0.60211   0.00000  Uiso   1.00
C80    C     0.24998   0.49978   0.39785   0.00000  Uiso   1.00
C81    C     0.00442   0.21746   0.58245   0.00000  Uiso   1.00
C82    C     0.25002   0.00022   0.60215   0.00000  Uiso   1.00
C83    C     0.24994   0.49990   0.89770   0.00000  Uiso   1.00
C84    C     0.25036   0.49976   0.10205   0.00000  Uiso   1.00
C85    C     0.00016   0.24979   0.89775   0.00000  Uiso   1.00
C86    C     0.00002   0.25019   0.10213   0.00000  Uiso   1.00
C87    C     0.00428   0.18311   0.47948   0.00000  Uiso   1.00
C88    C     0.49575   0.31696   0.52038   0.00000  Uiso   1.00
C89    C     0.31711   0.49592   0.47883   0.00000  Uiso   1.00
C90    C     0.18288   0.00413   0.52115   0.00000  Uiso   1.00
C91    C     0.49275   0.31680   0.47886   0.00000  Uiso   1.00
C92    C     0.21740   0.00130   0.41756   0.00000  Uiso   1.00
C93    C     0.00846   0.18314   0.52072   0.00000  Uiso   1.00
C94    C     0.18279   0.00094   0.47972   0.00000  Uiso   1.00
C95    C     0.31721   0.49904   0.52028   0.00000  Uiso   1.00
C96    C     0.25758   0.43297   0.97956   0.00000  Uiso   1.00
C97    C     0.24642   0.06675   0.02040   0.00000  Uiso   1.00
C98    C     0.06623   0.23917   0.97872   0.00000  Uiso   1.00
C99    C     0.43364   0.26171   0.02050   0.00000  Uiso   1.00
C100   C     0.24375   0.06651   0.97890   0.00000  Uiso   1.00
C101   C     0.26136   0.43313   0.02114   0.00000  Uiso   1.00
C102   C     0.43344   0.25780   0.97913   0.00000  Uiso   1.00
C103   C     0.28260   0.49863   0.58243   0.00000  Uiso   1.00
C104   C     0.06657   0.24117   0.02018   0.00000  Uiso   1.00
C105   C     0.25001   0.49998   0.35564   0.00000  Uiso   1.00
C106   C     0.24999   0.00002   0.64436   0.00000  Uiso   1.00
C107   C    -0.00000   0.25005   0.35564   0.00000  Uiso   1.00
C108   C     0.00001   0.24995   0.64434   0.00000  Uiso   1.00
C109   C     0.00014   0.24999   0.85562   0.00000  Uiso   1.00
C110   C     0.00003   0.25002   0.14435   0.00000  Uiso   1.00
C111   C     0.25000   0.00004   0.85565   0.00000  Uiso   1.00
C112   C     0.25003   0.49996   0.14429   0.00000  Uiso   1.00
C113   C     0.18004   0.07018   0.24980   0.00000  Uiso   1.00
C114   C     0.00362   0.21768   0.41752   0.00000  Uiso   1.00
C115   C     0.32085   0.43069   0.74884   0.00000  Uiso   1.00
C116   C     0.43086   0.17904   0.25128   0.00000  Uiso   1.00
C117   C     0.07062   0.31954   0.75085   0.00000  Uiso   1.00
C118   C     0.31978   0.42967   0.24963   0.00000  Uiso   1.00
C119   C     0.17905   0.06918   0.74864   0.00000  Uiso   1.00
C120   C     0.07075   0.31936   0.24881   0.00000  Uiso   1.00
C121   C     0.42925   0.18059   0.75105   0.00000  Uiso   1.00
C122   C     0.18048   0.42936   0.75087   0.00000  Uiso   1.00
C123   C     0.32063   0.06961   0.25074   0.00000  Uiso   1.00
C124   C     0.43071   0.32087   0.74879   0.00000  Uiso   1.00
C125   C     0.49658   0.28231   0.58231   0.00000  Uiso   1.00
C126   C     0.07032   0.18017   0.24959   0.00000  Uiso   1.00
C127   C     0.31950   0.07068   0.75095   0.00000  Uiso   1.00
C128   C     0.17989   0.42988   0.24991   0.00000  Uiso   1.00
C129   C     0.06935   0.17917   0.74886   0.00000  Uiso   1.00
C130   C     0.42952   0.31969   0.24943   0.00000  Uiso   1.00
C131   C     0.12378   0.40287   0.22079   0.00000  Uiso   1.00
C132   C     0.37463   0.09875   0.78146   0.00000  Uiso   1.00
C133   C     0.09562   0.12227   0.22331   0.00000  Uiso   1.00
C134   C     0.40903   0.38229   0.76948   0.00000  Uiso   1.00
C135   C     0.38134   0.09200   0.22858   0.00000  Uiso   1.00
C136   C     0.28255   0.49774   0.41765   0.00000  Uiso   1.00
C137   C     0.12498   0.40172   0.78058   0.00000  Uiso   1.00
C138   C     0.40084   0.37447   0.21905   0.00000  Uiso   1.00
C139   C     0.09095   0.11762   0.76939   0.00000  Uiso   1.00
C140   C     0.11748   0.09070   0.76908   0.00000  Uiso   1.00
C141   C     0.37296   0.39991   0.21793   0.00000  Uiso   1.00
C142   C     0.09833   0.37501   0.78061   0.00000  Uiso   1.00
C143   C     0.40829   0.11843   0.22886   0.00000  Uiso   1.00
C144   C     0.38221   0.40890   0.76968   0.00000  Uiso   1.00
C145   C     0.12235   0.09566   0.22321   0.00000  Uiso   1.00
C146   C     0.40115   0.12558   0.78167   0.00000  Uiso   1.00
C147   C     0.21745   0.00234   0.58235   0.00000  Uiso   1.00
C148   C     0.09725   0.37604   0.22041   0.00000  Uiso   1.00
C149   C     0.36829   0.15837   0.72974   0.00000  Uiso   1.00
C150   C     0.13112   0.34225   0.27044   0.00000  Uiso   1.00
C151   C     0.34985   0.37661   0.71732   0.00000  Uiso   1.00
C152   C     0.15610   0.12941   0.27377   0.00000  Uiso   1.00
C153   C     0.13121   0.34213   0.72890   0.00000  Uiso   1.00
C154   C     0.37751   0.14948   0.28308   0.00000  Uiso   1.00
C155   C     0.14985   0.12304   0.71687   0.00000  Uiso   1.00
C156   C     0.34644   0.37300   0.27735   0.00000  Uiso   1.00
C157   C     0.37155   0.34494   0.27552   0.00000  Uiso   1.00
C158   C     0.24566   0.03212   0.91764   0.00000  Uiso   1.00
C159   C     0.12347   0.15012   0.71729   0.00000  Uiso   1.00
C160   C     0.34957   0.12413   0.28165   0.00000  Uiso   1.00
C161   C     0.15795   0.36871   0.72905   0.00000  Uiso   1.00
C162   C     0.12994   0.15652   0.27291   0.00000  Uiso   1.00
C163   C     0.37653   0.34984   0.71735   0.00000  Uiso   1.00
C164   C     0.15546   0.37078   0.27404   0.00000  Uiso   1.00
C165   C     0.34173   0.13161   0.72959   0.00000  Uiso   1.00
C166   C     0.00186   0.21646   0.45864   0.00000  Uiso   1.00
C167   C     0.49780   0.28346   0.54120   0.00000  Uiso   1.00
C168   C     0.28349   0.49730   0.45861   0.00000  Uiso   1.00
H169   H     0.49349   0.30645   0.39993   0.00000  Uiso   1.00
H170   H     0.25835   0.44366   0.10035   0.00000  Uiso   1.00
H171   H     0.44527   0.26398   0.89979   0.00000  Uiso   1.00
H172   H     0.05474   0.23566   0.10011   0.00000  Uiso   1.00
H173   H     0.25920   0.44434   0.89912   0.00000  Uiso   1.00
H174   H     0.24017   0.05549   0.10009   0.00000  Uiso   1.00
H175   H     0.05606   0.23838   0.90024   0.00000  Uiso   1.00
H176   H     0.44489   0.26253   0.10045   0.00000  Uiso   1.00
H177   H     0.49660   0.14949   0.43030   0.00000  Uiso   1.00
H178   H     0.48151   0.13389   0.47181   0.00000  Uiso   1.00
H179   H     0.00364   0.35057   0.56949   0.00000  Uiso   1.00
H180   H     0.00579   0.19361   0.60038   0.00000  Uiso   1.00
H181   H     0.01953   0.36586   0.52808   0.00000  Uiso   1.00
H182   H     0.35178   0.48095   0.43269   0.00000  Uiso   1.00
H183   H     0.37366   0.48828   0.47441   0.00000  Uiso   1.00
H184   H     0.14814   0.01868   0.56756   0.00000  Uiso   1.00
H185   H     0.12631   0.01199   0.52555   0.00000  Uiso   1.00
H186   H     0.47497   0.35071   0.43373   0.00000  Uiso   1.00
H187   H     0.48439   0.37310   0.47433   0.00000  Uiso   1.00
H188   H     0.02038   0.14924   0.56917   0.00000  Uiso   1.00
H189   H     0.00963   0.12699   0.52875   0.00000  Uiso   1.00
H190   H     0.14904   0.49302   0.43040   0.00000  Uiso   1.00
H191   H     0.19377   0.00454   0.39947   0.00000  Uiso   1.00
H192   H     0.13499   0.47509   0.47162   0.00000  Uiso   1.00
H193   H     0.35090   0.00708   0.56958   0.00000  Uiso   1.00
H194   H     0.36501   0.02489   0.52835   0.00000  Uiso   1.00
H195   H     0.25510   0.39832   0.92987   0.00000  Uiso   1.00
H196   H     0.23580   0.38349   0.97029   0.00000  Uiso   1.00
H197   H     0.25476   0.10003   0.06944   0.00000  Uiso   1.00
H198   H     0.27054   0.11540   0.02818   0.00000  Uiso   1.00
H199   H     0.09885   0.21584   0.93708   0.00000  Uiso   1.00
H200   H     0.12215   0.23086   0.97438   0.00000  Uiso   1.00
H201   H     0.39928   0.27061   0.06894   0.00000  Uiso   1.00
H202   H     0.30622   0.49530   0.60050   0.00000  Uiso   1.00
H203   H     0.37758   0.26459   0.02780   0.00000  Uiso   1.00
H204   H     0.22249   0.10032   0.93591   0.00000  Uiso   1.00
H205   H     0.23818   0.12326   0.97425   0.00000  Uiso   1.00
H206   H     0.27466   0.39911   0.06966   0.00000  Uiso   1.00
H207   H     0.26542   0.37655   0.02813   0.00000  Uiso   1.00
H208   H     0.39997   0.25091   0.93010   0.00000  Uiso   1.00
H209   H     0.38308   0.23755   0.97139   0.00000  Uiso   1.00
H210   H     0.10023   0.24710   0.06972   0.00000  Uiso   1.00
H211   H     0.11643   0.26274   0.02870   0.00000  Uiso   1.00
H212   H     0.00897   0.19432   0.39963   0.00000  Uiso   1.00
H213   H     0.49166   0.30574   0.60038   0.00000  Uiso   1.00
H214   H     0.30668   0.49757   0.39986   0.00000  Uiso   1.00
H215   H     0.19334   0.00257   0.60018   0.00000  Uiso   1.00
H216   H     0.24291   0.05634   0.90033   0.00000  Uiso   1.00
N217   N     0.00323   0.14824   0.46001   0.00000  Uiso   1.00
N218   N     0.24839   0.10148   0.03975   0.00000  Uiso   1.00
N219   N     0.09980   0.23718   0.95680   0.00000  Uiso   1.00
N220   N     0.40125   0.27591   0.03930   0.00000  Uiso   1.00
N221   N     0.24330   0.10025   0.95675   0.00000  Uiso   1.00
N222   N     0.27627   0.40065   0.03922   0.00000  Uiso   1.00
N223   N     0.39874   0.25835   0.95948   0.00000  Uiso   1.00
N224   N     0.10142   0.24115   0.03998   0.00000  Uiso   1.00
N225   N     0.49755   0.35175   0.53974   0.00000  Uiso   1.00
N226   N     0.35152   0.49672   0.45788   0.00000  Uiso   1.00
N227   N     0.14841   0.00340   0.54200   0.00000  Uiso   1.00
N228   N     0.49258   0.35096   0.45741   0.00000  Uiso   1.00
N229   N     0.02238   0.15042   0.53886   0.00000  Uiso   1.00
N230   N     0.14801   0.49792   0.46038   0.00000  Uiso   1.00
N231   N     0.35198   0.00208   0.53963   0.00000  Uiso   1.00
N232   N     0.25836   0.39786   0.96054   0.00000  Uiso   1.00
O233   O     0.25000   0.00000   0.25000   0.00000  Uiso   1.00
O234   O     0.25000   0.46964   0.66245   0.00000  Uiso   1.00
O235   O     0.46963   0.25000   0.33755   0.00000  Uiso   1.00
O236   O     0.03036   0.25000   0.66245   0.00000  Uiso   1.00
O237   O    -0.00000   0.21963   0.83755   0.00000  Uiso   1.00
O238   O    -0.00000   0.28036   0.16245   0.00000  Uiso   1.00
O239   O     0.28036   0.00000   0.83755   0.00000  Uiso   1.00
O240   O     0.21963   0.00000   0.16245   0.00000  Uiso   1.00
O241   O    -0.00000   0.28036   0.83755   0.00000  Uiso   1.00
O242   O     0.00000   0.21964   0.16245   0.00000  Uiso   1.00
O243   O     0.21963   0.00000   0.83755   0.00000  Uiso   1.00
O244   O     0.25000  -0.00000   0.75000   0.00000  Uiso   1.00
O245   O     0.28036   0.00000   0.16245   0.00000  Uiso   1.00
O246   O     0.20724   0.07307   0.27302   0.00000  Uiso   1.00
O247   O     0.29275   0.42693   0.72698   0.00000  Uiso   1.00
O248   O     0.42692   0.20724   0.27302   0.00000  Uiso   1.00
O249   O     0.07307   0.29276   0.72698   0.00000  Uiso   1.00
O250   O     0.29275   0.42693   0.27302   0.00000  Uiso   1.00
O251   O     0.20724   0.07307   0.72698   0.00000  Uiso   1.00
O252   O     0.07307   0.29276   0.27302   0.00000  Uiso   1.00
O253   O     0.42692   0.20724   0.72698   0.00000  Uiso   1.00
O254   O     0.20724   0.42693   0.72698   0.00000  Uiso   1.00
O255   O     0.00000   0.25000   0.25000   0.00000  Uiso   1.00
O256   O     0.29275   0.07307   0.27302   0.00000  Uiso   1.00
O257   O     0.42692   0.29275   0.72698   0.00000  Uiso   1.00
O258   O     0.07307   0.20725   0.27302   0.00000  Uiso   1.00
O259   O     0.29275   0.07307   0.72698   0.00000  Uiso   1.00
O260   O     0.20724   0.42693   0.27302   0.00000  Uiso   1.00
O261   O     0.07307   0.20725   0.72698   0.00000  Uiso   1.00
O262   O     0.42692   0.29275   0.27302   0.00000  Uiso   1.00
O263   O     0.45724   0.32307   0.77302   0.00000  Uiso   1.00
O264   O     0.04275   0.17693   0.22698   0.00000  Uiso   1.00
O265   O     0.17692   0.45725   0.77302   0.00000  Uiso   1.00
O266   O     0.00000   0.25000   0.75000   0.00000  Uiso   1.00
O267   O     0.32307   0.04275   0.22698   0.00000  Uiso   1.00
O268   O     0.04275   0.17693   0.77302   0.00000  Uiso   1.00
O269   O     0.45724   0.32307   0.22698   0.00000  Uiso   1.00
O270   O     0.32307   0.04275   0.77302   0.00000  Uiso   1.00
O271   O     0.17692   0.45725   0.22698   0.00000  Uiso   1.00
O272   O     0.45724   0.17692   0.22698   0.00000  Uiso   1.00
O273   O     0.04275   0.32308   0.77302   0.00000  Uiso   1.00
O274   O     0.17692   0.04275   0.22698   0.00000  Uiso   1.00
O275   O     0.32307   0.45725   0.77302   0.00000  Uiso   1.00
O276   O     0.04275   0.32308   0.22698   0.00000  Uiso   1.00
O277   O     0.25000   0.46964   0.33755   0.00000  Uiso   1.00
O278   O     0.45724   0.17692   0.77302   0.00000  Uiso   1.00
O279   O     0.32307   0.45725   0.22698   0.00000  Uiso   1.00
O280   O     0.17692   0.04275   0.77302   0.00000  Uiso   1.00
O281   O     0.25000   0.03036   0.66245   0.00000  Uiso   1.00
O282   O     0.03036   0.25000   0.33755   0.00000  Uiso   1.00
O283   O     0.46963   0.25000   0.66245   0.00000  Uiso   1.00
O284   O     0.25000   0.03036   0.33755   0.00000  Uiso   1.00
Zn285  Zn    0.20659  -0.00000   0.21735   0.00000  Uiso   1.00
Zn286  Zn    0.04340   0.25000   0.28265   0.00000  Uiso   1.00
Zn287  Zn    0.25000   0.45660   0.71735   0.00000  Uiso   1.00
Zn288  Zn    0.25000   0.04340   0.28265   0.00000  Uiso   1.00
Zn289  Zn    0.04340   0.25000   0.71735   0.00000  Uiso   1.00
Zn290  Zn    0.45659   0.25000   0.28265   0.00000  Uiso   1.00
Zn291  Zn    0.25000   0.04340   0.71735   0.00000  Uiso   1.00
Zn292  Zn    0.25000   0.45660   0.28265   0.00000  Uiso   1.00
Zn293  Zn    0.29340   0.00000   0.78265   0.00000  Uiso   1.00
Zn294  Zn    0.00000   0.20660   0.21735   0.00000  Uiso   1.00
Zn295  Zn    0.00000   0.29341   0.78265   0.00000  Uiso   1.00
Zn296  Zn    0.29340  -0.00000   0.21735   0.00000  Uiso   1.00
Zn297  Zn    0.20659   0.00000   0.78265   0.00000  Uiso   1.00
Zn298  Zn    0.00000   0.29341   0.21735   0.00000  Uiso   1.00
Zn299  Zn    0.00000   0.20660   0.78265   0.00000  Uiso   1.00
Zn300  Zn    0.45659   0.25000   0.71735   0.00000  Uiso   1.00
Br301  Br    0.61881   0.44130   0.18177   0.00000  Uiso   1.00
Br302  Br    0.87104   0.43188   0.17230   0.00000  Uiso   1.00
Br303  Br    0.56049   0.37941   0.82043   0.00000  Uiso   1.00
Br304  Br    0.94992   0.11017   0.19473   0.00000  Uiso   1.00
Br305  Br    0.89094   0.45119   0.80280   0.00000  Uiso   1.00
Br306  Br    0.61556   0.05558   0.18637   0.00000  Uiso   1.00
Br307  Br    0.93853   0.12171   0.82245   0.00000  Uiso   1.00
Br308  Br    0.55848   0.38138   0.18180   0.00000  Uiso   1.00
Br309  Br    0.85926   0.20077   0.69680   0.00000  Uiso   1.00
Br310  Br    0.64383   0.29721   0.29669   0.00000  Uiso   1.00
Br311  Br    0.81329   0.37384   0.67597   0.00000  Uiso   1.00
Br312  Br    0.87920   0.06083   0.82149   0.00000  Uiso   1.00
Br313  Br    0.69640   0.13650   0.31029   0.00000  Uiso   1.00
Br314  Br    0.63967   0.30027   0.69503   0.00000  Uiso   1.00
Br315  Br    0.87806   0.18286   0.32747   0.00000  Uiso   1.00
Br316  Br    0.68566   0.12496   0.67474   0.00000  Uiso   1.00
Br317  Br    0.81270   0.37198   0.32147   0.00000  Uiso   1.00
Br318  Br    0.86372   0.30429   0.31115   0.00000  Uiso   1.00
Br319  Br    0.62701   0.18735   0.67673   0.00000  Uiso   1.00
Br320  Br    0.81099   0.12982   0.32024   0.00000  Uiso   1.00
Br321  Br    0.70018   0.35988   0.69586   0.00000  Uiso   1.00
Br322  Br    0.63911   0.19878   0.30585   0.00000  Uiso   1.00
Br323  Br    0.55504   0.11493   0.18728   0.00000  Uiso   1.00
Br324  Br    0.87348   0.31309   0.67627   0.00000  Uiso   1.00
Br325  Br    0.69140   0.36666   0.31594   0.00000  Uiso   1.00
Br326  Br    0.79964   0.14032   0.69603   0.00000  Uiso   1.00
Br327  Br    0.95181   0.39141   0.80168   0.00000  Uiso   1.00
Br328  Br    0.88910   0.05070   0.19376   0.00000  Uiso   1.00
Br329  Br    0.62041   0.43977   0.82017   0.00000  Uiso   1.00
Br330  Br    0.93849   0.37923   0.17926   0.00000  Uiso   1.00
Br331  Br    0.54855   0.10883   0.80230   0.00000  Uiso   1.00
Br332  Br    0.60813   0.04767   0.80074   0.00000  Uiso   1.00
C333   C     0.99553   0.28237   0.41757   0.00000  Uiso   1.00
C334   C     0.75606   0.46744   0.08271   0.00000  Uiso   1.00
C335   C     0.71650   0.00274   0.54139   0.00000  Uiso   1.00
C336   C     0.99543   0.28326   0.45868   0.00000  Uiso   1.00
C337   C     0.50457   0.21653   0.54134   0.00000  Uiso   1.00
C338   C     0.71630   0.00023   0.45869   0.00000  Uiso   1.00
C339   C     0.78369   0.49974   0.54129   0.00000  Uiso   1.00
C340   C     0.75383   0.46622   0.95871   0.00000  Uiso   1.00
C341   C     0.74835   0.03324   0.04108   0.00000  Uiso   1.00
C342   C     0.53282   0.24307   0.95857   0.00000  Uiso   1.00
C343   C     0.96690   0.25660   0.04112   0.00000  Uiso   1.00
C344   C     0.74627   0.03291   0.95872   0.00000  Uiso   1.00
C345   C     0.96817   0.25625   0.91761   0.00000  Uiso   1.00
C346   C     0.75650   0.46649   0.04133   0.00000  Uiso   1.00
C347   C     0.96671   0.25381   0.95864   0.00000  Uiso   1.00
C348   C     0.53320   0.24476   0.04132   0.00000  Uiso   1.00
C349   C     0.60008   0.34610   0.24638   0.00000  Uiso   1.00
C350   C     0.89937   0.15440   0.75397   0.00000  Uiso   1.00
C351   C     0.65244   0.09869   0.24902   0.00000  Uiso   1.00
C352   C     0.85110   0.40489   0.74556   0.00000  Uiso   1.00
C353   C     0.90518   0.14874   0.25429   0.00000  Uiso   1.00
C354   C     0.60024   0.34601   0.75326   0.00000  Uiso   1.00
C355   C     0.84684   0.40065   0.24847   0.00000  Uiso   1.00
C356   C     0.53186   0.24309   0.08227   0.00000  Uiso   1.00
C357   C     0.64864   0.09479   0.74510   0.00000  Uiso   1.00
C358   C     0.59515   0.14889   0.74552   0.00000  Uiso   1.00
C359   C     0.90041   0.34674   0.24797   0.00000  Uiso   1.00
C360   C     0.65403   0.39974   0.75333   0.00000  Uiso   1.00
C361   C     0.85055   0.09584   0.25333   0.00000  Uiso   1.00
C362   C     0.90492   0.35113   0.74546   0.00000  Uiso   1.00
C363   C     0.59896   0.15268   0.24859   0.00000  Uiso   1.00
C364   C     0.84577   0.10051   0.75376   0.00000  Uiso   1.00
C365   C     0.65246   0.40114   0.24864   0.00000  Uiso   1.00
C366   C     0.99917   0.24986   0.47935   0.00000  Uiso   1.00
C367   C     0.75447   0.46752   0.91737   0.00000  Uiso   1.00
C368   C     0.50033   0.24991   0.52051   0.00000  Uiso   1.00
C369   C     0.74995   0.49934   0.47944   0.00000  Uiso   1.00
C370   C     0.75004   0.00066   0.52055   0.00000  Uiso   1.00
C371   C     0.75065   0.49958   0.97923   0.00000  Uiso   1.00
C372   C     0.75173   0.49974   0.02052   0.00000  Uiso   1.00
C373   C     0.99979   0.24874   0.97960   0.00000  Uiso   1.00
C374   C     0.99994   0.24981   0.02051   0.00000  Uiso   1.00
C375   C     0.74618   0.03211   0.08211   0.00000  Uiso   1.00
C376   C     0.53204   0.24275   0.91769   0.00000  Uiso   1.00
C377   C     0.96820   0.25767   0.08240   0.00000  Uiso   1.00
C378   C     0.99983   0.25005   0.39777   0.00000  Uiso   1.00
C379   C     0.50019   0.24988   0.60211   0.00000  Uiso   1.00
C380   C     0.74998   0.49978   0.39785   0.00000  Uiso   1.00
C381   C     0.50442   0.21746   0.58245   0.00000  Uiso   1.00
C382   C     0.75002   0.00022   0.60215   0.00000  Uiso   1.00
C383   C     0.74994   0.49990   0.89770   0.00000  Uiso   1.00
C384   C     0.75036   0.49976   0.10205   0.00000  Uiso   1.00
C385   C     0.50016   0.24979   0.89775   0.00000  Uiso   1.00
C386   C     0.50002   0.25019   0.10213   0.00000  Uiso   1.00
C387   C     0.50428   0.18311   0.47948   0.00000  Uiso   1.00
C388   C     0.99575   0.31696   0.52038   0.00000  Uiso   1.00
C389   C     0.81711   0.49592   0.47883   0.00000  Uiso   1.00
C390   C     0.68288   0.00413   0.52115   0.00000  Uiso   1.00
C391   C     0.99275   0.31680   0.47886   0.00000  Uiso   1.00
C392   C     0.71740   0.00130   0.41756   0.00000  Uiso   1.00
C393   C     0.50846   0.18314   0.52072   0.00000  Uiso   1.00
C394   C     0.68279   0.00094   0.47972   0.00000  Uiso   1.00
C395   C     0.81721   0.49904   0.52028   0.00000  Uiso   1.00
C396   C     0.75758   0.43297   0.97956   0.00000  Uiso   1.00
C397   C     0.74642   0.06675   0.02040   0.00000  Uiso   1.00
C398   C     0.56623   0.23917   0.97872   0.00000  Uiso   1.00
C399   C     0.93364   0.26171   0.02050   0.00000  Uiso   1.00
C400   C     0.74375   0.06651   0.97890   0.00000  Uiso   1.00
C401   C     0.76136   0.43313   0.02114   0.00000  Uiso   1.00
C402   C     0.93344   0.25780   0.97913   0.00000  Uiso   1.00
C403   C     0.78260   0.49863   0.58243   0.00000  Uiso   1.00
C404   C     0.56657   0.24117   0.02018   0.00000  Uiso   1.00
C405   C     0.75001   0.49998   0.35564   0.00000  Uiso   1.00
C406   C     0.74999   0.00002   0.64436   0.00000  Uiso   1.00
C407   C     0.50000   0.25005   0.35564   0.00000  Uiso   1.00
C408   C     0.50001   0.24995   0.64434   0.00000  Uiso   1.00
C409   C     0.50014   0.24999   0.85562   0.00000  Uiso   1.00
C410   C     0.50003   0.25002   0.14435   0.00000  Uiso   1.00
C411   C     0.75000   0.00004   0.85565   0.00000  Uiso   1.00
C412   C     0.75003   0.49996   0.14429   0.00000  Uiso   1.00
C413   C     0.68004   0.07018   0.24980   0.00000  Uiso   1.00
C414   C     0.50362   0.21768   0.41752   0.00000  Uiso   1.00
C415   C     0.82085   0.43069   0.74884   0.00000  Uiso   1.00
C416   C     0.93086   0.17904   0.25128   0.00000  Uiso   1.00
C417   C     0.57062   0.31954   0.75085   0.00000  Uiso   1.00
C418   C     0.81978   0.42967   0.24963   0.00000  Uiso   1.00
C419   C     0.67905   0.06918   0.74864   0.00000  Uiso   1.00
C420   C     0.57075   0.31936   0.24881   0.00000  Uiso   1.00
C421   C     0.92925   0.18059   0.75105   0.00000  Uiso   1.00
C422   C     0.68048   0.42936   0.75087   0.00000  Uiso   1.00
C423   C     0.82063   0.06961   0.25074   0.00000  Uiso   1.00
C424   C     0.93071   0.32087   0.74879   0.00000  Uiso   1.00
C425   C     0.99658   0.28231   0.58231   0.00000  Uiso   1.00
C426   C     0.57032   0.18017   0.24959   0.00000  Uiso   1.00
C427   C     0.81950   0.07068   0.75095   0.00000  Uiso   1.00
C428   C     0.67989   0.42988   0.24991   0.00000  Uiso   1.00
C429   C     0.56935   0.17917   0.74886   0.00000  Uiso   1.00
C430   C     0.92952   0.31969   0.24943   0.00000  Uiso   1.00
C431   C     0.62378   0.40287   0.22079   0.00000  Uiso   1.00
C432   C     0.87463   0.09875   0.78146   0.00000  Uiso   1.00
C433   C     0.59562   0.12227   0.22331   0.00000  Uiso   1.00
C434   C     0.90903   0.38229   0.76948   0.00000  Uiso   1.00
C435   C     0.88134   0.09200   0.22858   0.00000  Uiso   1.00
C436   C     0.78255   0.49774   0.41765   0.00000  Uiso   1.00
C437   C     0.62498   0.40172   0.78058   0.00000  Uiso   1.00
C438   C     0.90084   0.37447   0.21905   0.00000  Uiso   1.00
C439   C     0.59095   0.11762   0.76939   0.00000  Uiso   1.00
C440   C     0.61748   0.09070   0.76908   0.00000  Uiso   1.00
C441   C     0.87296   0.39991   0.21793   0.00000  Uiso   1.00
C442   C     0.59833   0.37501   0.78061   0.00000  Uiso   1.00
C443   C     0.90829   0.11843   0.22886   0.00000  Uiso   1.00
C444   C     0.88221   0.40890   0.76968   0.00000  Uiso   1.00
C445   C     0.62235   0.09566   0.22321   0.00000  Uiso   1.00
C446   C     0.90115   0.12558   0.78167   0.00000  Uiso   1.00
C447   C     0.71745   0.00234   0.58235   0.00000  Uiso   1.00
C448   C     0.59725   0.37604   0.22041   0.00000  Uiso   1.00
C449   C     0.86829   0.15837   0.72974   0.00000  Uiso   1.00
C450   C     0.63112   0.34225   0.27044   0.00000  Uiso   1.00
C451   C     0.84985   0.37661   0.71732   0.00000  Uiso   1.00
C452   C     0.65610   0.12941   0.27377   0.00000  Uiso   1.00
C453   C     0.63121   0.34213   0.72890   0.00000  Uiso   1.00
C454   C     0.87751   0.14948   0.28308   0.00000  Uiso   1.00
C455   C     0.64985   0.12304   0.71687   0.00000  Uiso   1.00
C456   C     0.84644   0.37300   0.27735   0.00000  Uiso   1.00
C457   C     0.87155   0.34494   0.27552   0.00000  Uiso   1.00
C458   C     0.74566   0.03212   0.91764   0.00000  Uiso   1.00
C459   C     0.62347   0.15012   0.71729   0.00000  Uiso   1.00
C460   C     0.84957   0.12413   0.28165   0.00000  Uiso   1.00
C461   C     0.65795   0.36871   0.72905   0.00000  Uiso   1.00
C462   C     0.62994   0.15652   0.27291   0.00000  Uiso   1.00
C463   C     0.87653   0.34984   0.71735   0.00000  Uiso   1.00
C464   C     0.65546   0.37078   0.27404   0.00000  Uiso   1.00
C465   C     0.84173   0.13161   0.72959   0.00000  Uiso   1.00
C466   C     0.50186   0.21646   0.45864   0.00000  Uiso   1.00
C467   C     0.99780   0.28346   0.54120   0.00000  Uiso   1.00
C468   C     0.78349   0.49730   0.45861   0.00000  Uiso   1.00
H469   H     0.99349   0.30645   0.39993   0.00000  Uiso   1.00
H470   H     0.75835   0.44366   0.10035   0.00000  Uiso   1.00
H471   H     0.94527   0.26398   0.89979   0.00000  Uiso   1.00
H472   H     0.55474   0.23566   0.10011   0.00000  Uiso   1.00
H473   H     0.75920   0.44434   0.89912   0.00000  Uiso   1.00
H474   H     0.74017   0.05549   0.10009   0.00000  Uiso   1.00
H475   H     0.55606   0.23838   0.90024   0.00000  Uiso   1.00
H476   H     0.94489   0.26253   0.10045   0.00000  Uiso   1.00
H477   H     0.99660   0.14949   0.43030   0.00000  Uiso   1.00
H478   H     0.98151   0.13389   0.47181   0.00000  Uiso   1.00
H479   H     0.50364   0.35057   0.56949   0.00000  Uiso   1.00
H480   H     0.50579   0.19361   0.60038   0.00000  Uiso   1.00
H481   H     0.51953   0.36586   0.52808   0.00000  Uiso   1.00
H482   H     0.85178   0.48095   0.43269   0.00000  Uiso   1.00
H483   H     0.87366   0.48828   0.47441   0.00000  Uiso   1.00
H484   H     0.64814   0.01868   0.56756   0.00000  Uiso   1.00
H485   H     0.62631   0.01199   0.52555   0.00000  Uiso   1.00
H486   H     0.97497   0.35071   0.43373   0.00000  Uiso   1.00
H487   H     0.98439   0.37310   0.47433   0.00000  Uiso   1.00
H488   H     0.52038   0.14924   0.56917   0.00000  Uiso   1.00
H489   H     0.50963   0.12699   0.52875   0.00000  Uiso   1.00
H490   H     0.64904   0.49302   0.43040   0.00000  Uiso   1.00
H491   H     0.69377   0.00454   0.39947   0.00000  Uiso   1.00
H492   H     0.63499   0.47509   0.47162   0.00000  Uiso   1.00
H493   H     0.85090   0.00708   0.56958   0.00000  Uiso   1.00
H494   H     0.86501   0.02489   0.52835   0.00000  Uiso   1.00
H495   H     0.75510   0.39832   0.92987   0.00000  Uiso   1.00
H496   H     0.73580   0.38349   0.97029   0.00000  Uiso   1.00
H497   H     0.75476   0.10003   0.06944   0.00000  Uiso   1.00
H498   H     0.77054   0.11540   0.02818   0.00000  Uiso   1.00
H499   H     0.59885   0.21584   0.93708   0.00000  Uiso   1.00
H500   H     0.62215   0.23086   0.97438   0.00000  Uiso   1.00
H501   H     0.89928   0.27061   0.06894   0.00000  Uiso   1.00
H502   H     0.80622   0.49530   0.60050   0.00000  Uiso   1.00
H503   H     0.87758   0.26459   0.02780   0.00000  Uiso   1.00
H504   H     0.72249   0.10032   0.93591   0.00000  Uiso   1.00
H505   H     0.73818   0.12326   0.97425   0.00000  Uiso   1.00
H506   H     0.77466   0.39911   0.06966   0.00000  Uiso   1.00
H507   H     0.76542   0.37655   0.02813   0.00000  Uiso   1.00
H508   H     0.89997   0.25091   0.93010   0.00000  Uiso   1.00
H509   H     0.88308   0.23755   0.97139   0.00000  Uiso   1.00
H510   H     0.60023   0.24710   0.06972   0.00000  Uiso   1.00
H511   H     0.61643   0.26274   0.02870   0.00000  Uiso   1.00
H512   H     0.50897   0.19432   0.39963   0.00000  Uiso   1.00
H513   H     0.99166   0.30574   0.60038   0.00000  Uiso   1.00
H514   H     0.80668   0.49757   0.39986   0.00000  Uiso   1.00
H515   H     0.69334   0.00257   0.60018   0.00000  Uiso   1.00
H516   H     0.74291   0.05634   0.90033   0.00000  Uiso   1.00
N517   N     0.50323   0.14824   0.46001   0.00000  Uiso   1.00
N518   N     0.74839   0.10148   0.03975   0.00000  Uiso   1.00
N519   N     0.59980   0.23718   0.95680   0.00000  Uiso   1.00
N520   N     0.90125   0.27591   0.03930   0.00000  Uiso   1.00
N521   N     0.74330   0.10025   0.95675   0.00000  Uiso   1.00
N522   N     0.77627   0.40065   0.03922   0.00000  Uiso   1.00
N523   N     0.89874   0.25835   0.95948   0.00000  Uiso   1.00
N524   N     0.60142   0.24115   0.03998   0.00000  Uiso   1.00
N525   N     0.99755   0.35175   0.53974   0.00000  Uiso   1.00
N526   N     0.85152   0.49672   0.45788   0.00000  Uiso   1.00
N527   N     0.64841   0.00340   0.54200   0.00000  Uiso   1.00
N528   N     0.99258   0.35096   0.45741   0.00000  Uiso   1.00
N529   N     0.52238   0.15042   0.53886   0.00000  Uiso   1.00
N530   N     0.64801   0.49792   0.46038   0.00000  Uiso   1.00
N531   N     0.85198   0.00208   0.53963   0.00000  Uiso   1.00
N532   N     0.75836   0.39786   0.96054   0.00000  Uiso   1.00
O533   O     0.75000   0.00000   0.25000   0.00000  Uiso   1.00
O534   O     0.75000   0.46964   0.66245   0.00000  Uiso   1.00
O535   O     0.96963   0.25000   0.33755   0.00000  Uiso   1.00
O536   O     0.53036   0.25000   0.66245   0.00000  Uiso   1.00
O537   O     0.50000   0.21963   0.83755   0.00000  Uiso   1.00
O538   O     0.50000   0.28036   0.16245   0.00000  Uiso   1.00
O539   O     0.78036   0.00000   0.83755   0.00000  Uiso   1.00
O540   O     0.71963   0.00000   0.16245   0.00000  Uiso   1.00
O541   O     0.50000   0.28036   0.83755   0.00000  Uiso   1.00
O542   O     0.50000   0.21964   0.16245   0.00000  Uiso   1.00
O543   O     0.71963   0.00000   0.83755   0.00000  Uiso   1.00
O544   O     0.75000  -0.00000   0.75000   0.00000  Uiso   1.00
O545   O     0.78036   0.00000   0.16245   0.00000  Uiso   1.00
O546   O     0.70724   0.07307   0.27302   0.00000  Uiso   1.00
O547   O     0.79275   0.42693   0.72698   0.00000  Uiso   1.00
O548   O     0.92692   0.20724   0.27302   0.00000  Uiso   1.00
O549   O     0.57307   0.29276   0.72698   0.00000  Uiso   1.00
O550   O     0.79275   0.42693   0.27302   0.00000  Uiso   1.00
O551   O     0.70724   0.07307   0.72698   0.00000  Uiso   1.00
O552   O     0.57307   0.29276   0.27302   0.00000  Uiso   1.00
O553   O     0.92692   0.20724   0.72698   0.00000  Uiso   1.00
O554   O     0.70724   0.42693   0.72698   0.00000  Uiso   1.00
O555   O     0.50000   0.25000   0.25000   0.00000  Uiso   1.00
O556   O     0.79275   0.07307   0.27302   0.00000  Uiso   1.00
O557   O     0.92692   0.29275   0.72698   0.00000  Uiso   1.00
O558   O     0.57307   0.20725   0.27302   0.00000  Uiso   1.00
O559   O     0.79275   0.07307   0.72698   0.00000  Uiso   1.00
O560   O     0.70724   0.42693   0.27302   0.00000  Uiso   1.00
O561   O     0.57307   0.20725   0.72698   0.00000  Uiso   1.00
O562   O     0.92692   0.29275   0.27302   0.00000  Uiso   1.00
O563   O     0.95724   0.32307   0.77302   0.00000  Uiso   1.00
O564   O     0.54275   0.17693   0.22698   0.00000  Uiso   1.00
O565   O     0.67692   0.45725   0.77302   0.00000  Uiso   1.00
O566   O     0.50000   0.25000   0.75000   0.00000  Uiso   1.00
O567   O     0.82307   0.04275   0.22698   0.00000  Uiso   1.00
O568   O     0.54275   0.17693   0.77302   0.00000  Uiso   1.00
O569   O     0.95724   0.32307   0.22698   0.00000  Uiso   1.00
O570   O     0.82307   0.04275   0.77302   0.00000  Uiso   1.00
O571   O     0.67692   0.45725   0.22698   0.00000  Uiso   1.00
O572   O     0.95724   0.17692   0.22698   0.00000  Uiso   1.00
O573   O     0.54275   0.32308   0.77302   0.00000  Uiso   1.00
O574   O     0.67692   0.04275   0.22698   0.00000  Uiso   1.00
O575   O     0.82307   0.45725   0.77302   0.00000  Uiso   1.00
O576   O     0.54275   0.32308   0.22698   0.00000  Uiso   1.00
O577   O     0.75000   0.46964   0.33755   0.00000  Uiso   1.00
O578   O     0.95724   0.17692   0.77302   0.00000  Uiso   1.00
O579   O     0.82307   0.45725   0.22698   0.00000  Uiso   1.00
O580   O     0.67692   0.04275   0.77302   0.00000  Uiso   1.00
O581   O     0.75000   0.03036   0.66245   0.00000  Uiso   1.00
O582   O     0.53036   0.25000   0.33755   0.00000  Uiso   1.00
O583   O     0.96963   0.25000   0.66245   0.00000  Uiso   1.00
O584   O     0.75000   0.03036   0.33755   0.00000  Uiso   1.00
Zn585  Zn    0.70659  -0.00000   0.21735   0.00000  Uiso   1.00
Zn586  Zn    0.54340   0.25000   0.28265   0.00000  Uiso   1.00
Zn587  Zn    0.75000   0.45660   0.71735   0.00000  Uiso   1.00
Zn588  Zn    0.75000   0.04340   0.28265   0.00000  Uiso   1.00
Zn589  Zn    0.54340   0.25000   0.71735   0.00000  Uiso   1.00
Zn590  Zn    0.95659   0.25000   0.28265   0.00000  Uiso   1.00
Zn591  Zn    0.75000   0.04340   0.71735   0.00000  Uiso   1.00
Zn592  Zn    0.75000   0.45660   0.28265   0.00000  Uiso   1.00
Zn593  Zn    0.79340   0.00000   0.78265   0.00000  Uiso   1.00
Zn594  Zn    0.50000   0.20660   0.21735   0.00000  Uiso   1.00
Zn595  Zn    0.50000   0.29341   0.78265   0.00000  Uiso   1.00
Zn596  Zn    0.79340  -0.00000   0.21735   0.00000  Uiso   1.00
Zn597  Zn    0.70659   0.00000   0.78265   0.00000  Uiso   1.00
Zn598  Zn    0.50000   0.29341   0.21735   0.00000  Uiso   1.00
Zn599  Zn    0.50000   0.20660   0.78265   0.00000  Uiso   1.00
Zn600  Zn    0.95659   0.25000   0.71735   0.00000  Uiso   1.00
Br601  Br    0.11881   0.94130   0.18177   0.00000  Uiso   1.00
Br602  Br    0.37104   0.93188   0.17230   0.00000  Uiso   1.00
Br603  Br    0.06049   0.87941   0.82043   0.00000  Uiso   1.00
Br604  Br    0.44992   0.61017   0.19473   0.00000  Uiso   1.00
Br605  Br    0.39094   0.95119   0.80280   0.00000  Uiso   1.00
Br606  Br    0.11556   0.55558   0.18637   0.00000  Uiso   1.00
Br607  Br    0.43853   0.62171   0.82245   0.00000  Uiso   1.00
Br608  Br    0.05848   0.88138   0.18180   0.00000  Uiso   1.00
Br609  Br    0.35926   0.70077   0.69680   0.00000  Uiso   1.00
Br610  Br    0.14383   0.79721   0.29669   0.00000  Uiso   1.00
Br611  Br    0.31329   0.87384   0.67597   0.00000  Uiso   1.00
Br612  Br    0.37920   0.56083   0.82149   0.00000  Uiso   1.00
Br613  Br    0.19640   0.63650   0.31029   0.00000  Uiso   1.00
Br614  Br    0.13967   0.80027   0.69503   0.00000  Uiso   1.00
Br615  Br    0.37806   0.68286   0.32747   0.00000  Uiso   1.00
Br616  Br    0.18566   0.62496   0.67474   0.00000  Uiso   1.00
Br617  Br    0.31270   0.87198   0.32147   0.00000  Uiso   1.00
Br618  Br    0.36372   0.80429   0.31115   0.00000  Uiso   1.00
Br619  Br    0.12701   0.68735   0.67673   0.00000  Uiso   1.00
Br620  Br    0.31099   0.62982   0.32024   0.00000  Uiso   1.00
Br621  Br    0.20018   0.85988   0.69586   0.00000  Uiso   1.00
Br622  Br    0.13911   0.69878   0.30585   0.00000  Uiso   1.00
Br623  Br    0.05504   0.61493   0.18728   0.00000  Uiso   1.00
Br624  Br    0.37348   0.81309   0.67627   0.00000  Uiso   1.00
Br625  Br    0.19140   0.86666   0.31594   0.00000  Uiso   1.00
Br626  Br    0.29964   0.64032   0.69603   0.00000  Uiso   1.00
Br627  Br    0.45181   0.89141   0.80168   0.00000  Uiso   1.00
Br628  Br    0.38910   0.55070   0.19376   0.00000  Uiso   1.00
Br629  Br    0.12041   0.93977   0.82017   0.00000  Uiso   1.00
Br630  Br    0.43849   0.87923   0.17926   0.00000  Uiso   1.00
Br631  Br    0.04855   0.60883   0.80230   0.00000  Uiso   1.00
Br632  Br    0.10813   0.54767   0.80074   0.00000  Uiso   1.00
C633   C     0.49553   0.78237   0.41757   0.00000  Uiso   1.00
C634   C     0.25606   0.96744   0.08271   0.00000  Uiso   1.00
C635   C     0.21650   0.50274   0.54139   0.00000  Uiso   1.00
C636   C     0.49543   0.78326   0.45868   0.00000  Uiso   1.00
C637   C     0.00457   0.71653   0.54134   0.00000  Uiso   1.00
C638   C     0.21630   0.50023   0.45869   0.00000  Uiso   1.00
C639   C     0.28369   0.99974   0.54129   0.00000  Uiso   1.00
C640   C     0.25383   0.96622   0.95871   0.00000  Uiso   1.00
C641   C     0.24835   0.53324   0.04108   0.00000  Uiso   1.00
C642   C     0.03282   0.74307   0.95857   0.00000  Uiso   1.00
C643   C     0.46690   0.75660   0.04112   0.00000  Uiso   1.00
C644   C     0.24627   0.53291   0.95872   0.00000  Uiso   1.00
C645   C     0.46817   0.75625   0.91761   0.00000  Uiso   1.00
C646   C     0.25650   0.96649   0.04133   0.00000  Uiso   1.00
C647   C     0.46671   0.75381   0.95864   0.00000  Uiso   1.00
C648   C     0.03320   0.74476   0.04132   0.00000  Uiso   1.00
C649   C     0.10008   0.84610   0.24638   0.00000  Uiso   1.00
C650   C     0.39937   0.65440   0.75397   0.00000  Uiso   1.00
C651   C     0.15244   0.59869   0.24902   0.00000  Uiso   1.00
C652   C     0.35110   0.90489   0.74556   0.00000  Uiso   1.00
C653   C     0.40518   0.64874   0.25429   0.00000  Uiso   1.00
C654   C     0.10024   0.84601   0.75326   0.00000  Uiso   1.00
C655   C     0.34684   0.90065   0.24847   0.00000  Uiso   1.00
C656   C     0.03186   0.74309   0.08227   0.00000  Uiso   1.00
C657   C     0.14864   0.59479   0.74510   0.00000  Uiso   1.00
C658   C     0.09515   0.64889   0.74552   0.00000  Uiso   1.00
C659   C     0.40041   0.84674   0.24797   0.00000  Uiso   1.00
C660   C     0.15403   0.89974   0.75333   0.00000  Uiso   1.00
C661   C     0.35055   0.59584   0.25333   0.00000  Uiso   1.00
C662   C     0.40492   0.85113   0.74546   0.00000  Uiso   1.00
C663   C     0.09896   0.65268   0.24859   0.00000  Uiso   1.00
C664   C     0.34577   0.60051   0.75376   0.00000  Uiso   1.00
C665   C     0.15246   0.90114   0.24864   0.00000  Uiso   1.00
C666   C     0.49917   0.74986   0.47935   0.00000  Uiso   1.00
C667   C     0.25447   0.96752   0.91737   0.00000  Uiso   1.00
C668   C     0.00033   0.74991   0.52051   0.00000  Uiso   1.00
C669   C     0.24995   0.99934   0.47944   0.00000  Uiso   1.00
C670   C     0.25004   0.50066   0.52055   0.00000  Uiso   1.00
C671   C     0.25065   0.99958   0.97923   0.00000  Uiso   1.00
C672   C     0.25173   0.99974   0.02052   0.00000  Uiso   1.00
C673   C     0.49979   0.74874   0.97960   0.00000  Uiso   1.00
C674   C     0.49994   0.74981   0.02051   0.00000  Uiso   1.00
C675   C     0.24618   0.53211   0.08211   0.00000  Uiso   1.00
C676   C     0.03204   0.74275   0.91769   0.00000  Uiso   1.00
C677   C     0.46820   0.75767   0.08240   0.00000  Uiso   1.00
C678   C     0.49983   0.75005   0.39777   0.00000  Uiso   1.00
C679   C     0.00019   0.74988   0.60211   0.00000  Uiso   1.00
C680   C     0.24998   0.99978   0.39785   0.00000  Uiso   1.00
C681   C     0.00442   0.71746   0.58245   0.00000  Uiso   1.00
C682   C     0.25002   0.50022   0.60215   0.00000  Uiso   1.00
C683   C     0.24994   0.99990   0.89770   0.00000  Uiso   1.00
C684   C     0.25036   0.99976   0.10205   0.00000  Uiso   1.00
C685   C     0.00016   0.74979   0.89775   0.00000  Uiso   1.00
C686   C     0.00002   0.75019   0.10213   0.00000  Uiso   1.00
C687   C     0.00428   0.68311   0.47948   0.00000  Uiso   1.00
C688   C     0.49575   0.81696   0.52038   0.00000  Uiso   1.00
C689   C     0.31711   0.99592   0.47883   0.00000  Uiso   1.00
C690   C     0.18288   0.50413   0.52115   0.00000  Uiso   1.00
C691   C     0.49275   0.81680   0.47886   0.00000  Uiso   1.00
C692   C     0.21740   0.50130   0.41756   0.00000  Uiso   1.00
C693   C     0.00846   0.68314   0.52072   0.00000  Uiso   1.00
C694   C     0.18279   0.50094   0.47972   0.00000  Uiso   1.00
C695   C     0.31721   0.99904   0.52028   0.00000  Uiso   1.00
C696   C     0.25758   0.93297   0.97956   0.00000  Uiso   1.00
C697   C     0.24642   0.56675   0.02040   0.00000  Uiso   1.00
C698   C     0.06623   0.73917   0.97872   0.00000  Uiso   1.00
C699   C     0.43364   0.76171   0.02050   0.00000  Uiso   1.00
C700   C     0.24375   0.56651   0.97890   0.00000  Uiso   1.00
C701   C     0.26136   0.93313   0.02114   0.00000  Uiso   1.00
C702   C     0.43344   0.75780   0.97913   0.00000  Uiso   1.00
C703   C     0.28260   0.99863   0.58243   0.00000  Uiso   1.00
C704   C     0.06657   0.74117   0.02018   0.00000  Uiso   1.00
C705   C     0.25001   0.99998   0.35564   0.00000  Uiso   1.00
C706   C     0.24999   0.50002   0.64436   0.00000  Uiso   1.00
C707   C    -0.00000   0.75005   0.35564   0.00000  Uiso   1.00
C708   C     0.00001   0.74995   0.64434   0.00000  Uiso   1.00
C709   C     0.00014   0.74999   0.85562   0.00000  Uiso   1.00
C710   C     0.00003   0.75002   0.14435   0.00000  Uiso   1.00
C711   C     0.25000   0.50004   0.85565   0.00000  Uiso   1.00
C712   C     0.25003   0.99996   0.14429   0.00000  Uiso   1.00
C713   C     0.18004   0.57018   0.24980   0.00000  Uiso   1.00
C714   C     0.00362   0.71768   0.41752   0.00000  Uiso   1.00
C715   C     0.32085   0.93069   0.74884   0.00000  Uiso   1.00
C716   C     0.43086   0.67904   0.25128   0.00000  Uiso   1.00
C717   C     0.07062   0.81954   0.75085   0.00000  Uiso   1.00
C718   C     0.31978   0.92967   0.24963   0.00000  Uiso   1.00
C719   C     0.17905   0.56918   0.74864   0.00000  Uiso   1.00
C720   C     0.07075   0.81936   0.24881   0.00000  Uiso   1.00
C721   C     0.42925   0.68059   0.75105   0.00000  Uiso   1.00
C722   C     0.18048   0.92936   0.75087   0.00000  Uiso   1.00
C723   C     0.32063   0.56961   0.25074   0.00000  Uiso   1.00
C724   C     0.43071   0.82087   0.74879   0.00000  Uiso   1.00
C725   C     0.49658   0.78231   0.58231   0.00000  Uiso   1.00
C726   C     0.07032   0.68017   0.24959   0.00000  Uiso   1.00
C727   C     0.31950   0.57068   0.75095   0.00000  Uiso   1.00
C728   C     0.17989   0.92988   0.24991   0.00000  Uiso   1.00
C729   C     0.06935   0.67917   0.74886   0.00000  Uiso   1.00
C730   C     0.42952   0.81969   0.24943   0.00000  Uiso   1.00
C731   C     0.12378   0.90287   0.22079   0.00000  Uiso   1.00
C732   C     0.37463   0.59875   0.78146   0.00000  Uiso   1.00
C733   C     0.09562   0.62227   0.22331   0.00000  Uiso   1.00
C734   C     0.40903   0.88229   0.76948   0.00000  Uiso   1.00
C735   C     0.38134   0.59200   0.22858   0.00000  Uiso   1.00
C736   C     0.28255   0.99774   0.41765   0.00000  Uiso   1.00
C737   C     0.12498   0.90172   0.78058   0.00000  Uiso   1.00
C738   C     0.40084   0.87447   0.21905   0.00000  Uiso   1.00
C739   C     0.09095   0.61762   0.76939   0.00000  Uiso   1.00
C740   C     0.11748   0.59070   0.76908   0.00000  Uiso   1.00
C741   C     0.37296   0.89991   0.21793   0.00000  Uiso   1.00
C742   C     0.09833   0.87501   0.78061   0.00000  Uiso   1.00
C743   C     0.40829   0.61843   0.22886   0.00000  Uiso   1.00
C744   C     0.38221   0.90890   0.76968   0.00000  Uiso   1.00
C745   C     0.12235   0.59566   0.22321   0.00000  Uiso   1.00
C746   C     0.40115   0.62558   0.78167   0.00000  Uiso   1.00
C747   C     0.21745   0.50234   0.58235   0.00000  Uiso   1.00
C748   C     0.09725   0.87604   0.22041   0.00000  Uiso   1.00
C749   C     0.36829   0.65837   0.72974   0.00000  Uiso   1.00
C750   C     0.13112   0.84225   0.27044   0.00000  Uiso   1.00
C751   C     0.34985   0.87661   0.71732   0.00000  Uiso   1.00
C752   C     0.15610   0.62941   0.27377   0.00000  Uiso   1.00
C753   C     0.13121   0.84213   0.72890   0.00000  Uiso   1.00
C754   C     0.37751   0.64948   0.28308   0.00000  Uiso   1.00
C755   C     0.14985   0.62304   0.71687   0.00000  Uiso   1.00
C756   C     0.34644   0.87300   0.27735   0.00000  Uiso   1.00
C757   C     0.37155   0.84494   0.27552   0.00000  Uiso   1.00
C758   C     0.24566   0.53212   0.91764   0.00000  Uiso   1.00
C759   C     0.12347   0.65012   0.71729   0.00000  Uiso   1.00
C760   C     0.34957   0.62413   0.28165   0.00000  Uiso   1.00
C761   C     0.15795   0.86871   0.72905   0.00000  Uiso   1.00
C762   C     0.12994   0.65652   0.27291   0.00000  Uiso   1.00
C763   C     0.37653   0.84984   0.71735   0.00000  Uiso   1.00
C764   C     0.15546   0.87078   0.27404   0.00000  Uiso   1.00
C765   C     0.34173   0.63161   0.72959   0.00000  Uiso   1.00
C766   C     0.00186   0.71646   0.45864   0.00000  Uiso   1.00
C767   C     0.49780   0.78346   0.54120   0.00000  Uiso   1.00
C768   C     0.28349   0.99730   0.45861   0.00000  Uiso   1.00
H769   H     0.49349   0.80645   0.39993   0.00000  Uiso   1.00
H770   H     0.25835   0.94366   0.10035   0.00000  Uiso   1.00
H771   H     0.44527   0.76398   0.89979   0.00000  Uiso   1.00
H772   H     0.05474   0.73566   0.10011   0.00000  Uiso   1.00
H773   H     0.25920   0.94434   0.89912   0.00000  Uiso   1.00
H774   H     0.24017   0.55549   0.10009   0.00000  Uiso   1.00
H775   H     0.05606   0.73838   0.90024   0.00000  Uiso   1.00
H776   H     0.44489   0.76253   0.10045   0.00000  Uiso   1.00
H777   H     0.49660   0.64949   0.43030   0.00000  Uiso   1.00
H778   H     0.48151   0.63389   0.47181   0.00000  Uiso   1.00
H779   H     0.00364   0.85057   0.56949   0.00000  Uiso   1.00
H780   H     0.00579   0.69361   0.60038   0.00000  Uiso   1.00
H781   H     0.01953   0.86586   0.52808   0.00000  Uiso   1.00
H782   H     0.35178   0.98095   0.43269   0.00000  Uiso   1.00
H783   H     0.37366   0.98828   0.47441   0.00000  Uiso   1.00
H784   H     0.14814   0.51868   0.56756   0.00000  Uiso   1.00
H785   H     0.12631   0.51199   0.52555   0.00000  Uiso   1.00
H786   H     0.47497   0.85071   0.43373   0.00000  Uiso   1.00
H787   H     0.48439   0.87310   0.47433   0.00000  Uiso   1.00
H788   H     0.02038   0.64924   0.56917   0.00000  Uiso   1.00
H789   H     0.00963   0.62699   0.52875   0.00000  Uiso   1.00
H790   H     0.14904   0.99302   0.43040   0.00000  Uiso   1.00
H791   H     0.19377   0.50454   0.39947   0.00000  Uiso   1.00
H792   H     0.13499   0.97509   0.47162   0.00000  Uiso   1.00
H793   H     0.35090   0.50708   0.56958   0.00000  Uiso   1.00
H794   H     0.36501   0.52489   0.52835   0.00000  Uiso   1.00
H795   H     0.25510   0.89832   0.92987   0.00000  Uiso   1.00
H796   H     0.23580   0.88349   0.97029   0.00000  Uiso   1.00
H797   H     0.25476   0.60003   0.06944   0.00000  Uiso   1.00
H798   H     0.27054   0.61540   0.02818   0.00000  Uiso   1.00
H799   H     0.09885   0.71584   0.93708   0.00000  Uiso   1.00
H800   H     0.12215   0.73086   0.97438   0.00000  Uiso   1.00
H801   H     0.39928   0.77061   0.06894   0.00000  Uiso   1.00
H802   H     0.30622   0.99530   0.60050   0.00000  Uiso   1.00
H803   H     0.37758   0.76459   0.02780   0.00000  Uiso   1.00
H804   H     0.22249   0.60032   0.93591   0.00000  Uiso   1.00
H805   H     0.23818   0.62326   0.97425   0.00000  Uiso   1.00
H806   H     0.27466   0.89911   0.06966   0.00000  Uiso   1.00
H807   H     0.26542   0.87655   0.02813   0.00000  Uiso   1.00
H808   H     0.39997   0.75091   0.93010   0.00000  Uiso   1.00
H809   H     0.38308   0.73755   0.97139   0.00000  Uiso   1.00
H810   H     0.10023   0.74710   0.06972   0.00000  Uiso   1.00
H811   H     0.11643   0.76274   0.02870   0.00000  Uiso   1.00
H812   H     0.00897   0.69432   0.39963   0.00000  Uiso   1.00
H813   H     0.49166   0.80574   0.60038   0.00000  Uiso   1.00
H814   H     0.30668   0.99757   0.39986   0.00000  Uiso   1.00
H815   H     0.19334   0.50257   0.60018   0.00000  Uiso   1.00
H816   H     0.24291   0.55634   0.90033   0.00000  Uiso   1.00
N817   N     0.00323   0.64824   0.46001   0.00000  Uiso   1.00
N818   N     0.24839   0.60148   0.03975   0.00000  Uiso   1.00
N819   N     0.09980   0.73718   0.95680   0.00000  Uiso   1.00
N820   N     0.40125   0.77591   0.03930   0.00000  Uiso   1.00
N821   N     0.24330   0.60025   0.95675   0.00000  Uiso   1.00
N822   N     0.27627   0.90065   0.03922   0.00000  Uiso   1.00
N823   N     0.39874   0.75835   0.95948   0.00000  Uiso   1.00
N824   N     0.10142   0.74115   0.03998   0.00000  Uiso   1.00
N825   N     0.49755   0.85175   0.53974   0.00000  Uiso   1.00
N826   N     0.35152   0.99672   0.45788   0.00000  Uiso   1.00
N827   N     0.14841   0.50340   0.54200   0.00000  Uiso   1.00
N828   N     0.49258   0.85096   0.45741   0.00000  Uiso   1.00
N829   N     0.02238   0.65042   0.53886   0.00000  Uiso   1.00
N830   N     0.14801   0.99792   0.46038   0.00000  Uiso   1.00
N831   N     0.35198   0.50208   0.53963   0.00000  Uiso   1.00
N832   N     0.25836   0.89786   0.96054   0.00000  Uiso   1.00
O833   O     0.25000   0.50000   0.25000   0.00000  Uiso   1.00
O834   O     0.25000   0.96964   0.66245   0.00000  Uiso   1.00
O835   O     0.46963   0.75000   0.33755   0.00000  Uiso   1.00
O836   O     0.03036   0.75000   0.66245   0.00000  Uiso   1.00
O837   O    -0.00000   0.71963   0.83755   0.00000  Uiso   1.00
O838   O    -0.00000   0.78036   0.16245   0.00000  Uiso   1.00
O839   O     0.28036   0.50000   0.83755   0.00000  Uiso   1.00
O840   O     0.21963   0.50000   0.16245   0.00000  Uiso   1.00
O841   O    -0.00000   0.78036   0.83755   0.00000  Uiso   1.00
O842   O     0.00000   0.71964   0.16245   0.00000  Uiso   1.00
O843   O     0.21963   0.50000   0.83755   0.00000  Uiso   1.00
O844   O     0.25000   0.50000   0.75000   0.00000  Uiso   1.00
O845   O     0.28036   0.50000   0.16245   0.00000  Uiso   1.00
O846   O     0.20724   0.57307   0.27302   0.00000  Uiso   1.00
O847   O     0.29275   0.92693   0.72698   0.00000  Uiso   1.00
O848   O     0.42692   0.70724   0.27302   0.00000  Uiso   1.00
O849   O     0.07307   0.79276   0.72698   0.00000  Uiso   1.00
O850   O     0.29275   0.92693   0.27302   0.00000  Uiso   1.00
O851   O     0.20724   0.57307   0.72698   0.00000  Uiso   1.00
O852   O     0.07307   0.79276   0.27302   0.00000  Uiso   1.00
O853   O     0.42692   0.70724   0.72698   0.00000  Uiso   1.00
O854   O     0.20724   0.92693   0.72698   0.00000  Uiso   1.00
O855   O     0.00000   0.75000   0.25000   0.00000  Uiso   1.00
O856   O     0.29275   0.57307   0.27302   0.00000  Uiso   1.00
O857   O     0.42692   0.79275   0.72698   0.00000  Uiso   1.00
O858   O     0.07307   0.70725   0.27302   0.00000  Uiso   1.00
O859   O     0.29275   0.57307   0.72698   0.00000  Uiso   1.00
O860   O     0.20724   0.92693   0.27302   0.00000  Uiso   1.00
O861   O     0.07307   0.70725   0.72698   0.00000  Uiso   1.00
O862   O     0.42692   0.79275   0.27302   0.00000  Uiso   1.00
O863   O     0.45724   0.82307   0.77302   0.00000  Uiso   1.00
O864   O     0.04275   0.67693   0.22698   0.00000  Uiso   1.00
O865   O     0.17692   0.95725   0.77302   0.00000  Uiso   1.00
O866   O     0.00000   0.75000   0.75000   0.00000  Uiso   1.00
O867   O     0.32307   0.54275   0.22698   0.00000  Uiso   1.00
O868   O     0.04275   0.67693   0.77302   0.00000  Uiso   1.00
O869   O     0.45724   0.82307   0.22698   0.00000  Uiso   1.00
O870   O     0.32307   0.54275   0.77302   0.00000  Uiso   1.00
O871   O     0.17692   0.95725   0.22698   0.00000  Uiso   1.00
O872   O     0.45724   0.67692   0.22698   0.00000  Uiso   1.00
O873   O     0.04275   0.82308   0.77302   0.00000  Uiso   1.00
O874   O     0.17692   0.54275   0.22698   0.00000  Uiso   1.00
O875   O     0.32307   0.95725   0.77302   0.00000  Uiso   1.00
O876   O     0.04275   0.82308   0.22698   0.00000  Uiso   1.00
O877   O     0.25000   0.96964   0.33755   0.00000  Uiso   1.00
O878   O     0.45724   0.67692   0.77302   0.00000  Uiso   1.00
O879   O     0.32307   0.95725   0.22698   0.00000  Uiso   1.00
O880   O     0.17692   0.54275   0.77302   0.00000  Uiso   1.00
O881   O     0.25000   0.53036   0.66245   0.00000  Uiso   1.00
O882   O     0.03036   0.75000   0.33755   0.00000  Uiso   1.00
O883   O     0.46963   0.75000   0.66245   0.00000  Uiso   1.00
O884   O     0.25000   0.53036   0.33755   0.00000  Uiso   1.00
Zn885  Zn    0.20659   0.50000   0.21735   0.00000  Uiso   1.00
Zn886  Zn    0.04340   0.75000   0.28265   0.00000  Uiso   1.00
Zn887  Zn    0.25000   0.95660   0.71735   0.00000  Uiso   1.00
Zn888  Zn    0.25000   0.54340   0.28265   0.00000  Uiso   1.00
Zn889  Zn    0.04340   0.75000   0.71735   0.00000  Uiso   1.00
Zn890  Zn    0.45659   0.75000   0.28265   0.00000  Uiso   1.00
Zn891  Zn    0.25000   0.54340   0.71735   0.00000  Uiso   1.00
Zn892  Zn    0.25000   0.95660   0.28265   0.00000  Uiso   1.00
Zn893  Zn    0.29340   0.50000   0.78265   0.00000  Uiso   1.00
Zn894  Zn    0.00000   0.70660   0.21735   0.00000  Uiso   1.00
Zn895  Zn    0.00000   0.79341   0.78265   0.00000  Uiso   1.00
Zn896  Zn    0.29340   0.50000   0.21735   0.00000  Uiso   1.00
Zn897  Zn    0.20659   0.50000   0.78265   0.00000  Uiso   1.00
Zn898  Zn    0.00000   0.79341   0.21735   0.00000  Uiso   1.00
Zn899  Zn    0.00000   0.70660   0.78265   0.00000  Uiso   1.00
Zn900  Zn    0.45659   0.75000   0.71735   0.00000  Uiso   1.00
Br901  Br    0.61881   0.94130   0.18177   0.00000  Uiso   1.00
Br902  Br    0.87104   0.93188   0.17230   0.00000  Uiso   1.00
Br903  Br    0.56049   0.87941   0.82043   0.00000  Uiso   1.00
Br904  Br    0.94992   0.61017   0.19473   0.00000  Uiso   1.00
Br905  Br    0.89094   0.95119   0.80280   0.00000  Uiso   1.00
Br906  Br    0.61556   0.55558   0.18637   0.00000  Uiso   1.00
Br907  Br    0.93853   0.62171   0.82245   0.00000  Uiso   1.00
Br908  Br    0.55848   0.88138   0.18180   0.00000  Uiso   1.00
Br909  Br    0.85926   0.70077   0.69680   0.00000  Uiso   1.00
Br910  Br    0.64383   0.79721   0.29669   0.00000  Uiso   1.00
Br911  Br    0.81329   0.87384   0.67597   0.00000  Uiso   1.00
Br912  Br    0.87920   0.56083   0.82149   0.00000  Uiso   1.00
Br913  Br    0.69640   0.63650   0.31029   0.00000  Uiso   1.00
Br914  Br    0.63967   0.80027   0.69503   0.00000  Uiso   1.00
Br915  Br    0.87806   0.68286   0.32747   0.00000  Uiso   1.00
Br916  Br    0.68566   0.62496   0.67474   0.00000  Uiso   1.00
Br917  Br    0.81270   0.87198   0.32147   0.00000  Uiso   1.00
Br918  Br    0.86372   0.80429   0.31115   0.00000  Uiso   1.00
Br919  Br    0.62701   0.68735   0.67673   0.00000  Uiso   1.00
Br920  Br    0.81099   0.62982   0.32024   0.00000  Uiso   1.00
Br921  Br    0.70018   0.85988   0.69586   0.00000  Uiso   1.00
Br922  Br    0.63911   0.69878   0.30585   0.00000  Uiso   1.00
Br923  Br    0.55504   0.61493   0.18728   0.00000  Uiso   1.00
Br924  Br    0.87348   0.81309   0.67627   0.00000  Uiso   1.00
Br925  Br    0.69140   0.86666   0.31594   0.00000  Uiso   1.00
Br926  Br    0.79964   0.64032   0.69603   0.00000  Uiso   1.00
Br927  Br    0.95181   0.89141   0.80168   0.00000  Uiso   1.00
Br928  Br    0.88910   0.55070   0.19376   0.00000  Uiso   1.00
Br929  Br    0.62041   0.93977   0.82017   0.00000  Uiso   1.00
Br930  Br    0.93849   0.87923   0.17926   0.00000  Uiso   1.00
Br931  Br    0.54855   0.60883   0.80230   0.00000  Uiso   1.00
Br932  Br    0.60813   0.54767   0.80074   0.00000  Uiso   1.00
C933   C     0.99553   0.78237   0.41757   0.00000  Uiso   1.00
C934   C     0.75606   0.96744   0.08271   0.00000  Uiso   1.00
C935   C     0.71650   0.50274   0.54139   0.00000  Uiso   1.00
C936   C     0.99543   0.78326   0.45868   0.00000  Uiso   1.00
C937   C     0.50457   0.71653   0.54134   0.00000  Uiso   1.00
C938   C     0.71630   0.50023   0.45869   0.00000  Uiso   1.00
C939   C     0.78369   0.99974   0.54129   0.00000  Uiso   1.00
C940   C     0.75383   0.96622   0.95871   0.00000  Uiso   1.00
C941   C     0.74835   0.53324   0.04108   0.00000  Uiso   1.00
C942   C     0.53282   0.74307   0.95857   0.00000  Uiso   1.00
C943   C     0.96690   0.75660   0.04112   0.00000  Uiso   1.00
C944   C     0.74627   0.53291   0.95872   0.00000  Uiso   1.00
C945   C     0.96817   0.75625   0.91761   0.00000  Uiso   1.00
C946   C     0.75650   0.96649   0.04133   0.00000  Uiso   1.00
C947   C     0.96671   0.75381   0.95864   0.00000  Uiso   1.00
C948   C     0.53320   0.74476   0.04132   0.00000  Uiso   1.00
C949   C     0.60008   0.84610   0.24638   0.00000  Uiso   1.00
C950   C     0.89937   0.65440   0.75397   0.00000  Uiso   1.00
C951   C     0.65244   0.59869   0.24902   0.00000  Uiso   1.00
C952   C     0.85110   0.90489   0.74556   0.00000  Uiso   1.00
C953   C     0.90518   0.64874   0.25429   0.00000  Uiso   1.00
C954   C     0.60024   0.84601   0.75326   0.00000  Uiso   1.00
C955   C     0.84684   0.90065   0.24847   0.00000  Uiso   1.00
C956   C     0.53186   0.74309   0.08227   0.00000  Uiso   1.00
C957   C     0.64864   0.59479   0.74510   0.00000  Uiso   1.00
C958   C     0.59515   0.64889   0.74552   0.00000  Uiso   1.00
C959   C     0.90041   0.84674   0.24797   0.00000  Uiso   1.00
C960   C     0.65403   0.89974   0.75333   0.00000  Uiso   1.00
C961   C     0.85055   0.59584   0.25333   0.00000  Uiso   1.00
C962   C     0.90492   0.85113   0.74546   0.00000  Uiso   1.00
C963   C     0.59896   0.65268   0.24859   0.00000  Uiso   1.00
C964   C     0.84577   0.60051   0.75376   0.00000  Uiso   1.00
C965   C     0.65246   0.90114   0.24864   0.00000  Uiso   1.00
C966   C     0.99917   0.74986   0.47935   0.00000  Uiso   1.00
C967   C     0.75447   0.96752   0.91737   0.00000  Uiso   1.00
C968   C     0.50033   0.74991   0.52051   0.00000  Uiso   1.00
C969   C     0.74995   0.99934   0.47944   0.00000  Uiso   1.00
C970   C     0.75004   0.50066   0.52055   0.00000  Uiso   1.00
C971   C     0.75065   0.99958   0.97923   0.00000  Uiso   1.00
C972   C     0.75173   0.99974   0.02052   0.00000  Uiso   1.00
C973   C     0.99979   0.74874   0.97960   0.00000  Uiso   1.00
C974   C     0.99994   0.74981   0.02051   0.00000  Uiso   1.00
C975   C     0.74618   0.53211   0.08211   0.00000  Uiso   1.00
C976   C     0.53204   0.74275   0.91769   0.00000  Uiso   1.00
C977   C     0.96820   0.75767   0.08240   0.00000  Uiso   1.00
C978   C     0.99983   0.75005   0.39777   0.00000  Uiso   1.00
C979   C     0.50019   0.74988   0.60211   0.00000  Uiso   1.00
C980   C     0.74998   0.99978   0.39785   0.00000  Uiso   1.00
C981   C     0.50442   0.71746   0.58245   0.00000  Uiso   1.00
C982   C     0.75002   0.50022   0.60215   0.00000  Uiso   1.00
C983   C     0.74994   0.99990   0.89770   0.00000  Uiso   1.00
C984   C     0.75036   0.99976   0.10205   0.00000  Uiso   1.00
C985   C     0.50016   0.74979   0.89775   0.00000  Uiso   1.00
C986   C     0.50002   0.75019   0.10213   0.00000  Uiso   1.00
C987   C     0.50428   0.68311   0.47948   0.00000  Uiso   1.00
C988   C     0.99575   0.81696   0.52038   0.00000  Uiso   1.00
C989   C     0.81711   0.99592   0.47883   0.00000  Uiso   1.00
C990   C     0.68288   0.50413   0.52115   0.00000  Uiso   1.00
C991   C     0.99275   0.81680   0.47886   0.00000  Uiso   1.00
C992   C     0.71740   0.50130   0.41756   0.00000  Uiso   1.00
C993   C     0.50846   0.68314   0.52072   0.00000  Uiso   1.00
C994   C     0.68279   0.50094   0.47972   0.00000  Uiso   1.00
C995   C     0.81721   0.99904   0.52028   0.00000  Uiso   1.00
C996   C     0.75758   0.93297   0.97956   0.00000  Uiso   1.00
C997   C     0.74642   0.56675   0.02040   0.00000  Uiso   1.00
C998   C     0.56623   0.73917   0.97872   0.00000  Uiso   1.00
C999   C     0.93364   0.76171   0.02050   0.00000  Uiso   1.00
C1000  C     0.74375   0.56651   0.97890   0.00000  Uiso   1.00
C1001  C     0.76136   0.93313   0.02114   0.00000  Uiso   1.00
C1002  C     0.93344   0.75780   0.97913   0.00000  Uiso   1.00
C1003  C     0.78260   0.99863   0.58243   0.00000  Uiso   1.00
C1004  C     0.56657   0.74117   0.02018   0.00000  Uiso   1.00
C1005  C     0.75001   0.99998   0.35564   0.00000  Uiso   1.00
C1006  C     0.74999   0.50002   0.64436   0.00000  Uiso   1.00
C1007  C     0.50000   0.75005   0.35564   0.00000  Uiso   1.00
C1008  C     0.50001   0.74995   0.64434   0.00000  Uiso   1.00
C1009  C     0.50014   0.74999   0.85562   0.00000  Uiso   1.00
C1010  C     0.50003   0.75002   0.14435   0.00000  Uiso   1.00
C1011  C     0.75000   0.50004   0.85565   0.00000  Uiso   1.00
C1012  C     0.75003   0.99996   0.14429   0.00000  Uiso   1.00
C1013  C     0.68004   0.57018   0.24980   0.00000  Uiso   1.00
C1014  C     0.50362   0.71768   0.41752   0.00000  Uiso   1.00
C1015  C     0.82085   0.93069   0.74884   0.00000  Uiso   1.00
C1016  C     0.93086   0.67904   0.25128   0.00000  Uiso   1.00
C1017  C     0.57062   0.81954   0.75085   0.00000  Uiso   1.00
C1018  C     0.81978   0.92967   0.24963   0.00000  Uiso   1.00
C1019  C     0.67905   0.56918   0.74864   0.00000  Uiso   1.00
C1020  C     0.57075   0.81936   0.24881   0.00000  Uiso   1.00
C1021  C     0.92925   0.68059   0.75105   0.00000  Uiso   1.00
C1022  C     0.68048   0.92936   0.75087   0.00000  Uiso   1.00
C1023  C     0.82063   0.56961   0.25074   0.00000  Uiso   1.00
C1024  C     0.93071   0.82087   0.74879   0.00000  Uiso   1.00
C1025  C     0.99658   0.78231   0.58231   0.00000  Uiso   1.00
C1026  C     0.57032   0.68017   0.24959   0.00000  Uiso   1.00
C1027  C     0.81950   0.57068   0.75095   0.00000  Uiso   1.00
C1028  C     0.67989   0.92988   0.24991   0.00000  Uiso   1.00
C1029  C     0.56935   0.67917   0.74886   0.00000  Uiso   1.00
C1030  C     0.92952   0.81969   0.24943   0.00000  Uiso   1.00
C1031  C     0.62378   0.90287   0.22079   0.00000  Uiso   1.00
C1032  C     0.87463   0.59875   0.78146   0.00000  Uiso   1.00
C1033  C     0.59562   0.62227   0.22331   0.00000  Uiso   1.00
C1034  C     0.90903   0.88229   0.76948   0.00000  Uiso   1.00
C1035  C     0.88134   0.59200   0.22858   0.00000  Uiso   1.00
C1036  C     0.78255   0.99774   0.41765   0.00000  Uiso   1.00
C1037  C     0.62498   0.90172   0.78058   0.00000  Uiso   1.00
C1038  C     0.90084   0.87447   0.21905   0.00000  Uiso   1.00
C1039  C     0.59095   0.61762   0.76939   0.00000  Uiso   1.00
C1040  C     0.61748   0.59070   0.76908   0.00000  Uiso   1.00
C1041  C     0.87296   0.89991   0.21793   0.00000  Uiso   1.00
C1042  C     0.59833   0.87501   0.78061   0.00000  Uiso   1.00
C1043  C     0.90829   0.61843   0.22886   0.00000  Uiso   1.00
C1044  C     0.88221   0.90890   0.76968   0.00000  Uiso   1.00
C1045  C     0.62235   0.59566   0.22321   0.00000  Uiso   1.00
C1046  C     0.90115   0.62558   0.78167   0.00000  Uiso   1.00
C1047  C     0.71745   0.50234   0.58235   0.00000  Uiso   1.00
C1048  C     0.59725   0.87604   0.22041   0.00000  Uiso   1.00
C1049  C     0.86829   0.65837   0.72974   0.00000  Uiso   1.00
C1050  C     0.63112   0.84225   0.27044   0.00000  Uiso   1.00
C1051  C     0.84985   0.87661   0.71732   0.00000  Uiso   1.00
C1052  C     0.65610   0.62941   0.27377   0.00000  Uiso   1.00
C1053  C     0.63121   0.84213   0.72890   0.00000  Uiso   1.00
C1054  C     0.87751   0.64948   0.28308   0.00000  Uiso   1.00
C1055  C     0.64985   0.62304   0.71687   0.00000  Uiso   1.00
C1056  C     0.84644   0.87300   0.27735   0.00000  Uiso   1.00
C1057  C     0.87155   0.84494   0.27552   0.00000  Uiso   1.00
C1058  C     0.74566   0.53212   0.91764   0.00000  Uiso   1.00
C1059  C     0.62347   0.65012   0.71729   0.00000  Uiso   1.00
C1060  C     0.84957   0.62413   0.28165   0.00000  Uiso   1.00
C1061  C     0.65795   0.86871   0.72905   0.00000  Uiso   1.00
C1062  C     0.62994   0.65652   0.27291   0.00000  Uiso   1.00
C1063  C     0.87653   0.84984   0.71735   0.00000  Uiso   1.00
C1064  C     0.65546   0.87078   0.27404   0.00000  Uiso   1.00
C1065  C     0.84173   0.63161   0.72959   0.00000  Uiso   1.00
C1066  C     0.50186   0.71646   0.45864   0.00000  Uiso   1.00
C1067  C     0.99780   0.78346   0.54120   0.00000  Uiso   1.00
C1068  C     0.78349   0.99730   0.45861   0.00000  Uiso   1.00
H1069  H     0.99349   0.80645   0.39993   0.00000  Uiso   1.00
H1070  H     0.75835   0.94366   0.10035   0.00000  Uiso   1.00
H1071  H     0.94527   0.76398   0.89979   0.00000  Uiso   1.00
H1072  H     0.55474   0.73566   0.10011   0.00000  Uiso   1.00
H1073  H     0.75920   0.94434   0.89912   0.00000  Uiso   1.00
H1074  H     0.74017   0.55549   0.10009   0.00000  Uiso   1.00
H1075  H     0.55606   0.73838   0.90024   0.00000  Uiso   1.00
H1076  H     0.94489   0.76253   0.10045   0.00000  Uiso   1.00
H1077  H     0.99660   0.64949   0.43030   0.00000  Uiso   1.00
H1078  H     0.98151   0.63389   0.47181   0.00000  Uiso   1.00
H1079  H     0.50364   0.85057   0.56949   0.00000  Uiso   1.00
H1080  H     0.50579   0.69361   0.60038   0.00000  Uiso   1.00
H1081  H     0.51953   0.86586   0.52808   0.00000  Uiso   1.00
H1082  H     0.85178   0.98095   0.43269   0.00000  Uiso   1.00
H1083  H     0.87366   0.98828   0.47441   0.00000  Uiso   1.00
H1084  H     0.64814   0.51868   0.56756   0.00000  Uiso   1.00
H1085  H     0.62631   0.51199   0.52555   0.00000  Uiso   1.00
H1086  H     0.97497   0.85071   0.43373   0.00000  Uiso   1.00
H1087  H     0.98439   0.87310   0.47433   0.00000  Uiso   1.00
H1088  H     0.52038   0.64924   0.56917   0.00000  Uiso   1.00
H1089  H     0.50963   0.62699   0.52875   0.00000  Uiso   1.00
H1090  H     0.64904   0.99302   0.43040   0.00000  Uiso   1.00
H1091  H     0.69377   0.50454   0.39947   0.00000  Uiso   1.00
H1092  H     0.63499   0.97509   0.47162   0.00000  Uiso   1.00
H1093  H     0.85090   0.50708   0.56958   0.00000  Uiso   1.00
H1094  H     0.86501   0.52489   0.52835   0.00000  Uiso   1.00
H1095  H     0.75510   0.89832   0.92987   0.00000  Uiso   1.00
H1096  H     0.73580   0.88349   0.97029   0.00000  Uiso   1.00
H1097  H     0.75476   0.60003   0.06944   0.00000  Uiso   1.00
H1098  H     0.77054   0.61540   0.02818   0.00000  Uiso   1.00
H1099  H     0.59885   0.71584   0.93708   0.00000  Uiso   1.00
H1100  H     0.62215   0.73086   0.97438   0.00000  Uiso   1.00
H1101  H     0.89928   0.77061   0.06894   0.00000  Uiso   1.00
H1102  H     0.80622   0.99530   0.60050   0.00000  Uiso   1.00
H1103  H     0.87758   0.76459   0.02780   0.00000  Uiso   1.00
H1104  H     0.72249   0.60032   0.93591   0.00000  Uiso   1.00
H1105  H     0.73818   0.62326   0.97425   0.00000  Uiso   1.00
H1106  H     0.77466   0.89911   0.06966   0.00000  Uiso   1.00
H1107  H     0.76542   0.87655   0.02813   0.00000  Uiso   1.00
H1108  H     0.89997   0.75091   0.93010   0.00000  Uiso   1.00
H1109  H     0.88308   0.73755   0.97139   0.00000  Uiso   1.00
H1110  H     0.60023   0.74710   0.06972   0.00000  Uiso   1.00
H1111  H     0.61643   0.76274   0.02870   0.00000  Uiso   1.00
H1112  H     0.50897   0.69432   0.39963   0.00000  Uiso   1.00
H1113  H     0.99166   0.80574   0.60038   0.00000  Uiso   1.00
H1114  H     0.80668   0.99757   0.39986   0.00000  Uiso   1.00
H1115  H     0.69334   0.50257   0.60018   0.00000  Uiso   1.00
H1116  H     0.74291   0.55634   0.90033   0.00000  Uiso   1.00
N1117  N     0.50323   0.64824   0.46001   0.00000  Uiso   1.00
N1118  N     0.74839   0.60148   0.03975   0.00000  Uiso   1.00
N1119  N     0.59980   0.73718   0.95680   0.00000  Uiso   1.00
N1120  N     0.90125   0.77591   0.03930   0.00000  Uiso   1.00
N1121  N     0.74330   0.60025   0.95675   0.00000  Uiso   1.00
N1122  N     0.77627   0.90065   0.03922   0.00000  Uiso   1.00
N1123  N     0.89874   0.75835   0.95948   0.00000  Uiso   1.00
N1124  N     0.60142   0.74115   0.03998   0.00000  Uiso   1.00
N1125  N     0.99755   0.85175   0.53974   0.00000  Uiso   1.00
N1126  N     0.85152   0.99672   0.45788   0.00000  Uiso   1.00
N1127  N     0.64841   0.50340   0.54200   0.00000  Uiso   1.00
N1128  N     0.99258   0.85096   0.45741   0.00000  Uiso   1.00
N1129  N     0.52238   0.65042   0.53886   0.00000  Uiso   1.00
N1130  N     0.64801   0.99792   0.46038   0.00000  Uiso   1.00
N1131  N     0.85198   0.50208   0.53963   0.00000  Uiso   1.00
N1132  N     0.75836   0.89786   0.96054   0.00000  Uiso   1.00
O1133  O     0.75000   0.50000   0.25000   0.00000  Uiso   1.00
O1134  O     0.75000   0.96964   0.66245   0.00000  Uiso   1.00
O1135  O     0.96963   0.75000   0.33755   0.00000  Uiso   1.00
O1136  O     0.53036   0.75000   0.66245   0.00000  Uiso   1.00
O1137  O     0.50000   0.71963   0.83755   0.00000  Uiso   1.00
O1138  O     0.50000   0.78036   0.16245   0.00000  Uiso   1.00
O1139  O     0.78036   0.50000   0.83755   0.00000  Uiso   1.00
O1140  O     0.71963   0.50000   0.16245   0.00000  Uiso   1.00
O1141  O     0.50000   0.78036   0.83755   0.00000  Uiso   1.00
O1142  O     0.50000   0.71964   0.16245   0.00000  Uiso   1.00
O1143  O     0.71963   0.50000   0.83755   0.00000  Uiso   1.00
O1144  O     0.75000   0.50000   0.75000   0.00000  Uiso   1.00
O1145  O     0.78036   0.50000   0.16245   0.00000  Uiso   1.00
O1146  O     0.70724   0.57307   0.27302   0.00000  Uiso   1.00
O1147  O     0.79275   0.92693   0.72698   0.00000  Uiso   1.00
O1148  O     0.92692   0.70724   0.27302   0.00000  Uiso   1.00
O1149  O     0.57307   0.79276   0.72698   0.00000  Uiso   1.00
O1150  O     0.79275   0.92693   0.27302   0.00000  Uiso   1.00
O1151  O     0.70724   0.57307   0.72698   0.00000  Uiso   1.00
O1152  O     0.57307   0.79276   0.27302   0.00000  Uiso   1.00
O1153  O     0.92692   0.70724   0.72698   0.00000  Uiso   1.00
O1154  O     0.70724   0.92693   0.72698   0.00000  Uiso   1.00
O1155  O     0.50000   0.75000   0.25000   0.00000  Uiso   1.00
O1156  O     0.79275   0.57307   0.27302   0.00000  Uiso   1.00
O1157  O     0.92692   0.79275   0.72698   0.00000  Uiso   1.00
O1158  O     0.57307   0.70725   0.27302   0.00000  Uiso   1.00
O1159  O     0.79275   0.57307   0.72698   0.00000  Uiso   1.00
O1160  O     0.70724   0.92693   0.27302   0.00000  Uiso   1.00
O1161  O     0.57307   0.70725   0.72698   0.00000  Uiso   1.00
O1162  O     0.92692   0.79275   0.27302   0.00000  Uiso   1.00
O1163  O     0.95724   0.82307   0.77302   0.00000  Uiso   1.00
O1164  O     0.54275   0.67693   0.22698   0.00000  Uiso   1.00
O1165  O     0.67692   0.95725   0.77302   0.00000  Uiso   1.00
O1166  O     0.50000   0.75000   0.75000   0.00000  Uiso   1.00
O1167  O     0.82307   0.54275   0.22698   0.00000  Uiso   1.00
O1168  O     0.54275   0.67693   0.77302   0.00000  Uiso   1.00
O1169  O     0.95724   0.82307   0.22698   0.00000  Uiso   1.00
O1170  O     0.82307   0.54275   0.77302   0.00000  Uiso   1.00
O1171  O     0.67692   0.95725   0.22698   0.00000  Uiso   1.00
O1172  O     0.95724   0.67692   0.22698   0.00000  Uiso   1.00
O1173  O     0.54275   0.82308   0.77302   0.00000  Uiso   1.00
O1174  O     0.67692   0.54275   0.22698   0.00000  Uiso   1.00
O1175  O     0.82307   0.95725   0.77302   0.00000  Uiso   1.00
O1176  O     0.54275   0.82308   0.22698   0.00000  Uiso   1.00
O1177  O     0.75000   0.96964   0.33755   0.00000  Uiso   1.00
O1178  O     0.95724   0.67692   0.77302   0.00000  Uiso   1.00
O1179  O     0.82307   0.95725   0.22698   0.00000  Uiso   1.00
O1180  O     0.67692   0.54275   0.77302   0.00000  Uiso   1.00
O1181  O     0.75000   0.53036   0.66245   0.00000  Uiso   1.00
O1182  O     0.53036   0.75000   0.33755   0.00000  Uiso   1.00
O1183  O     0.96963   0.75000   0.66245   0.00000  Uiso   1.00
O1184  O     0.75000   0.53036   0.33755   0.00000  Uiso   1.00
Zn1185 Zn    0.70659   0.50000   0.21735   0.00000  Uiso   1.00
Zn1186 Zn    0.54340   0.75000   0.28265   0.00000  Uiso   1.00
Zn1187 Zn    0.75000   0.95660   0.71735   0.00000  Uiso   1.00
Zn1188 Zn    0.75000   0.54340   0.28265   0.00000  Uiso   1.00
Zn1189 Zn    0.54340   0.75000   0.71735   0.00000  Uiso   1.00
Zn1190 Zn    0.95659   0.75000   0.28265   0.00000  Uiso   1.00
Zn1191 Zn    0.75000   0.54340   0.71735   0.00000  Uiso   1.00
Zn1192 Zn    0.75000   0.95660   0.28265   0.00000  Uiso   1.00
Zn1193 Zn    0.79340   0.50000   0.78265   0.00000  Uiso   1.00
Zn1194 Zn    0.50000   0.70660   0.21735   0.00000  Uiso   1.00
Zn1195 Zn    0.50000   0.79341   0.78265   0.00000  Uiso   1.00
Zn1196 Zn    0.79340   0.50000   0.21735   0.00000  Uiso   1.00
Zn1197 Zn    0.70659   0.50000   0.78265   0.00000  Uiso   1.00
Zn1198 Zn    0.50000   0.79341   0.21735   0.00000  Uiso   1.00
Zn1199 Zn    0.50000   0.70660   0.78265   0.00000  Uiso   1.00
Zn1200 Zn    0.95659   0.75000   0.71735   0.00000  Uiso   1.00
loop_
_geom_bond_atom_site_label_1
_geom_bond_atom_site_label_2
_geom_bond_distance
_geom_bond_site_symmetry_2
_ccdc_geom_bond_type
Br1    C131    1.954   .     S
Br2    C141    1.954   .     S
Br3    C142    1.956   .     S
Br4    C143    1.953   .     S
Br5    C144    1.956   .     S
Br6    C145    1.959   .     S
Br7    C146    1.964   .     S
Br8    C148    1.955   .     S
Br9    C149    1.957   .     S
Br10   C150    1.948   .     S
Br11   C151    1.954   .     S
Br12   C132    1.963   .     S
Br13   C152    1.959   .     S
Br14   C153    1.956   .     S
Br15   C154    1.952   .     S
Br16   C155    1.954   .     S
Br17   C156    1.954   .     S
Br18   C157    1.954   .     S
Br19   C159    1.955   .     S
Br20   C160    1.951   .     S
Br21   C161    1.955   .     S
Br22   C162    1.954   .     S
Br23   C133    1.957   .     S
Br24   C163    1.954   .     S
Br25   C164    1.955   .     S
Br26   C165    1.957   .     S
Br27   C134    1.955   .     S
Br28   C135    1.955   .     S
Br29   C137    1.956   .     S
Br30   C138    1.951   .     S
Br31   C139    1.955   .     S
Br32   C140    1.954   .     S
C33    C78     1.382   .     A
C33    C36     1.400   .     A
C33    H169    1.077   .     S
C34    C46     1.409   .     A
C34    C84     1.381   .     A
C34    H170    1.068   .     S
C35    C90     1.422   .     A
C35    C70     1.432   .     A
C35    C147    1.395   .     A
C36    C66     1.428   .     A
C36    C91     1.422   .     A
C37    C68     1.432   .     A
C37    C81     1.400   .     A
C37    C93     1.428   .     A
C38    C92     1.402   .     A
C38    C94     1.432   .     A
C38    C669    1.431   1_545 S
C39    C95     1.432   .     A
C39    C103    1.402   .     A
C39    C670    1.431   .     S
C40    C71     1.423   .     A
C40    C67     1.409   .     A
C40    C96     1.427   .     A
C41    C97     1.427   .     A
C41    C75     1.400   .     A
C41    C672    1.429   1_545 S
C42    C76     1.392   .     A
C42    C98     1.421   .     A
C42    C373    1.432   1_455 S
C43    C99     1.428   .     A
C43    C74     1.432   .     A
C43    C77     1.407   .     A
C44    C100    1.423   .     A
C44    C158    1.399   .     A
C44    C671    1.426   1_545 S
C45    C47     1.401   .     A
C45    H171    1.080   .     S
C45    C385    1.384   .     S
C46    C72     1.430   .     A
C46    C101    1.424   .     A
C47    C102    1.422   .     A
C47    C73     1.428   .     A
C48    C104    1.435   .     A
C48    C56     1.396   .     A
C48    C374    1.432   1_455 S
C49    C120    1.471   .     S
C49    C150    1.417   .     A
C49    C148    1.421   .     A
C50    C121    1.474   .     S
C50    C149    1.422   .     A
C50    C146    1.425   .     A
C51    C145    1.422   .     A
C51    C113    1.467   .     S
C51    C152    1.422   .     A
C52    C144    1.422   .     A
C52    C115    1.474   .     S
C52    C151    1.422   .     A
C53    C116    1.474   .     S
C53    C154    1.418   .     A
C53    C143    1.422   .     A
C54    C153    1.422   .     A
C54    C117    1.473   .     S
C54    C142    1.422   .     A
C55    C141    1.420   .     A
C55    C118    1.467   .     S
C55    C156    1.419   .     A
C56    C86     1.383   .     A
C56    H172    1.077   .     S
C57    C140    1.421   .     A
C57    C155    1.421   .     A
C57    C119    1.475   .     S
C58    C159    1.423   .     A
C58    C129    1.475   .     S
C58    C139    1.422   .     A
C59    C138    1.422   .     A
C59    C157    1.423   .     A
C59    C130    1.470   .     S
C60    C122    1.473   .     S
C60    C137    1.422   .     A
C60    C161    1.422   .     A
C61    C135    1.424   .     A
C61    C160    1.424   .     A
C61    C123    1.476   .     S
C62    C163    1.421   .     A
C62    C124    1.474   .     S
C62    C134    1.422   .     A
C63    C133    1.422   .     A
C63    C126    1.468   .     S
C63    C162    1.421   .     A
C64    C165    1.422   .     A
C64    C127    1.475   .     S
C64    C132    1.425   .     A
C65    C128    1.472   .     S
C65    C131    1.424   .     A
C65    C164    1.421   .     A
C66    C368    1.402   .     S
C66    C466    1.426   .     S
C67    C83     1.382   .     A
C67    H173    1.073   .     S
C68    C366    1.402   1_455 S
C68    C467    1.430   1_455 S
C69    C168    1.431   .     A
C69    C638    1.431   .     S
C69    C670    1.401   .     S
C70    C639    1.431   1_545 S
C70    C669    1.401   1_545 S
C71    C644    1.426   .     S
C71    C72     1.406   1_556 S
C72    C641    1.429   .     S
C72    C71     1.406   1_554 S
C73    C342    1.432   .     S
C73    C74     1.393   1_556 S
C74    C348    1.432   .     S
C74    C73     1.393   1_554 S
C75    H174    1.083   .     S
C75    C684    1.384   1_545 S
C76    H175    1.081   .     S
C76    C85     1.385   .     A
C77    H176    1.074   .     S
C77    C386    1.382   .     S
C78    C407    1.434   .     S
C78    C414    1.381   .     S
C79    C108    1.438   .     S
C79    C81     1.382   .     A
C79    C425    1.383   1_455 S
C80    C136    1.382   .     A
C80    C105    1.437   .     S
C80    C692    1.381   .     S
C81    H180    1.074   .     S
C82    C147    1.382   .     A
C82    C106    1.437   .     S
C82    C703    1.381   1_545 S
C83    C711    1.431   .     S
C83    C758    1.381   .     S
C84    C112    1.438   .     S
C84    C675    1.384   .     S
C85    C109    1.434   .     S
C85    C345    1.384   1_455 S
C86    C110    1.437   .     S
C86    C377    1.382   1_455 S
C87    C93     1.413   .     A
C87    C166    1.426   .     A
C87    N217    1.451   .     S
C88    C91     1.418   .     A
C88    C167    1.430   .     A
C88    N225    1.448   .     S
C89    N226    1.460   .     S
C89    C95     1.416   .     A
C89    C168    1.422   .     A
C90    C94     1.416   .     A
C90    N227    1.460   .     S
C91    N228    1.459   .     S
C92    H191    1.075   .     S
C92    C680    1.381   1_545 S
C93    N229    1.452   .     S
C94    N830    1.449   1_545 S
C95    N831    1.449   .     S
C96    N232    1.452   .     S
C96    C101    1.423   1_556 S
C97    N218    1.446   .     S
C97    C100    1.416   1_554 S
C98    N219    1.451   .     S
C98    C104    1.414   1_556 S
C99    N220    1.456   .     S
C99    C102    1.416   1_554 S
C100   N221    1.458   .     S
C100   C97     1.416   1_556 S
C101   N222    1.458   .     S
C101   C96     1.423   1_554 S
C102   N223    1.447   .     S
C102   C99     1.416   1_556 S
C103   H202    1.075   .     S
C103   C682    1.381   .     S
C104   N224    1.454   .     S
C104   C98     1.414   1_554 S
C105   O277    1.281   .     A
C105   O884    1.282   .     S
C106   O281    1.281   .     A
C106   O834    1.282   1_545 S
C107   C378    1.434   1_455 S
C107   O535    1.281   1_455 A
C107   O282    1.281   .     S
C108   O236    1.281   .     A
C108   O583    1.282   1_455 S
C109   O237    1.281   .     S
C109   O241    1.281   .     S
C110   O242    1.282   .     A
C110   O238    1.281   .     S
C111   C683    1.431   1_545 S
C111   O239    1.282   .     S
C111   O243    1.281   .     S
C112   O840    1.283   .     A
C112   O845    1.281   .     A
C113   O246    1.284   .     A
C113   O274    1.283   .     A
C114   C166    1.402   .     A
C114   H212    1.076   .     S
C114   C378    1.381   1_455 S
C115   O247    1.286   .     A
C115   O275    1.285   .     A
C116   O248    1.288   .     A
C116   O272    1.282   .     A
C117   O273    1.285   .     A
C117   O249    1.285   .     A
C118   O250    1.283   .     A
C118   O279    1.285   .     A
C119   O251    1.286   .     A
C119   O280    1.285   .     A
C120   O252    1.286   .     A
C120   O276    1.282   .     A
C121   O253    1.285   .     A
C121   O278    1.284   .     A
C122   O254    1.285   .     A
C122   O265    1.285   .     A
C123   O256    1.287   .     A
C123   O267    1.285   .     A
C124   O257    1.286   .     A
C124   O263    1.285   .     A
C125   H213    1.078   .     S
C125   C167    1.401   .     A
C125   C379    1.383   .     S
C126   O258    1.285   .     A
C126   O264    1.283   .     A
C127   O270    1.284   .     A
C127   O259    1.285   .     A
C128   O260    1.286   .     A
C128   O271    1.283   .     A
C129   O268    1.285   .     A
C129   O261    1.286   .     A
C130   O269    1.285   .     A
C130   O262    1.284   .     A
C131   C148    1.397   .     A
C132   C146    1.396   .     A
C133   C145    1.394   .     A
C134   C144    1.397   .     A
C135   C143    1.397   .     A
C136   H214    1.079   .     S
C136   C168    1.395   .     A
C137   C142    1.397   .     A
C138   C141    1.396   .     A
C139   C140    1.397   .     A
C147   H215    1.079   .     S
C149   C165    1.396   .     A
C150   C164    1.394   .     A
C151   C163    1.397   .     A
C152   C162    1.393   .     A
C153   C161    1.396   .     A
C154   C160    1.397   .     A
C155   C159    1.398   .     A
C156   C157    1.394   .     A
C158   H216    1.077   .     S
C158   C683    1.381   1_545 S
C166   C366    1.426   1_455 S
C167   C368    1.430   .     S
H177   N517    1.042   .     S
H178   N517    1.044   .     S
H179   N525    1.038   1_455 S
H181   N525    1.045   1_455 S
H182   N226    1.037   .     S
H183   N226    1.041   .     S
H184   N227    1.038   .     S
H185   N227    1.040   .     S
H186   N228    1.036   .     S
H187   N228    1.046   .     S
H188   N229    1.035   .     S
H189   N229    1.046   .     S
H190   N230    1.037   .     S
H192   N230    1.045   .     S
H193   N231    1.037   .     S
H194   N231    1.045   .     S
H195   N232    1.051   .     S
H196   N232    1.044   .     S
H197   N218    1.039   .     S
H198   N218    1.045   .     S
H199   N219    1.037   .     S
H200   N219    1.047   .     S
H201   N220    1.031   .     S
H203   N220    1.047   .     S
H204   N221    1.047   .     S
H205   N221    1.056   .     S
H206   N222    1.040   .     S
H207   N222    1.049   .     S
H208   N223    1.039   .     S
H209   N223    1.046   .     S
H210   N224    1.037   .     S
H211   N224    1.046   .     S
N217   H477    1.042   1_455 S
N217   H478    1.044   1_455 S
N225   H479    1.038   .     S
N225   H481    1.045   .     S
N230   C694    1.449   .     S
N231   C695    1.449   1_545 S
O233   Zn892   1.953   1_545 S
O233   Zn285   1.952   .     S
O233   Zn288   1.953   .     S
O233   Zn296   1.953   .     S
O234   Zn287   1.930   .     S
O234   C706    1.282   .     S
O235   Zn290   1.930   .     S
O235   C407    1.281   .     A
O236   Zn289   1.930   .     S
O237   Zn299   1.930   .     S
O238   Zn298   1.930   .     S
O239   Zn293   1.931   .     S
O240   C712    1.283   1_545 A
O240   Zn285   1.931   .     S
O241   Zn295   1.930   .     S
O242   Zn294   1.930   .     S
O243   Zn297   1.930   .     S
O244   Zn291   1.953   .     S
O244   Zn887   1.953   1_545 S
O244   Zn293   1.952   .     S
O244   Zn297   1.953   .     S
O245   C712    1.281   1_545 A
O245   Zn296   1.930   .     S
O246   Zn288   1.952   .     S
O247   Zn287   1.952   .     S
O248   Zn290   1.954   .     S
O249   Zn289   1.954   .     S
O250   Zn292   1.952   .     S
O251   Zn291   1.952   .     S
O252   Zn286   1.954   .     S
O253   Zn300   1.954   .     S
O254   Zn287   1.954   .     S
O255   Zn286   1.952   .     S
O255   Zn294   1.953   .     S
O255   Zn298   1.953   .     S
O255   Zn590   1.953   1_455 S
O256   Zn288   1.954   .     S
O257   Zn300   1.952   .     S
O258   Zn286   1.952   .     S
O259   Zn291   1.954   .     S
O260   Zn292   1.954   .     S
O261   Zn289   1.952   .     S
O262   Zn290   1.952   .     S
O263   Zn595   1.952   .     S
O264   Zn294   1.952   .     S
O265   Zn897   1.954   .     S
O266   Zn295   1.953   .     S
O266   Zn299   1.953   .     S
O266   Zn289   1.953   .     S
O266   Zn600   1.952   1_455 S
O267   Zn296   1.954   .     S
O268   Zn299   1.952   .     S
O269   Zn598   1.952   .     S
O270   Zn293   1.954   .     S
O271   Zn885   1.954   .     S
O272   Zn594   1.954   .     S
O273   Zn295   1.954   .     S
O274   Zn285   1.952   .     S
O275   Zn893   1.952   .     S
O276   Zn298   1.954   .     S
O277   Zn292   1.930   .     S
O278   Zn599   1.954   .     S
O279   Zn896   1.952   .     S
O280   Zn297   1.952   .     S
O281   Zn291   1.930   .     S
O282   Zn286   1.931   .     S
O283   Zn300   1.931   .     S
O283   C408    1.282   .     S
O284   Zn288   1.930   .     S
O284   C705    1.282   1_545 S
Zn285  O871    1.954   1_545 S
Zn287  O844    1.953   .     S
Zn290  O555    1.953   .     S
Zn292  O833    1.953   .     S
Zn293  O875    1.952   1_545 S
Zn294  O572    1.954   1_455 S
Zn295  O563    1.952   1_455 S
Zn296  O879    1.952   1_545 S
Zn297  O865    1.954   1_545 S
Zn298  O569    1.952   1_455 S
Zn299  O578    1.954   1_455 S
Zn300  O566    1.952   .     S
Br301  C431    1.954   .     S
Br302  C441    1.954   .     S
Br303  C442    1.956   .     S
Br304  C443    1.953   .     S
Br305  C444    1.956   .     S
Br306  C445    1.959   .     S
Br307  C446    1.964   .     S
Br308  C448    1.955   .     S
Br309  C449    1.957   .     S
Br310  C450    1.948   .     S
Br311  C451    1.954   .     S
Br312  C432    1.963   .     S
Br313  C452    1.959   .     S
Br314  C453    1.956   .     S
Br315  C454    1.952   .     S
Br316  C455    1.954   .     S
Br317  C456    1.954   .     S
Br318  C457    1.954   .     S
Br319  C459    1.955   .     S
Br320  C460    1.951   .     S
Br321  C461    1.955   .     S
Br322  C462    1.954   .     S
Br323  C433    1.957   .     S
Br324  C463    1.954   .     S
Br325  C464    1.955   .     S
Br326  C465    1.957   .     S
Br327  C434    1.955   .     S
Br328  C435    1.955   .     S
Br329  C437    1.956   .     S
Br330  C438    1.951   .     S
Br331  C439    1.955   .     S
Br332  C440    1.954   .     S
C333   C378    1.382   .     A
C333   C336    1.400   .     A
C333   H469    1.077   .     S
C334   C346    1.409   .     A
C334   C384    1.381   .     A
C334   H470    1.068   .     S
C335   C390    1.422   .     A
C335   C370    1.432   .     A
C335   C447    1.395   .     A
C336   C366    1.428   .     A
C336   C391    1.422   .     A
C337   C368    1.432   .     A
C337   C381    1.400   .     A
C337   C393    1.428   .     A
C338   C392    1.402   .     A
C338   C394    1.432   .     A
C338   C969    1.431   1_545 S
C339   C395    1.432   .     A
C339   C403    1.402   .     A
C339   C970    1.431   .     S
C340   C371    1.423   .     A
C340   C367    1.409   .     A
C340   C396    1.427   .     A
C341   C397    1.427   .     A
C341   C375    1.400   .     A
C341   C972    1.429   1_545 S
C342   C376    1.392   .     A
C342   C398    1.421   .     A
C343   C399    1.428   .     A
C343   C374    1.432   .     A
C343   C377    1.407   .     A
C344   C400    1.423   .     A
C344   C458    1.399   .     A
C344   C971    1.426   1_545 S
C345   C347    1.401   .     A
C345   H471    1.080   .     S
C345   C85     1.384   1_655 S
C346   C372    1.430   .     A
C346   C401    1.424   .     A
C347   C402    1.422   .     A
C347   C373    1.428   .     A
C348   C404    1.435   .     A
C348   C356    1.396   .     A
C349   C420    1.471   .     S
C349   C450    1.417   .     A
C349   C448    1.421   .     A
C350   C421    1.474   .     S
C350   C449    1.422   .     A
C350   C446    1.425   .     A
C351   C445    1.422   .     A
C351   C413    1.467   .     S
C351   C452    1.422   .     A
C352   C444    1.422   .     A
C352   C415    1.474   .     S
C352   C451    1.422   .     A
C353   C416    1.474   .     S
C353   C454    1.418   .     A
C353   C443    1.422   .     A
C354   C453    1.422   .     A
C354   C417    1.473   .     S
C354   C442    1.422   .     A
C355   C441    1.420   .     A
C355   C418    1.467   .     S
C355   C456    1.419   .     A
C356   C386    1.383   .     A
C356   H472    1.077   .     S
C357   C440    1.421   .     A
C357   C455    1.421   .     A
C357   C419    1.475   .     S
C358   C459    1.423   .     A
C358   C429    1.475   .     S
C358   C439    1.422   .     A
C359   C438    1.422   .     A
C359   C457    1.423   .     A
C359   C430    1.470   .     S
C360   C422    1.473   .     S
C360   C437    1.422   .     A
C360   C461    1.422   .     A
C361   C435    1.424   .     A
C361   C460    1.424   .     A
C361   C423    1.476   .     S
C362   C463    1.421   .     A
C362   C424    1.474   .     S
C362   C434    1.422   .     A
C363   C433    1.422   .     A
C363   C426    1.468   .     S
C363   C462    1.421   .     A
C364   C465    1.422   .     A
C364   C427    1.475   .     S
C364   C432    1.425   .     A
C365   C428    1.472   .     S
C365   C431    1.424   .     A
C365   C464    1.421   .     A
C366   C68     1.402   1_655 S
C366   C166    1.426   1_655 S
C367   C383    1.382   .     A
C367   H473    1.073   .     S
C369   C468    1.431   .     A
C369   C938    1.431   .     S
C369   C970    1.401   .     S
C370   C939    1.431   1_545 S
C370   C969    1.401   1_545 S
C371   C944    1.426   .     S
C371   C372    1.406   1_556 S
C372   C941    1.429   .     S
C372   C371    1.406   1_554 S
C373   C42     1.432   1_655 S
C373   C374    1.393   1_556 S
C374   C48     1.432   1_655 S
C374   C373    1.393   1_554 S
C375   H474    1.083   .     S
C375   C984    1.384   1_545 S
C376   H475    1.081   .     S
C376   C385    1.385   .     A
C377   H476    1.074   .     S
C377   C86     1.382   1_655 S
C378   C107    1.434   1_655 S
C378   C114    1.381   1_655 S
C379   C408    1.438   .     S
C379   C381    1.382   .     A
C380   C436    1.382   .     A
C380   C405    1.437   .     S
C380   C992    1.381   .     S
C381   H480    1.074   .     S
C382   C447    1.382   .     A
C382   C406    1.437   .     S
C382   C1003   1.381   1_545 S
C383   C1011   1.431   .     S
C383   C1058   1.381   .     S
C384   C412    1.438   .     S
C384   C975    1.384   .     S
C385   C409    1.434   .     S
C386   C410    1.437   .     S
C387   C393    1.413   .     A
C387   C466    1.426   .     A
C387   N517    1.451   .     S
C388   C391    1.418   .     A
C388   C467    1.430   .     A
C388   N525    1.448   .     S
C389   N526    1.460   .     S
C389   C395    1.416   .     A
C389   C468    1.422   .     A
C390   C394    1.416   .     A
C390   N527    1.460   .     S
C391   N528    1.459   .     S
C392   H491    1.075   .     S
C392   C980    1.381   1_545 S
C393   N529    1.452   .     S
C394   N1130   1.449   1_545 S
C395   N1131   1.449   .     S
C396   N532    1.452   .     S
C396   C401    1.423   1_556 S
C397   N518    1.446   .     S
C397   C400    1.416   1_554 S
C398   N519    1.451   .     S
C398   C404    1.414   1_556 S
C399   N520    1.456   .     S
C399   C402    1.416   1_554 S
C400   N521    1.458   .     S
C400   C397    1.416   1_556 S
C401   N522    1.458   .     S
C401   C396    1.423   1_554 S
C402   N523    1.447   .     S
C402   C399    1.416   1_556 S
C403   H502    1.075   .     S
C403   C982    1.381   .     S
C404   N524    1.454   .     S
C404   C398    1.414   1_554 S
C405   O577    1.281   .     A
C405   O1184   1.282   .     S
C406   O581    1.281   .     A
C406   O1134   1.282   1_545 S
C407   O582    1.281   .     S
C408   O536    1.281   .     A
C409   O537    1.281   .     S
C409   O541    1.281   .     S
C410   O542    1.282   .     A
C410   O538    1.281   .     S
C411   C983    1.431   1_545 S
C411   O539    1.282   .     S
C411   O543    1.281   .     S
C412   O1140   1.283   .     A
C412   O1145   1.281   .     A
C413   O546    1.284   .     A
C413   O574    1.283   .     A
C414   C466    1.402   .     A
C414   H512    1.076   .     S
C415   O547    1.286   .     A
C415   O575    1.285   .     A
C416   O548    1.288   .     A
C416   O572    1.282   .     A
C417   O573    1.285   .     A
C417   O549    1.285   .     A
C418   O550    1.283   .     A
C418   O579    1.285   .     A
C419   O551    1.286   .     A
C419   O580    1.285   .     A
C420   O552    1.286   .     A
C420   O576    1.282   .     A
C421   O553    1.285   .     A
C421   O578    1.284   .     A
C422   O554    1.285   .     A
C422   O565    1.285   .     A
C423   O556    1.287   .     A
C423   O567    1.285   .     A
C424   O557    1.286   .     A
C424   O563    1.285   .     A
C425   H513    1.078   .     S
C425   C467    1.401   .     A
C425   C79     1.383   1_655 S
C426   O558    1.285   .     A
C426   O564    1.283   .     A
C427   O570    1.284   .     A
C427   O559    1.285   .     A
C428   O560    1.286   .     A
C428   O571    1.283   .     A
C429   O568    1.285   .     A
C429   O561    1.286   .     A
C430   O569    1.285   .     A
C430   O562    1.284   .     A
C431   C448    1.397   .     A
C432   C446    1.396   .     A
C433   C445    1.394   .     A
C434   C444    1.397   .     A
C435   C443    1.397   .     A
C436   H514    1.079   .     S
C436   C468    1.395   .     A
C437   C442    1.397   .     A
C438   C441    1.396   .     A
C439   C440    1.397   .     A
C447   H515    1.079   .     S
C449   C465    1.396   .     A
C450   C464    1.394   .     A
C451   C463    1.397   .     A
C452   C462    1.393   .     A
C453   C461    1.396   .     A
C454   C460    1.397   .     A
C455   C459    1.398   .     A
C456   C457    1.394   .     A
C458   H516    1.077   .     S
C458   C983    1.381   1_545 S
C467   C68     1.430   1_655 S
H477   N217    1.042   1_655 S
H478   N217    1.044   1_655 S
H482   N526    1.037   .     S
H483   N526    1.041   .     S
H484   N527    1.038   .     S
H485   N527    1.040   .     S
H486   N528    1.036   .     S
H487   N528    1.046   .     S
H488   N529    1.035   .     S
H489   N529    1.046   .     S
H490   N530    1.037   .     S
H492   N530    1.045   .     S
H493   N531    1.037   .     S
H494   N531    1.045   .     S
H495   N532    1.051   .     S
H496   N532    1.044   .     S
H497   N518    1.039   .     S
H498   N518    1.045   .     S
H499   N519    1.037   .     S
H500   N519    1.047   .     S
H501   N520    1.031   .     S
H503   N520    1.047   .     S
H504   N521    1.047   .     S
H505   N521    1.056   .     S
H506   N522    1.040   .     S
H507   N522    1.049   .     S
H508   N523    1.039   .     S
H509   N523    1.046   .     S
H510   N524    1.037   .     S
H511   N524    1.046   .     S
N525   H179    1.038   1_655 S
N525   H181    1.045   1_655 S
N530   C994    1.449   .     S
N531   C995    1.449   1_545 S
O533   Zn1192  1.953   1_545 S
O533   Zn585   1.952   .     S
O533   Zn588   1.953   .     S
O533   Zn596   1.953   .     S
O534   Zn587   1.930   .     S
O534   C1006   1.282   .     S
O535   Zn590   1.930   .     S
O535   C107    1.281   1_655 A
O536   Zn589   1.930   .     S
O537   Zn599   1.930   .     S
O538   Zn598   1.930   .     S
O539   Zn593   1.931   .     S
O540   C1012   1.283   1_545 A
O540   Zn585   1.931   .     S
O541   Zn595   1.930   .     S
O542   Zn594   1.930   .     S
O543   Zn597   1.930   .     S
O544   Zn591   1.953   .     S
O544   Zn1187  1.953   1_545 S
O544   Zn593   1.952   .     S
O544   Zn597   1.953   .     S
O545   C1012   1.281   1_545 A
O545   Zn596   1.930   .     S
O546   Zn588   1.952   .     S
O547   Zn587   1.952   .     S
O548   Zn590   1.954   .     S
O549   Zn589   1.954   .     S
O550   Zn592   1.952   .     S
O551   Zn591   1.952   .     S
O552   Zn586   1.954   .     S
O553   Zn600   1.954   .     S
O554   Zn587   1.954   .     S
O555   Zn586   1.952   .     S
O555   Zn594   1.953   .     S
O555   Zn598   1.953   .     S
O556   Zn588   1.954   .     S
O557   Zn600   1.952   .     S
O558   Zn586   1.952   .     S
O559   Zn591   1.954   .     S
O560   Zn592   1.954   .     S
O561   Zn589   1.952   .     S
O562   Zn590   1.952   .     S
O563   Zn295   1.952   1_655 S
O564   Zn594   1.952   .     S
O565   Zn1197  1.954   .     S
O566   Zn595   1.953   .     S
O566   Zn599   1.953   .     S
O566   Zn589   1.953   .     S
O567   Zn596   1.954   .     S
O568   Zn599   1.952   .     S
O569   Zn298   1.952   1_655 S
O570   Zn593   1.954   .     S
O571   Zn1185  1.954   .     S
O572   Zn294   1.954   1_655 S
O573   Zn595   1.954   .     S
O574   Zn585   1.952   .     S
O575   Zn1193  1.952   .     S
O576   Zn598   1.954   .     S
O577   Zn592   1.930   .     S
O578   Zn299   1.954   1_655 S
O579   Zn1196  1.952   .     S
O580   Zn597   1.952   .     S
O581   Zn591   1.930   .     S
O582   Zn586   1.931   .     S
O583   Zn600   1.931   .     S
O583   C108    1.282   1_655 S
O584   Zn588   1.930   .     S
O584   C1005   1.282   1_545 S
Zn585  O1171   1.954   1_545 S
Zn587  O1144   1.953   .     S
Zn590  O255    1.953   1_655 S
Zn592  O1133   1.953   .     S
Zn593  O1175   1.952   1_545 S
Zn596  O1179   1.952   1_545 S
Zn597  O1165   1.954   1_545 S
Zn600  O266    1.952   1_655 S
Br601  C731    1.954   .     S
Br602  C741    1.954   .     S
Br603  C742    1.956   .     S
Br604  C743    1.953   .     S
Br605  C744    1.956   .     S
Br606  C745    1.959   .     S
Br607  C746    1.964   .     S
Br608  C748    1.955   .     S
Br609  C749    1.957   .     S
Br610  C750    1.948   .     S
Br611  C751    1.954   .     S
Br612  C732    1.963   .     S
Br613  C752    1.959   .     S
Br614  C753    1.956   .     S
Br615  C754    1.952   .     S
Br616  C755    1.954   .     S
Br617  C756    1.954   .     S
Br618  C757    1.954   .     S
Br619  C759    1.955   .     S
Br620  C760    1.951   .     S
Br621  C761    1.955   .     S
Br622  C762    1.954   .     S
Br623  C733    1.957   .     S
Br624  C763    1.954   .     S
Br625  C764    1.955   .     S
Br626  C765    1.957   .     S
Br627  C734    1.955   .     S
Br628  C735    1.955   .     S
Br629  C737    1.956   .     S
Br630  C738    1.951   .     S
Br631  C739    1.955   .     S
Br632  C740    1.954   .     S
C633   C678    1.382   .     A
C633   C636    1.400   .     A
C633   H769    1.077   .     S
C634   C646    1.409   .     A
C634   C684    1.381   .     A
C634   H770    1.068   .     S
C635   C690    1.422   .     A
C635   C670    1.432   .     A
C635   C747    1.395   .     A
C636   C666    1.428   .     A
C636   C691    1.422   .     A
C637   C668    1.432   .     A
C637   C681    1.400   .     A
C637   C693    1.428   .     A
C638   C692    1.402   .     A
C638   C694    1.432   .     A
C639   C695    1.432   .     A
C639   C703    1.402   .     A
C639   C70     1.431   1_565 S
C640   C671    1.423   .     A
C640   C667    1.409   .     A
C640   C696    1.427   .     A
C641   C697    1.427   .     A
C641   C675    1.400   .     A
C642   C676    1.392   .     A
C642   C698    1.421   .     A
C642   C973    1.432   1_455 S
C643   C699    1.428   .     A
C643   C674    1.432   .     A
C643   C677    1.407   .     A
C644   C700    1.423   .     A
C644   C758    1.399   .     A
C645   C647    1.401   .     A
C645   H771    1.080   .     S
C645   C985    1.384   .     S
C646   C672    1.430   .     A
C646   C701    1.424   .     A
C647   C702    1.422   .     A
C647   C673    1.428   .     A
C648   C704    1.435   .     A
C648   C656    1.396   .     A
C648   C974    1.432   1_455 S
C649   C720    1.471   .     S
C649   C750    1.417   .     A
C649   C748    1.421   .     A
C650   C721    1.474   .     S
C650   C749    1.422   .     A
C650   C746    1.425   .     A
C651   C745    1.422   .     A
C651   C713    1.467   .     S
C651   C752    1.422   .     A
C652   C744    1.422   .     A
C652   C715    1.474   .     S
C652   C751    1.422   .     A
C653   C716    1.474   .     S
C653   C754    1.418   .     A
C653   C743    1.422   .     A
C654   C753    1.422   .     A
C654   C717    1.473   .     S
C654   C742    1.422   .     A
C655   C741    1.420   .     A
C655   C718    1.467   .     S
C655   C756    1.419   .     A
C656   C686    1.383   .     A
C656   H772    1.077   .     S
C657   C740    1.421   .     A
C657   C755    1.421   .     A
C657   C719    1.475   .     S
C658   C759    1.423   .     A
C658   C729    1.475   .     S
C658   C739    1.422   .     A
C659   C738    1.422   .     A
C659   C757    1.423   .     A
C659   C730    1.470   .     S
C660   C722    1.473   .     S
C660   C737    1.422   .     A
C660   C761    1.422   .     A
C661   C735    1.424   .     A
C661   C760    1.424   .     A
C661   C723    1.476   .     S
C662   C763    1.421   .     A
C662   C724    1.474   .     S
C662   C734    1.422   .     A
C663   C733    1.422   .     A
C663   C726    1.468   .     S
C663   C762    1.421   .     A
C664   C765    1.422   .     A
C664   C727    1.475   .     S
C664   C732    1.425   .     A
C665   C728    1.472   .     S
C665   C731    1.424   .     A
C665   C764    1.421   .     A
C666   C968    1.402   .     S
C666   C1066   1.426   .     S
C667   C683    1.382   .     A
C667   H773    1.073   .     S
C668   C966    1.402   1_455 S
C668   C1067   1.430   1_455 S
C669   C768    1.431   .     A
C669   C38     1.431   1_565 S
C669   C70     1.401   1_565 S
C671   C44     1.426   1_565 S
C671   C672    1.406   1_556 S
C672   C41     1.429   1_565 S
C672   C671    1.406   1_554 S
C673   C942    1.432   .     S
C673   C674    1.393   1_556 S
C674   C948    1.432   .     S
C674   C673    1.393   1_554 S
C675   H774    1.083   .     S
C676   H775    1.081   .     S
C676   C685    1.385   .     A
C677   H776    1.074   .     S
C677   C986    1.382   .     S
C678   C1007   1.434   .     S
C678   C1014   1.381   .     S
C679   C708    1.438   .     S
C679   C681    1.382   .     A
C679   C1025   1.383   1_455 S
C680   C736    1.382   .     A
C680   C705    1.437   .     S
C680   C92     1.381   1_565 S
C681   H780    1.074   .     S
C682   C747    1.382   .     A
C682   C706    1.437   .     S
C683   C111    1.431   1_565 S
C683   C158    1.381   1_565 S
C684   C712    1.438   .     S
C684   C75     1.384   1_565 S
C685   C709    1.434   .     S
C685   C945    1.384   1_455 S
C686   C710    1.437   .     S
C686   C977    1.382   1_455 S
C687   C693    1.413   .     A
C687   C766    1.426   .     A
C687   N817    1.451   .     S
C688   C691    1.418   .     A
C688   C767    1.430   .     A
C688   N825    1.448   .     S
C689   N826    1.460   .     S
C689   C695    1.416   .     A
C689   C768    1.422   .     A
C690   C694    1.416   .     A
C690   N827    1.460   .     S
C691   N828    1.459   .     S
C692   H791    1.075   .     S
C693   N829    1.452   .     S
C695   N231    1.449   1_565 S
C696   N832    1.452   .     S
C696   C701    1.423   1_556 S
C697   N818    1.446   .     S
C697   C700    1.416   1_554 S
C698   N819    1.451   .     S
C698   C704    1.414   1_556 S
C699   N820    1.456   .     S
C699   C702    1.416   1_554 S
C700   N821    1.458   .     S
C700   C697    1.416   1_556 S
C701   N822    1.458   .     S
C701   C696    1.423   1_554 S
C702   N823    1.447   .     S
C702   C699    1.416   1_556 S
C703   H802    1.075   .     S
C703   C82     1.381   1_565 S
C704   N824    1.454   .     S
C704   C698    1.414   1_554 S
C705   O877    1.281   .     A
C705   O284    1.282   1_565 S
C706   O881    1.281   .     A
C707   C978    1.434   1_455 S
C707   O1135   1.281   1_455 A
C707   O882    1.281   .     S
C708   O836    1.281   .     A
C708   O1183   1.282   1_455 S
C709   O837    1.281   .     S
C709   O841    1.281   .     S
C710   O842    1.282   .     A
C710   O838    1.281   .     S
C711   O839    1.282   .     S
C711   O843    1.281   .     S
C712   O240    1.283   1_565 A
C712   O245    1.281   1_565 A
C713   O846    1.284   .     A
C713   O874    1.283   .     A
C714   C766    1.402   .     A
C714   H812    1.076   .     S
C714   C978    1.381   1_455 S
C715   O847    1.286   .     A
C715   O875    1.285   .     A
C716   O848    1.288   .     A
C716   O872    1.282   .     A
C717   O873    1.285   .     A
C717   O849    1.285   .     A
C718   O850    1.283   .     A
C718   O879    1.285   .     A
C719   O851    1.286   .     A
C719   O880    1.285   .     A
C720   O852    1.286   .     A
C720   O876    1.282   .     A
C721   O853    1.285   .     A
C721   O878    1.284   .     A
C722   O854    1.285   .     A
C722   O865    1.285   .     A
C723   O856    1.287   .     A
C723   O867    1.285   .     A
C724   O857    1.286   .     A
C724   O863    1.285   .     A
C725   H813    1.078   .     S
C725   C767    1.401   .     A
C725   C979    1.383   .     S
C726   O858    1.285   .     A
C726   O864    1.283   .     A
C727   O870    1.284   .     A
C727   O859    1.285   .     A
C728   O860    1.286   .     A
C728   O871    1.283   .     A
C729   O868    1.285   .     A
C729   O861    1.286   .     A
C730   O869    1.285   .     A
C730   O862    1.284   .     A
C731   C748    1.397   .     A
C732   C746    1.396   .     A
C733   C745    1.394   .     A
C734   C744    1.397   .     A
C735   C743    1.397   .     A
C736   H814    1.079   .     S
C736   C768    1.395   .     A
C737   C742    1.397   .     A
C738   C741    1.396   .     A
C739   C740    1.397   .     A
C747   H815    1.079   .     S
C749   C765    1.396   .     A
C750   C764    1.394   .     A
C751   C763    1.397   .     A
C752   C762    1.393   .     A
C753   C761    1.396   .     A
C754   C760    1.397   .     A
C755   C759    1.398   .     A
C756   C757    1.394   .     A
C758   H816    1.077   .     S
C766   C966    1.426   1_455 S
C767   C968    1.430   .     S
H777   N1117   1.042   .     S
H778   N1117   1.044   .     S
H779   N1125   1.038   1_455 S
H781   N1125   1.045   1_455 S
H782   N826    1.037   .     S
H783   N826    1.041   .     S
H784   N827    1.038   .     S
H785   N827    1.040   .     S
H786   N828    1.036   .     S
H787   N828    1.046   .     S
H788   N829    1.035   .     S
H789   N829    1.046   .     S
H790   N830    1.037   .     S
H792   N830    1.045   .     S
H793   N831    1.037   .     S
H794   N831    1.045   .     S
H795   N832    1.051   .     S
H796   N832    1.044   .     S
H797   N818    1.039   .     S
H798   N818    1.045   .     S
H799   N819    1.037   .     S
H800   N819    1.047   .     S
H801   N820    1.031   .     S
H803   N820    1.047   .     S
H804   N821    1.047   .     S
H805   N821    1.056   .     S
H806   N822    1.040   .     S
H807   N822    1.049   .     S
H808   N823    1.039   .     S
H809   N823    1.046   .     S
H810   N824    1.037   .     S
H811   N824    1.046   .     S
N817   H1077   1.042   1_455 S
N817   H1078   1.044   1_455 S
N825   H1079   1.038   .     S
N825   H1081   1.045   .     S
N830   C94     1.449   1_565 S
O833   Zn885   1.952   .     S
O833   Zn888   1.953   .     S
O833   Zn896   1.953   .     S
O834   Zn887   1.930   .     S
O834   C106    1.282   1_565 S
O835   Zn890   1.930   .     S
O835   C1007   1.281   .     A
O836   Zn889   1.930   .     S
O837   Zn899   1.930   .     S
O838   Zn898   1.930   .     S
O839   Zn893   1.931   .     S
O840   Zn885   1.931   .     S
O841   Zn895   1.930   .     S
O842   Zn894   1.930   .     S
O843   Zn897   1.930   .     S
O844   Zn891   1.953   .     S
O844   Zn893   1.952   .     S
O844   Zn897   1.953   .     S
O845   Zn896   1.930   .     S
O846   Zn888   1.952   .     S
O847   Zn887   1.952   .     S
O848   Zn890   1.954   .     S
O849   Zn889   1.954   .     S
O850   Zn892   1.952   .     S
O851   Zn891   1.952   .     S
O852   Zn886   1.954   .     S
O853   Zn900   1.954   .     S
O854   Zn887   1.954   .     S
O855   Zn886   1.952   .     S
O855   Zn894   1.953   .     S
O855   Zn898   1.953   .     S
O855   Zn1190  1.953   1_455 S
O856   Zn888   1.954   .     S
O857   Zn900   1.952   .     S
O858   Zn886   1.952   .     S
O859   Zn891   1.954   .     S
O860   Zn892   1.954   .     S
O861   Zn889   1.952   .     S
O862   Zn890   1.952   .     S
O863   Zn1195  1.952   .     S
O864   Zn894   1.952   .     S
O865   Zn297   1.954   1_565 S
O866   Zn895   1.953   .     S
O866   Zn899   1.953   .     S
O866   Zn889   1.953   .     S
O866   Zn1200  1.952   1_455 S
O867   Zn896   1.954   .     S
O868   Zn899   1.952   .     S
O869   Zn1198  1.952   .     S
O870   Zn893   1.954   .     S
O871   Zn285   1.954   1_565 S
O872   Zn1194  1.954   .     S
O873   Zn895   1.954   .     S
O874   Zn885   1.952   .     S
O875   Zn293   1.952   1_565 S
O876   Zn898   1.954   .     S
O877   Zn892   1.930   .     S
O878   Zn1199  1.954   .     S
O879   Zn296   1.952   1_565 S
O880   Zn897   1.952   .     S
O881   Zn891   1.930   .     S
O882   Zn886   1.931   .     S
O883   Zn900   1.931   .     S
O883   C1008   1.282   .     S
O884   Zn888   1.930   .     S
Zn887  O244    1.953   1_565 S
Zn890  O1155   1.953   .     S
Zn892  O233    1.953   1_565 S
Zn894  O1172   1.954   1_455 S
Zn895  O1163   1.952   1_455 S
Zn898  O1169   1.952   1_455 S
Zn899  O1178   1.954   1_455 S
Zn900  O1166   1.952   .     S
Br901  C1031   1.954   .     S
Br902  C1041   1.954   .     S
Br903  C1042   1.956   .     S
Br904  C1043   1.953   .     S
Br905  C1044   1.956   .     S
Br906  C1045   1.959   .     S
Br907  C1046   1.964   .     S
Br908  C1048   1.955   .     S
Br909  C1049   1.957   .     S
Br910  C1050   1.948   .     S
Br911  C1051   1.954   .     S
Br912  C1032   1.963   .     S
Br913  C1052   1.959   .     S
Br914  C1053   1.956   .     S
Br915  C1054   1.952   .     S
Br916  C1055   1.954   .     S
Br917  C1056   1.954   .     S
Br918  C1057   1.954   .     S
Br919  C1059   1.955   .     S
Br920  C1060   1.951   .     S
Br921  C1061   1.955   .     S
Br922  C1062   1.954   .     S
Br923  C1033   1.957   .     S
Br924  C1063   1.954   .     S
Br925  C1064   1.955   .     S
Br926  C1065   1.957   .     S
Br927  C1034   1.955   .     S
Br928  C1035   1.955   .     S
Br929  C1037   1.956   .     S
Br930  C1038   1.951   .     S
Br931  C1039   1.955   .     S
Br932  C1040   1.954   .     S
C933   C978    1.382   .     A
C933   C936    1.400   .     A
C933   H1069   1.077   .     S
C934   C946    1.409   .     A
C934   C984    1.381   .     A
C934   H1070   1.068   .     S
C935   C990    1.422   .     A
C935   C970    1.432   .     A
C935   C1047   1.395   .     A
C936   C966    1.428   .     A
C936   C991    1.422   .     A
C937   C968    1.432   .     A
C937   C981    1.400   .     A
C937   C993    1.428   .     A
C938   C992    1.402   .     A
C938   C994    1.432   .     A
C939   C995    1.432   .     A
C939   C1003   1.402   .     A
C939   C370    1.431   1_565 S
C940   C971    1.423   .     A
C940   C967    1.409   .     A
C940   C996    1.427   .     A
C941   C997    1.427   .     A
C941   C975    1.400   .     A
C942   C976    1.392   .     A
C942   C998    1.421   .     A
C943   C999    1.428   .     A
C943   C974    1.432   .     A
C943   C977    1.407   .     A
C944   C1000   1.423   .     A
C944   C1058   1.399   .     A
C945   C947    1.401   .     A
C945   H1071   1.080   .     S
C945   C685    1.384   1_655 S
C946   C972    1.430   .     A
C946   C1001   1.424   .     A
C947   C1002   1.422   .     A
C947   C973    1.428   .     A
C948   C1004   1.435   .     A
C948   C956    1.396   .     A
C949   C1020   1.471   .     S
C949   C1050   1.417   .     A
C949   C1048   1.421   .     A
C950   C1021   1.474   .     S
C950   C1049   1.422   .     A
C950   C1046   1.425   .     A
C951   C1045   1.422   .     A
C951   C1013   1.467   .     S
C951   C1052   1.422   .     A
C952   C1044   1.422   .     A
C952   C1015   1.474   .     S
C952   C1051   1.422   .     A
C953   C1016   1.474   .     S
C953   C1054   1.418   .     A
C953   C1043   1.422   .     A
C954   C1053   1.422   .     A
C954   C1017   1.473   .     S
C954   C1042   1.422   .     A
C955   C1041   1.420   .     A
C955   C1018   1.467   .     S
C955   C1056   1.419   .     A
C956   C986    1.383   .     A
C956   H1072   1.077   .     S
C957   C1040   1.421   .     A
C957   C1055   1.421   .     A
C957   C1019   1.475   .     S
C958   C1059   1.423   .     A
C958   C1029   1.475   .     S
C958   C1039   1.422   .     A
C959   C1038   1.422   .     A
C959   C1057   1.423   .     A
C959   C1030   1.470   .     S
C960   C1022   1.473   .     S
C960   C1037   1.422   .     A
C960   C1061   1.422   .     A
C961   C1035   1.424   .     A
C961   C1060   1.424   .     A
C961   C1023   1.476   .     S
C962   C1063   1.421   .     A
C962   C1024   1.474   .     S
C962   C1034   1.422   .     A
C963   C1033   1.422   .     A
C963   C1026   1.468   .     S
C963   C1062   1.421   .     A
C964   C1065   1.422   .     A
C964   C1027   1.475   .     S
C964   C1032   1.425   .     A
C965   C1028   1.472   .     S
C965   C1031   1.424   .     A
C965   C1064   1.421   .     A
C966   C668    1.402   1_655 S
C966   C766    1.426   1_655 S
C967   C983    1.382   .     A
C967   H1073   1.073   .     S
C969   C1068   1.431   .     A
C969   C338    1.431   1_565 S
C969   C370    1.401   1_565 S
C971   C344    1.426   1_565 S
C971   C972    1.406   1_556 S
C972   C341    1.429   1_565 S
C972   C971    1.406   1_554 S
C973   C642    1.432   1_655 S
C973   C974    1.393   1_556 S
C974   C648    1.432   1_655 S
C974   C973    1.393   1_554 S
C975   H1074   1.083   .     S
C976   H1075   1.081   .     S
C976   C985    1.385   .     A
C977   H1076   1.074   .     S
C977   C686    1.382   1_655 S
C978   C707    1.434   1_655 S
C978   C714    1.381   1_655 S
C979   C1008   1.438   .     S
C979   C981    1.382   .     A
C980   C1036   1.382   .     A
C980   C1005   1.437   .     S
C980   C392    1.381   1_565 S
C981   H1080   1.074   .     S
C982   C1047   1.382   .     A
C982   C1006   1.437   .     S
C983   C411    1.431   1_565 S
C983   C458    1.381   1_565 S
C984   C1012   1.438   .     S
C984   C375    1.384   1_565 S
C985   C1009   1.434   .     S
C986   C1010   1.437   .     S
C987   C993    1.413   .     A
C987   C1066   1.426   .     A
C987   N1117   1.451   .     S
C988   C991    1.418   .     A
C988   C1067   1.430   .     A
C988   N1125   1.448   .     S
C989   N1126   1.460   .     S
C989   C995    1.416   .     A
C989   C1068   1.422   .     A
C990   C994    1.416   .     A
C990   N1127   1.460   .     S
C991   N1128   1.459   .     S
C992   H1091   1.075   .     S
C993   N1129   1.452   .     S
C995   N531    1.449   1_565 S
C996   N1132   1.452   .     S
C996   C1001   1.423   1_556 S
C997   N1118   1.446   .     S
C997   C1000   1.416   1_554 S
C998   N1119   1.451   .     S
C998   C1004   1.414   1_556 S
C999   N1120   1.456   .     S
C999   C1002   1.416   1_554 S
C1000  N1121   1.458   .     S
C1000  C997    1.416   1_556 S
C1001  N1122   1.458   .     S
C1001  C996    1.423   1_554 S
C1002  N1123   1.447   .     S
C1002  C999    1.416   1_556 S
C1003  H1102   1.075   .     S
C1003  C382    1.381   1_565 S
C1004  N1124   1.454   .     S
C1004  C998    1.414   1_554 S
C1005  O1177   1.281   .     A
C1005  O584    1.282   1_565 S
C1006  O1181   1.281   .     A
C1007  O1182   1.281   .     S
C1008  O1136   1.281   .     A
C1009  O1137   1.281   .     S
C1009  O1141   1.281   .     S
C1010  O1142   1.282   .     A
C1010  O1138   1.281   .     S
C1011  O1139   1.282   .     S
C1011  O1143   1.281   .     S
C1012  O540    1.283   1_565 A
C1012  O545    1.281   1_565 A
C1013  O1146   1.284   .     A
C1013  O1174   1.283   .     A
C1014  C1066   1.402   .     A
C1014  H1112   1.076   .     S
C1015  O1147   1.286   .     A
C1015  O1175   1.285   .     A
C1016  O1148   1.288   .     A
C1016  O1172   1.282   .     A
C1017  O1173   1.285   .     A
C1017  O1149   1.285   .     A
C1018  O1150   1.283   .     A
C1018  O1179   1.285   .     A
C1019  O1151   1.286   .     A
C1019  O1180   1.285   .     A
C1020  O1152   1.286   .     A
C1020  O1176   1.282   .     A
C1021  O1153   1.285   .     A
C1021  O1178   1.284   .     A
C1022  O1154   1.285   .     A
C1022  O1165   1.285   .     A
C1023  O1156   1.287   .     A
C1023  O1167   1.285   .     A
C1024  O1157   1.286   .     A
C1024  O1163   1.285   .     A
C1025  H1113   1.078   .     S
C1025  C1067   1.401   .     A
C1025  C679    1.383   1_655 S
C1026  O1158   1.285   .     A
C1026  O1164   1.283   .     A
C1027  O1170   1.284   .     A
C1027  O1159   1.285   .     A
C1028  O1160   1.286   .     A
C1028  O1171   1.283   .     A
C1029  O1168   1.285   .     A
C1029  O1161   1.286   .     A
C1030  O1169   1.285   .     A
C1030  O1162   1.284   .     A
C1031  C1048   1.397   .     A
C1032  C1046   1.396   .     A
C1033  C1045   1.394   .     A
C1034  C1044   1.397   .     A
C1035  C1043   1.397   .     A
C1036  H1114   1.079   .     S
C1036  C1068   1.395   .     A
C1037  C1042   1.397   .     A
C1038  C1041   1.396   .     A
C1039  C1040   1.397   .     A
C1047  H1115   1.079   .     S
C1049  C1065   1.396   .     A
C1050  C1064   1.394   .     A
C1051  C1063   1.397   .     A
C1052  C1062   1.393   .     A
C1053  C1061   1.396   .     A
C1054  C1060   1.397   .     A
C1055  C1059   1.398   .     A
C1056  C1057   1.394   .     A
C1058  H1116   1.077   .     S
C1067  C668    1.430   1_655 S
H1077  N817    1.042   1_655 S
H1078  N817    1.044   1_655 S
H1082  N1126   1.037   .     S
H1083  N1126   1.041   .     S
H1084  N1127   1.038   .     S
H1085  N1127   1.040   .     S
H1086  N1128   1.036   .     S
H1087  N1128   1.046   .     S
H1088  N1129   1.035   .     S
H1089  N1129   1.046   .     S
H1090  N1130   1.037   .     S
H1092  N1130   1.045   .     S
H1093  N1131   1.037   .     S
H1094  N1131   1.045   .     S
H1095  N1132   1.051   .     S
H1096  N1132   1.044   .     S
H1097  N1118   1.039   .     S
H1098  N1118   1.045   .     S
H1099  N1119   1.037   .     S
H1100  N1119   1.047   .     S
H1101  N1120   1.031   .     S
H1103  N1120   1.047   .     S
H1104  N1121   1.047   .     S
H1105  N1121   1.056   .     S
H1106  N1122   1.040   .     S
H1107  N1122   1.049   .     S
H1108  N1123   1.039   .     S
H1109  N1123   1.046   .     S
H1110  N1124   1.037   .     S
H1111  N1124   1.046   .     S
N1125  H779    1.038   1_655 S
N1125  H781    1.045   1_655 S
N1130  C394    1.449   1_565 S
O1133  Zn1185  1.952   .     S
O1133  Zn1188  1.953   .     S
O1133  Zn1196  1.953   .     S
O1134  Zn1187  1.930   .     S
O1134  C406    1.282   1_565 S
O1135  Zn1190  1.930   .     S
O1135  C707    1.281   1_655 A
O1136  Zn1189  1.930   .     S
O1137  Zn1199  1.930   .     S
O1138  Zn1198  1.930   .     S
O1139  Zn1193  1.931   .     S
O1140  Zn1185  1.931   .     S
O1141  Zn1195  1.930   .     S
O1142  Zn1194  1.930   .     S
O1143  Zn1197  1.930   .     S
O1144  Zn1191  1.953   .     S
O1144  Zn1193  1.952   .     S
O1144  Zn1197  1.953   .     S
O1145  Zn1196  1.930   .     S
O1146  Zn1188  1.952   .     S
O1147  Zn1187  1.952   .     S
O1148  Zn1190  1.954   .     S
O1149  Zn1189  1.954   .     S
O1150  Zn1192  1.952   .     S
O1151  Zn1191  1.952   .     S
O1152  Zn1186  1.954   .     S
O1153  Zn1200  1.954   .     S
O1154  Zn1187  1.954   .     S
O1155  Zn1186  1.952   .     S
O1155  Zn1194  1.953   .     S
O1155  Zn1198  1.953   .     S
O1156  Zn1188  1.954   .     S
O1157  Zn1200  1.952   .     S
O1158  Zn1186  1.952   .     S
O1159  Zn1191  1.954   .     S
O1160  Zn1192  1.954   .     S
O1161  Zn1189  1.952   .     S
O1162  Zn1190  1.952   .     S
O1163  Zn895   1.952   1_655 S
O1164  Zn1194  1.952   .     S
O1165  Zn597   1.954   1_565 S
O1166  Zn1195  1.953   .     S
O1166  Zn1199  1.953   .     S
O1166  Zn1189  1.953   .     S
O1167  Zn1196  1.954   .     S
O1168  Zn1199  1.952   .     S
O1169  Zn898   1.952   1_655 S
O1170  Zn1193  1.954   .     S
O1171  Zn585   1.954   1_565 S
O1172  Zn894   1.954   1_655 S
O1173  Zn1195  1.954   .     S
O1174  Zn1185  1.952   .     S
O1175  Zn593   1.952   1_565 S
O1176  Zn1198  1.954   .     S
O1177  Zn1192  1.930   .     S
O1178  Zn899   1.954   1_655 S
O1179  Zn596   1.952   1_565 S
O1180  Zn1197  1.952   .     S
O1181  Zn1191  1.930   .     S
O1182  Zn1186  1.931   .     S
O1183  Zn1200  1.931   .     S
O1183  C708    1.282   1_655 S
O1184  Zn1188  1.930   .     S
Zn1187 O544    1.953   1_565 S
Zn1190 O855    1.953   1_655 S
Zn1192 O533    1.953   1_565 S
Zn1200 O866    1.952   1_655 S
