data_str_m1_o5_o17_pcu_sym.98
_audit_creation_date              2020-01-03
_audit_creation_method            'Materials Studio'
_symmetry_space_group_name_H-M    'P1'
_symmetry_Int_Tables_number       1
_symmetry_cell_setting            triclinic
loop_
_symmetry_equiv_pos_as_xyz
  x,y,z
_cell_length_a                    31.7952
_cell_length_b                    31.7951
_cell_length_c                    34.4569
_cell_angle_alpha                 89.9737
_cell_angle_beta                  89.9740
_cell_angle_gamma                 89.9794
loop_
_atom_site_label
_atom_site_type_symbol
_atom_site_fract_x
_atom_site_fract_y
_atom_site_fract_z
_atom_site_U_iso_or_equiv
_atom_site_adp_type
_atom_site_occupancy
Br1    Br    0.47179   0.33539   0.38716   0.00000  Uiso   1.00
Br2    Br    0.27674   0.41416   0.11284   0.00000  Uiso   1.00
Br3    Br    0.41621   0.28247   0.88926   0.00000  Uiso   1.00
Br4    Br    0.08379   0.21753   0.11075   0.00000  Uiso   1.00
Br5    Br    0.28021   0.41540   0.88924   0.00000  Uiso   1.00
Br6    Br    0.21981   0.08462   0.11077   0.00000  Uiso   1.00
Br7    Br    0.08513   0.22101   0.88716   0.00000  Uiso   1.00
Br8    Br    0.41487   0.27901   0.11283   0.00000  Uiso   1.00
Br9    Br    0.02821   0.16461   0.61284   0.00000  Uiso   1.00
Br10   Br    0.16588   0.03158   0.38925   0.00000  Uiso   1.00
Br11   Br    0.33411   0.46842   0.61075   0.00000  Uiso   1.00
Br12   Br    0.03166   0.16591   0.38925   0.00000  Uiso   1.00
Br13   Br    0.46834   0.33409   0.61075   0.00000  Uiso   1.00
Br14   Br    0.33541   0.47188   0.38716   0.00000  Uiso   1.00
Br15   Br    0.16459   0.02813   0.61284   0.00000  Uiso   1.00
Br16   Br    0.22324   0.08584   0.88715   0.00000  Uiso   1.00
C17    C     0.25000   0.49998   0.35584   0.00000  Uiso   1.00
C18    C     0.33002   0.41998   0.75000   0.00000  Uiso   1.00
C19    C     0.42294   0.25664   0.02005   0.00000  Uiso   1.00
C20    C     0.24548   0.07723   0.97993   0.00000  Uiso   1.00
C21    C     0.25449   0.42278   0.02006   0.00000  Uiso   1.00
C22    C     0.42335   0.25316   0.97938   0.00000  Uiso   1.00
C23    C     0.07666   0.24680   0.02062   0.00000  Uiso   1.00
C24    C     0.41997   0.16998   0.25000   0.00000  Uiso   1.00
C25    C     0.08003   0.33002   0.75000   0.00000  Uiso   1.00
C26    C     0.33002   0.41998   0.25000   0.00000  Uiso   1.00
C27    C     0.16998   0.08002   0.75000   0.00000  Uiso   1.00
C28    C     0.08002   0.33003   0.25000   0.00000  Uiso   1.00
C29    C     0.41998   0.16997   0.75000   0.00000  Uiso   1.00
C30    C     0.16997   0.41998   0.75000   0.00000  Uiso   1.00
C31    C     0.33003   0.08002   0.25000   0.00000  Uiso   1.00
C32    C     0.41998   0.33002   0.75000   0.00000  Uiso   1.00
C33    C     0.25000   0.00002   0.64416   0.00000  Uiso   1.00
C34    C     0.08002   0.16998   0.25000   0.00000  Uiso   1.00
C35    C     0.33002   0.08003   0.75000   0.00000  Uiso   1.00
C36    C     0.16998   0.41997   0.25000   0.00000  Uiso   1.00
C37    C     0.08002   0.16998   0.75000   0.00000  Uiso   1.00
C38    C     0.41998   0.33002   0.25000   0.00000  Uiso   1.00
C39    C     0.13833   0.38832   0.25000   0.00000  Uiso   1.00
C40    C     0.36167   0.11168   0.75000   0.00000  Uiso   1.00
C41    C     0.11167   0.13833   0.25000   0.00000  Uiso   1.00
C42    C     0.38833   0.36167   0.75000   0.00000  Uiso   1.00
C43    C     0.36168   0.11167   0.25000   0.00000  Uiso   1.00
C44    C     0.49998   0.25000   0.35584   0.00000  Uiso   1.00
C45    C     0.13832   0.38833   0.75000   0.00000  Uiso   1.00
C46    C     0.38833   0.36167   0.25000   0.00000  Uiso   1.00
C47    C     0.11167   0.13833   0.75000   0.00000  Uiso   1.00
C48    C     0.13833   0.11167   0.75000   0.00000  Uiso   1.00
C49    C     0.36167   0.38833   0.25000   0.00000  Uiso   1.00
C50    C     0.11168   0.36167   0.74999   0.00000  Uiso   1.00
C51    C     0.38832   0.13833   0.25000   0.00000  Uiso   1.00
C52    C     0.36167   0.38833   0.75000   0.00000  Uiso   1.00
C53    C     0.13833   0.11167   0.25000   0.00000  Uiso   1.00
C54    C     0.38833   0.13832   0.75001   0.00000  Uiso   1.00
C55    C     0.00002   0.25000   0.64415   0.00000  Uiso   1.00
C56    C     0.11167   0.36168   0.24999   0.00000  Uiso   1.00
C57    C     0.49044   0.28765   0.41798   0.00000  Uiso   1.00
C58    C     0.00956   0.21235   0.58202   0.00000  Uiso   1.00
C59    C     0.21302   0.00850   0.41816   0.00000  Uiso   1.00
C60    C     0.28698   0.49150   0.58184   0.00000  Uiso   1.00
C61    C     0.00854   0.21302   0.41816   0.00000  Uiso   1.00
C62    C     0.49146   0.28698   0.58184   0.00000  Uiso   1.00
C63    C     0.28765   0.49048   0.41798   0.00000  Uiso   1.00
C64    C     0.21235   0.00953   0.58202   0.00000  Uiso   1.00
C65    C     0.24111   0.03781   0.91798   0.00000  Uiso   1.00
C66    C    -0.00000   0.24998   0.85584   0.00000  Uiso   1.00
C67    C     0.25888   0.46219   0.08202   0.00000  Uiso   1.00
C68    C     0.46311   0.25890   0.91816   0.00000  Uiso   1.00
C69    C     0.03689   0.24109   0.08184   0.00000  Uiso   1.00
C70    C     0.25788   0.46288   0.91815   0.00000  Uiso   1.00
C71    C     0.24213   0.03713   0.08185   0.00000  Uiso   1.00
C72    C     0.03756   0.24007   0.91798   0.00000  Uiso   1.00
C73    C     0.46245   0.25993   0.08201   0.00000  Uiso   1.00
C74    C     0.49979   0.25029   0.39812   0.00000  Uiso   1.00
C75    C     0.00020   0.24971   0.60188   0.00000  Uiso   1.00
C76    C     0.25029   0.49980   0.39812   0.00000  Uiso   1.00
C77    C     0.00000   0.25002   0.14415   0.00000  Uiso   1.00
C78    C     0.24971   0.00021   0.60188   0.00000  Uiso   1.00
C79    C     0.24980   0.00029   0.89812   0.00000  Uiso   1.00
C80    C     0.25020   0.49971   0.10188   0.00000  Uiso   1.00
C81    C     0.00029   0.24979   0.89812   0.00000  Uiso   1.00
C82    C     0.49972   0.25021   0.10188   0.00000  Uiso   1.00
C83    C     0.00355   0.21182   0.45882   0.00000  Uiso   1.00
C84    C     0.49644   0.28818   0.54118   0.00000  Uiso   1.00
C85    C     0.28879   0.49426   0.45901   0.00000  Uiso   1.00
C86    C     0.21121   0.00575   0.54099   0.00000  Uiso   1.00
C87    C     0.49422   0.28879   0.45901   0.00000  Uiso   1.00
C88    C     0.24998  -0.00000   0.85584   0.00000  Uiso   1.00
C89    C     0.00578   0.21122   0.54099   0.00000  Uiso   1.00
C90    C     0.21182   0.00352   0.45882   0.00000  Uiso   1.00
C91    C     0.28818   0.49648   0.54118   0.00000  Uiso   1.00
C92    C     0.25287   0.46176   0.95882   0.00000  Uiso   1.00
C93    C     0.24711   0.03824   0.04118   0.00000  Uiso   1.00
C94    C     0.03873   0.24383   0.95901   0.00000  Uiso   1.00
C95    C     0.46128   0.25616   0.04099   0.00000  Uiso   1.00
C96    C     0.24490   0.03888   0.95900   0.00000  Uiso   1.00
C97    C     0.25508   0.46112   0.04100   0.00000  Uiso   1.00
C98    C     0.46186   0.25392   0.95882   0.00000  Uiso   1.00
C99    C     0.25002   0.00000   0.14416   0.00000  Uiso   1.00
C100   C     0.03815   0.24606   0.04118   0.00000  Uiso   1.00
C101   C     0.49955   0.25018   0.47946   0.00000  Uiso   1.00
C102   C     0.00045   0.24982   0.52054   0.00000  Uiso   1.00
C103   C     0.25018   0.49955   0.47946   0.00000  Uiso   1.00
C104   C     0.24982   0.00045   0.52054   0.00000  Uiso   1.00
C105   C     0.24955   0.00019   0.97946   0.00000  Uiso   1.00
C106   C     0.25044   0.49981   0.02054   0.00000  Uiso   1.00
C107   C     0.00018   0.24954   0.97946   0.00000  Uiso   1.00
C108   C     0.49983   0.25044   0.02054   0.00000  Uiso   1.00
C109   C     0.00242   0.17332   0.47938   0.00000  Uiso   1.00
C110   C     0.16998   0.08002   0.25000   0.00000  Uiso   1.00
C111   C     0.49757   0.32668   0.52062   0.00000  Uiso   1.00
C112   C     0.32713   0.49419   0.47994   0.00000  Uiso   1.00
C113   C     0.17287   0.00583   0.52006   0.00000  Uiso   1.00
C114   C     0.49411   0.32713   0.47994   0.00000  Uiso   1.00
C115   C     0.00588   0.17287   0.52006   0.00000  Uiso   1.00
C116   C     0.17332   0.00236   0.47938   0.00000  Uiso   1.00
C117   C     0.32668   0.49764   0.52061   0.00000  Uiso   1.00
C118   C     0.25106   0.42328   0.97939   0.00000  Uiso   1.00
C119   C     0.24892   0.07672   0.02061   0.00000  Uiso   1.00
C120   C     0.07707   0.24333   0.97994   0.00000  Uiso   1.00
H121   H     0.47153   0.14159   0.44128   0.00000  Uiso   1.00
H122   H     0.28034   0.10791   0.05873   0.00000  Uiso   1.00
H123   H     0.13841   0.23694   0.97788   0.00000  Uiso   1.00
H124   H     0.36160   0.26308   0.02213   0.00000  Uiso   1.00
H125   H     0.24090   0.13873   0.97783   0.00000  Uiso   1.00
H126   H     0.25903   0.36128   0.02217   0.00000  Uiso   1.00
H127   H     0.39132   0.22256   0.94129   0.00000  Uiso   1.00
H128   H     0.10873   0.27738   0.05869   0.00000  Uiso   1.00
H129   H     0.02845   0.35842   0.55872   0.00000  Uiso   1.00
H130   H     0.38854   0.48852   0.47786   0.00000  Uiso   1.00
H131   H     0.11147   0.01159   0.52214   0.00000  Uiso   1.00
H132   H     0.48836   0.38854   0.47786   0.00000  Uiso   1.00
H133   H     0.01163   0.11147   0.52215   0.00000  Uiso   1.00
H134   H     0.14162   0.47143   0.44128   0.00000  Uiso   1.00
H135   H     0.35841   0.02855   0.55872   0.00000  Uiso   1.00
H136   H     0.21965   0.39210   0.94125   0.00000  Uiso   1.00
O137   O     0.25000   0.00000   0.25000   0.00000  Uiso   1.00
O138   O     0.25000   0.46539   0.66251   0.00000  Uiso   1.00
O139   O     0.46538   0.25000   0.33749   0.00000  Uiso   1.00
O140   O     0.03461   0.25000   0.66251   0.00000  Uiso   1.00
O141   O     0.00000   0.21539   0.83749   0.00000  Uiso   1.00
O142   O     0.00000   0.28462   0.16251   0.00000  Uiso   1.00
O143   O     0.28461   0.00000   0.83749   0.00000  Uiso   1.00
O144   O     0.21538   0.00000   0.16251   0.00000  Uiso   1.00
O145   O     0.00000   0.28462   0.83749   0.00000  Uiso   1.00
O146   O     0.00000   0.21539   0.16251   0.00000  Uiso   1.00
O147   O     0.21538   0.00000   0.83749   0.00000  Uiso   1.00
O148   O     0.25000   0.00000   0.75000   0.00000  Uiso   1.00
O149   O     0.28461   0.00000   0.16251   0.00000  Uiso   1.00
O150   O     0.20126   0.08332   0.27298   0.00000  Uiso   1.00
O151   O     0.29873   0.41668   0.72702   0.00000  Uiso   1.00
O152   O     0.41668   0.20127   0.27298   0.00000  Uiso   1.00
O153   O     0.08332   0.29874   0.72702   0.00000  Uiso   1.00
O154   O     0.29873   0.41668   0.27298   0.00000  Uiso   1.00
O155   O     0.20126   0.08332   0.72702   0.00000  Uiso   1.00
O156   O     0.08332   0.29874   0.27298   0.00000  Uiso   1.00
O157   O     0.41668   0.20127   0.72702   0.00000  Uiso   1.00
O158   O     0.20126   0.41668   0.72702   0.00000  Uiso   1.00
O159   O     0.00000   0.25000   0.25000   0.00000  Uiso   1.00
O160   O     0.29873   0.08332   0.27298   0.00000  Uiso   1.00
O161   O     0.41668   0.29874   0.72702   0.00000  Uiso   1.00
O162   O     0.08332   0.20127   0.27298   0.00000  Uiso   1.00
O163   O     0.29873   0.08332   0.72702   0.00000  Uiso   1.00
O164   O     0.20126   0.41668   0.27298   0.00000  Uiso   1.00
O165   O     0.08332   0.20127   0.72702   0.00000  Uiso   1.00
O166   O     0.41668   0.29874   0.27298   0.00000  Uiso   1.00
O167   O     0.45126   0.33332   0.77298   0.00000  Uiso   1.00
O168   O     0.04873   0.16668   0.22702   0.00000  Uiso   1.00
O169   O     0.16668   0.45127   0.77298   0.00000  Uiso   1.00
O170   O     0.00000   0.25000   0.75000   0.00000  Uiso   1.00
O171   O     0.33332   0.04874   0.22702   0.00000  Uiso   1.00
O172   O     0.04873   0.16668   0.77298   0.00000  Uiso   1.00
O173   O     0.45126   0.33332   0.22702   0.00000  Uiso   1.00
O174   O     0.33332   0.04874   0.77298   0.00000  Uiso   1.00
O175   O     0.16668   0.45127   0.22702   0.00000  Uiso   1.00
O176   O     0.45126   0.16668   0.22702   0.00000  Uiso   1.00
O177   O     0.04873   0.33332   0.77298   0.00000  Uiso   1.00
O178   O     0.16668   0.04874   0.22702   0.00000  Uiso   1.00
O179   O     0.33332   0.45127   0.77298   0.00000  Uiso   1.00
O180   O     0.04873   0.33332   0.22702   0.00000  Uiso   1.00
O181   O     0.25000   0.46539   0.33749   0.00000  Uiso   1.00
O182   O     0.45126   0.16668   0.77298   0.00000  Uiso   1.00
O183   O     0.33332   0.45127   0.22702   0.00000  Uiso   1.00
O184   O     0.16668   0.04874   0.77298   0.00000  Uiso   1.00
O185   O     0.49341   0.13582   0.46108   0.00000  Uiso   1.00
O186   O     0.00656   0.36418   0.53892   0.00000  Uiso   1.00
O187   O     0.36495   0.49526   0.46016   0.00000  Uiso   1.00
O188   O     0.13504   0.00478   0.53984   0.00000  Uiso   1.00
O189   O     0.49515   0.36495   0.46016   0.00000  Uiso   1.00
O190   O     0.00484   0.13505   0.53984   0.00000  Uiso   1.00
O191   O     0.13582   0.49331   0.46109   0.00000  Uiso   1.00
O192   O     0.25000   0.03462   0.66251   0.00000  Uiso   1.00
O193   O     0.36418   0.00666   0.53892   0.00000  Uiso   1.00
O194   O     0.24140   0.38594   0.96108   0.00000  Uiso   1.00
O195   O     0.25857   0.11406   0.03891   0.00000  Uiso   1.00
O196   O     0.11490   0.24396   0.96017   0.00000  Uiso   1.00
O197   O     0.38510   0.25600   0.03983   0.00000  Uiso   1.00
O198   O     0.24722   0.11502   0.96014   0.00000  Uiso   1.00
O199   O     0.25273   0.38499   0.03986   0.00000  Uiso   1.00
O200   O     0.38576   0.24451   0.96108   0.00000  Uiso   1.00
O201   O     0.11425   0.25540   0.03892   0.00000  Uiso   1.00
O202   O     0.03461   0.25000   0.33749   0.00000  Uiso   1.00
O203   O     0.46538   0.25000   0.66251   0.00000  Uiso   1.00
O204   O     0.25000   0.03462   0.33749   0.00000  Uiso   1.00
Zn205  Zn    0.20052   0.00000   0.21730   0.00000  Uiso   1.00
Zn206  Zn    0.04947   0.25000   0.28270   0.00000  Uiso   1.00
Zn207  Zn    0.25000   0.45053   0.71730   0.00000  Uiso   1.00
Zn208  Zn    0.25000   0.04948   0.28270   0.00000  Uiso   1.00
Zn209  Zn    0.04947   0.25000   0.71730   0.00000  Uiso   1.00
Zn210  Zn    0.45052   0.25000   0.28270   0.00000  Uiso   1.00
Zn211  Zn    0.25000   0.04948   0.71730   0.00000  Uiso   1.00
Zn212  Zn    0.25000   0.45053   0.28270   0.00000  Uiso   1.00
Zn213  Zn    0.29947   0.00000   0.78270   0.00000  Uiso   1.00
Zn214  Zn    0.00000   0.20053   0.21730   0.00000  Uiso   1.00
Zn215  Zn    0.00000   0.29948   0.78270   0.00000  Uiso   1.00
Zn216  Zn    0.29947   0.00000   0.21730   0.00000  Uiso   1.00
Zn217  Zn    0.20052   0.00000   0.78270   0.00000  Uiso   1.00
Zn218  Zn    0.00000   0.29948   0.21730   0.00000  Uiso   1.00
Zn219  Zn    0.00000   0.20053   0.78270   0.00000  Uiso   1.00
Zn220  Zn    0.45052   0.25000   0.71730   0.00000  Uiso   1.00
Br221  Br    0.97179   0.33539   0.38716   0.00000  Uiso   1.00
Br222  Br    0.77674   0.41416   0.11284   0.00000  Uiso   1.00
Br223  Br    0.91621   0.28247   0.88926   0.00000  Uiso   1.00
Br224  Br    0.58379   0.21753   0.11075   0.00000  Uiso   1.00
Br225  Br    0.78021   0.41540   0.88924   0.00000  Uiso   1.00
Br226  Br    0.71981   0.08462   0.11077   0.00000  Uiso   1.00
Br227  Br    0.58513   0.22101   0.88716   0.00000  Uiso   1.00
Br228  Br    0.91487   0.27901   0.11283   0.00000  Uiso   1.00
Br229  Br    0.52821   0.16461   0.61284   0.00000  Uiso   1.00
Br230  Br    0.66588   0.03158   0.38925   0.00000  Uiso   1.00
Br231  Br    0.83411   0.46842   0.61075   0.00000  Uiso   1.00
Br232  Br    0.53166   0.16591   0.38925   0.00000  Uiso   1.00
Br233  Br    0.96834   0.33409   0.61075   0.00000  Uiso   1.00
Br234  Br    0.83541   0.47188   0.38716   0.00000  Uiso   1.00
Br235  Br    0.66459   0.02813   0.61284   0.00000  Uiso   1.00
Br236  Br    0.72324   0.08584   0.88715   0.00000  Uiso   1.00
C237   C     0.75000   0.49998   0.35584   0.00000  Uiso   1.00
C238   C     0.83002   0.41998   0.75000   0.00000  Uiso   1.00
C239   C     0.92294   0.25664   0.02005   0.00000  Uiso   1.00
C240   C     0.74548   0.07723   0.97993   0.00000  Uiso   1.00
C241   C     0.75449   0.42278   0.02006   0.00000  Uiso   1.00
C242   C     0.92335   0.25316   0.97938   0.00000  Uiso   1.00
C243   C     0.57666   0.24680   0.02062   0.00000  Uiso   1.00
C244   C     0.91997   0.16998   0.25000   0.00000  Uiso   1.00
C245   C     0.58003   0.33002   0.75000   0.00000  Uiso   1.00
C246   C     0.83002   0.41998   0.25000   0.00000  Uiso   1.00
C247   C     0.66998   0.08002   0.75000   0.00000  Uiso   1.00
C248   C     0.58002   0.33003   0.25000   0.00000  Uiso   1.00
C249   C     0.91998   0.16997   0.75000   0.00000  Uiso   1.00
C250   C     0.66997   0.41998   0.75000   0.00000  Uiso   1.00
C251   C     0.83003   0.08002   0.25000   0.00000  Uiso   1.00
C252   C     0.91998   0.33002   0.75000   0.00000  Uiso   1.00
C253   C     0.75000   0.00002   0.64416   0.00000  Uiso   1.00
C254   C     0.58002   0.16998   0.25000   0.00000  Uiso   1.00
C255   C     0.83002   0.08003   0.75000   0.00000  Uiso   1.00
C256   C     0.66998   0.41997   0.25000   0.00000  Uiso   1.00
C257   C     0.58002   0.16998   0.75000   0.00000  Uiso   1.00
C258   C     0.91998   0.33002   0.25000   0.00000  Uiso   1.00
C259   C     0.63833   0.38832   0.25000   0.00000  Uiso   1.00
C260   C     0.86167   0.11168   0.75000   0.00000  Uiso   1.00
C261   C     0.61167   0.13833   0.25000   0.00000  Uiso   1.00
C262   C     0.88833   0.36167   0.75000   0.00000  Uiso   1.00
C263   C     0.86168   0.11167   0.25000   0.00000  Uiso   1.00
C264   C     0.99998   0.25000   0.35584   0.00000  Uiso   1.00
C265   C     0.63832   0.38833   0.75000   0.00000  Uiso   1.00
C266   C     0.88833   0.36167   0.25000   0.00000  Uiso   1.00
C267   C     0.61167   0.13833   0.75000   0.00000  Uiso   1.00
C268   C     0.63833   0.11167   0.75000   0.00000  Uiso   1.00
C269   C     0.86167   0.38833   0.25000   0.00000  Uiso   1.00
C270   C     0.61168   0.36167   0.74999   0.00000  Uiso   1.00
C271   C     0.88832   0.13833   0.25000   0.00000  Uiso   1.00
C272   C     0.86167   0.38833   0.75000   0.00000  Uiso   1.00
C273   C     0.63833   0.11167   0.25000   0.00000  Uiso   1.00
C274   C     0.88833   0.13832   0.75001   0.00000  Uiso   1.00
C275   C     0.50002   0.25000   0.64415   0.00000  Uiso   1.00
C276   C     0.61167   0.36168   0.24999   0.00000  Uiso   1.00
C277   C     0.99044   0.28765   0.41798   0.00000  Uiso   1.00
C278   C     0.50956   0.21235   0.58202   0.00000  Uiso   1.00
C279   C     0.71302   0.00850   0.41816   0.00000  Uiso   1.00
C280   C     0.78698   0.49150   0.58184   0.00000  Uiso   1.00
C281   C     0.50854   0.21302   0.41816   0.00000  Uiso   1.00
C282   C     0.99146   0.28698   0.58184   0.00000  Uiso   1.00
C283   C     0.78765   0.49048   0.41798   0.00000  Uiso   1.00
C284   C     0.71235   0.00953   0.58202   0.00000  Uiso   1.00
C285   C     0.74111   0.03781   0.91798   0.00000  Uiso   1.00
C286   C     0.50000   0.24998   0.85584   0.00000  Uiso   1.00
C287   C     0.75888   0.46219   0.08202   0.00000  Uiso   1.00
C288   C     0.96311   0.25890   0.91816   0.00000  Uiso   1.00
C289   C     0.53689   0.24109   0.08184   0.00000  Uiso   1.00
C290   C     0.75788   0.46288   0.91815   0.00000  Uiso   1.00
C291   C     0.74213   0.03713   0.08185   0.00000  Uiso   1.00
C292   C     0.53756   0.24007   0.91798   0.00000  Uiso   1.00
C293   C     0.96245   0.25993   0.08201   0.00000  Uiso   1.00
C294   C     0.99979   0.25029   0.39812   0.00000  Uiso   1.00
C295   C     0.50020   0.24971   0.60188   0.00000  Uiso   1.00
C296   C     0.75029   0.49980   0.39812   0.00000  Uiso   1.00
C297   C     0.50000   0.25002   0.14415   0.00000  Uiso   1.00
C298   C     0.74971   0.00021   0.60188   0.00000  Uiso   1.00
C299   C     0.74980   0.00029   0.89812   0.00000  Uiso   1.00
C300   C     0.75020   0.49971   0.10188   0.00000  Uiso   1.00
C301   C     0.50029   0.24979   0.89812   0.00000  Uiso   1.00
C302   C     0.99972   0.25021   0.10188   0.00000  Uiso   1.00
C303   C     0.50355   0.21182   0.45882   0.00000  Uiso   1.00
C304   C     0.99644   0.28818   0.54118   0.00000  Uiso   1.00
C305   C     0.78879   0.49426   0.45901   0.00000  Uiso   1.00
C306   C     0.71121   0.00575   0.54099   0.00000  Uiso   1.00
C307   C     0.99422   0.28879   0.45901   0.00000  Uiso   1.00
C308   C     0.74998  -0.00000   0.85584   0.00000  Uiso   1.00
C309   C     0.50578   0.21122   0.54099   0.00000  Uiso   1.00
C310   C     0.71182   0.00352   0.45882   0.00000  Uiso   1.00
C311   C     0.78818   0.49648   0.54118   0.00000  Uiso   1.00
C312   C     0.75287   0.46176   0.95882   0.00000  Uiso   1.00
C313   C     0.74711   0.03824   0.04118   0.00000  Uiso   1.00
C314   C     0.53873   0.24383   0.95901   0.00000  Uiso   1.00
C315   C     0.96128   0.25616   0.04099   0.00000  Uiso   1.00
C316   C     0.74490   0.03888   0.95900   0.00000  Uiso   1.00
C317   C     0.75508   0.46112   0.04100   0.00000  Uiso   1.00
C318   C     0.96186   0.25392   0.95882   0.00000  Uiso   1.00
C319   C     0.75002   0.00000   0.14416   0.00000  Uiso   1.00
C320   C     0.53815   0.24606   0.04118   0.00000  Uiso   1.00
C321   C     0.99955   0.25018   0.47946   0.00000  Uiso   1.00
C322   C     0.50045   0.24982   0.52054   0.00000  Uiso   1.00
C323   C     0.75018   0.49955   0.47946   0.00000  Uiso   1.00
C324   C     0.74982   0.00045   0.52054   0.00000  Uiso   1.00
C325   C     0.74955   0.00019   0.97946   0.00000  Uiso   1.00
C326   C     0.75044   0.49981   0.02054   0.00000  Uiso   1.00
C327   C     0.50018   0.24954   0.97946   0.00000  Uiso   1.00
C328   C     0.99983   0.25044   0.02054   0.00000  Uiso   1.00
C329   C     0.50242   0.17332   0.47938   0.00000  Uiso   1.00
C330   C     0.66998   0.08002   0.25000   0.00000  Uiso   1.00
C331   C     0.99757   0.32668   0.52062   0.00000  Uiso   1.00
C332   C     0.82713   0.49419   0.47994   0.00000  Uiso   1.00
C333   C     0.67287   0.00583   0.52006   0.00000  Uiso   1.00
C334   C     0.99411   0.32713   0.47994   0.00000  Uiso   1.00
C335   C     0.50588   0.17287   0.52006   0.00000  Uiso   1.00
C336   C     0.67332   0.00236   0.47938   0.00000  Uiso   1.00
C337   C     0.82668   0.49764   0.52061   0.00000  Uiso   1.00
C338   C     0.75106   0.42328   0.97939   0.00000  Uiso   1.00
C339   C     0.74892   0.07672   0.02061   0.00000  Uiso   1.00
C340   C     0.57707   0.24333   0.97994   0.00000  Uiso   1.00
H341   H     0.97153   0.14159   0.44128   0.00000  Uiso   1.00
H342   H     0.78034   0.10791   0.05873   0.00000  Uiso   1.00
H343   H     0.63841   0.23694   0.97788   0.00000  Uiso   1.00
H344   H     0.86160   0.26308   0.02213   0.00000  Uiso   1.00
H345   H     0.74090   0.13873   0.97783   0.00000  Uiso   1.00
H346   H     0.75903   0.36128   0.02217   0.00000  Uiso   1.00
H347   H     0.89132   0.22256   0.94129   0.00000  Uiso   1.00
H348   H     0.60873   0.27738   0.05869   0.00000  Uiso   1.00
H349   H     0.52845   0.35842   0.55872   0.00000  Uiso   1.00
H350   H     0.88854   0.48852   0.47786   0.00000  Uiso   1.00
H351   H     0.61147   0.01159   0.52214   0.00000  Uiso   1.00
H352   H     0.98836   0.38854   0.47786   0.00000  Uiso   1.00
H353   H     0.51163   0.11147   0.52215   0.00000  Uiso   1.00
H354   H     0.64162   0.47143   0.44128   0.00000  Uiso   1.00
H355   H     0.85841   0.02855   0.55872   0.00000  Uiso   1.00
H356   H     0.71965   0.39210   0.94125   0.00000  Uiso   1.00
O357   O     0.75000   0.00000   0.25000   0.00000  Uiso   1.00
O358   O     0.75000   0.46539   0.66251   0.00000  Uiso   1.00
O359   O     0.96538   0.25000   0.33749   0.00000  Uiso   1.00
O360   O     0.53461   0.25000   0.66251   0.00000  Uiso   1.00
O361   O     0.50000   0.21539   0.83749   0.00000  Uiso   1.00
O362   O     0.50000   0.28462   0.16251   0.00000  Uiso   1.00
O363   O     0.78461   0.00000   0.83749   0.00000  Uiso   1.00
O364   O     0.71538   0.00000   0.16251   0.00000  Uiso   1.00
O365   O     0.50000   0.28462   0.83749   0.00000  Uiso   1.00
O366   O     0.50000   0.21539   0.16251   0.00000  Uiso   1.00
O367   O     0.71538   0.00000   0.83749   0.00000  Uiso   1.00
O368   O     0.75000   0.00000   0.75000   0.00000  Uiso   1.00
O369   O     0.78461   0.00000   0.16251   0.00000  Uiso   1.00
O370   O     0.70126   0.08332   0.27298   0.00000  Uiso   1.00
O371   O     0.79873   0.41668   0.72702   0.00000  Uiso   1.00
O372   O     0.91668   0.20127   0.27298   0.00000  Uiso   1.00
O373   O     0.58332   0.29874   0.72702   0.00000  Uiso   1.00
O374   O     0.79873   0.41668   0.27298   0.00000  Uiso   1.00
O375   O     0.70126   0.08332   0.72702   0.00000  Uiso   1.00
O376   O     0.58332   0.29874   0.27298   0.00000  Uiso   1.00
O377   O     0.91668   0.20127   0.72702   0.00000  Uiso   1.00
O378   O     0.70126   0.41668   0.72702   0.00000  Uiso   1.00
O379   O     0.50000   0.25000   0.25000   0.00000  Uiso   1.00
O380   O     0.79873   0.08332   0.27298   0.00000  Uiso   1.00
O381   O     0.91668   0.29874   0.72702   0.00000  Uiso   1.00
O382   O     0.58332   0.20127   0.27298   0.00000  Uiso   1.00
O383   O     0.79873   0.08332   0.72702   0.00000  Uiso   1.00
O384   O     0.70126   0.41668   0.27298   0.00000  Uiso   1.00
O385   O     0.58332   0.20127   0.72702   0.00000  Uiso   1.00
O386   O     0.91668   0.29874   0.27298   0.00000  Uiso   1.00
O387   O     0.95126   0.33332   0.77298   0.00000  Uiso   1.00
O388   O     0.54873   0.16668   0.22702   0.00000  Uiso   1.00
O389   O     0.66668   0.45127   0.77298   0.00000  Uiso   1.00
O390   O     0.50000   0.25000   0.75000   0.00000  Uiso   1.00
O391   O     0.83332   0.04874   0.22702   0.00000  Uiso   1.00
O392   O     0.54873   0.16668   0.77298   0.00000  Uiso   1.00
O393   O     0.95126   0.33332   0.22702   0.00000  Uiso   1.00
O394   O     0.83332   0.04874   0.77298   0.00000  Uiso   1.00
O395   O     0.66668   0.45127   0.22702   0.00000  Uiso   1.00
O396   O     0.95126   0.16668   0.22702   0.00000  Uiso   1.00
O397   O     0.54873   0.33332   0.77298   0.00000  Uiso   1.00
O398   O     0.66668   0.04874   0.22702   0.00000  Uiso   1.00
O399   O     0.83332   0.45127   0.77298   0.00000  Uiso   1.00
O400   O     0.54873   0.33332   0.22702   0.00000  Uiso   1.00
O401   O     0.75000   0.46539   0.33749   0.00000  Uiso   1.00
O402   O     0.95126   0.16668   0.77298   0.00000  Uiso   1.00
O403   O     0.83332   0.45127   0.22702   0.00000  Uiso   1.00
O404   O     0.66668   0.04874   0.77298   0.00000  Uiso   1.00
O405   O     0.99341   0.13582   0.46108   0.00000  Uiso   1.00
O406   O     0.50656   0.36418   0.53892   0.00000  Uiso   1.00
O407   O     0.86495   0.49526   0.46016   0.00000  Uiso   1.00
O408   O     0.63504   0.00478   0.53984   0.00000  Uiso   1.00
O409   O     0.99515   0.36495   0.46016   0.00000  Uiso   1.00
O410   O     0.50484   0.13505   0.53984   0.00000  Uiso   1.00
O411   O     0.63582   0.49331   0.46109   0.00000  Uiso   1.00
O412   O     0.75000   0.03462   0.66251   0.00000  Uiso   1.00
O413   O     0.86418   0.00666   0.53892   0.00000  Uiso   1.00
O414   O     0.74140   0.38594   0.96108   0.00000  Uiso   1.00
O415   O     0.75857   0.11406   0.03891   0.00000  Uiso   1.00
O416   O     0.61490   0.24396   0.96017   0.00000  Uiso   1.00
O417   O     0.88510   0.25600   0.03983   0.00000  Uiso   1.00
O418   O     0.74722   0.11502   0.96014   0.00000  Uiso   1.00
O419   O     0.75273   0.38499   0.03986   0.00000  Uiso   1.00
O420   O     0.88576   0.24451   0.96108   0.00000  Uiso   1.00
O421   O     0.61425   0.25540   0.03892   0.00000  Uiso   1.00
O422   O     0.53461   0.25000   0.33749   0.00000  Uiso   1.00
O423   O     0.96538   0.25000   0.66251   0.00000  Uiso   1.00
O424   O     0.75000   0.03462   0.33749   0.00000  Uiso   1.00
Zn425  Zn    0.70052   0.00000   0.21730   0.00000  Uiso   1.00
Zn426  Zn    0.54947   0.25000   0.28270   0.00000  Uiso   1.00
Zn427  Zn    0.75000   0.45053   0.71730   0.00000  Uiso   1.00
Zn428  Zn    0.75000   0.04948   0.28270   0.00000  Uiso   1.00
Zn429  Zn    0.54947   0.25000   0.71730   0.00000  Uiso   1.00
Zn430  Zn    0.95052   0.25000   0.28270   0.00000  Uiso   1.00
Zn431  Zn    0.75000   0.04948   0.71730   0.00000  Uiso   1.00
Zn432  Zn    0.75000   0.45053   0.28270   0.00000  Uiso   1.00
Zn433  Zn    0.79947   0.00000   0.78270   0.00000  Uiso   1.00
Zn434  Zn    0.50000   0.20053   0.21730   0.00000  Uiso   1.00
Zn435  Zn    0.50000   0.29948   0.78270   0.00000  Uiso   1.00
Zn436  Zn    0.79947   0.00000   0.21730   0.00000  Uiso   1.00
Zn437  Zn    0.70052   0.00000   0.78270   0.00000  Uiso   1.00
Zn438  Zn    0.50000   0.29948   0.21730   0.00000  Uiso   1.00
Zn439  Zn    0.50000   0.20053   0.78270   0.00000  Uiso   1.00
Zn440  Zn    0.95052   0.25000   0.71730   0.00000  Uiso   1.00
Br441  Br    0.47179   0.83539   0.38716   0.00000  Uiso   1.00
Br442  Br    0.27674   0.91416   0.11284   0.00000  Uiso   1.00
Br443  Br    0.41621   0.78247   0.88926   0.00000  Uiso   1.00
Br444  Br    0.08379   0.71753   0.11075   0.00000  Uiso   1.00
Br445  Br    0.28021   0.91540   0.88924   0.00000  Uiso   1.00
Br446  Br    0.21981   0.58462   0.11077   0.00000  Uiso   1.00
Br447  Br    0.08513   0.72101   0.88716   0.00000  Uiso   1.00
Br448  Br    0.41487   0.77901   0.11283   0.00000  Uiso   1.00
Br449  Br    0.02821   0.66461   0.61284   0.00000  Uiso   1.00
Br450  Br    0.16588   0.53158   0.38925   0.00000  Uiso   1.00
Br451  Br    0.33411   0.96842   0.61075   0.00000  Uiso   1.00
Br452  Br    0.03166   0.66591   0.38925   0.00000  Uiso   1.00
Br453  Br    0.46834   0.83409   0.61075   0.00000  Uiso   1.00
Br454  Br    0.33541   0.97188   0.38716   0.00000  Uiso   1.00
Br455  Br    0.16459   0.52813   0.61284   0.00000  Uiso   1.00
Br456  Br    0.22324   0.58584   0.88715   0.00000  Uiso   1.00
C457   C     0.25000   0.99998   0.35584   0.00000  Uiso   1.00
C458   C     0.33002   0.91998   0.75000   0.00000  Uiso   1.00
C459   C     0.42294   0.75664   0.02005   0.00000  Uiso   1.00
C460   C     0.24548   0.57723   0.97993   0.00000  Uiso   1.00
C461   C     0.25449   0.92278   0.02006   0.00000  Uiso   1.00
C462   C     0.42335   0.75316   0.97938   0.00000  Uiso   1.00
C463   C     0.07666   0.74680   0.02062   0.00000  Uiso   1.00
C464   C     0.41997   0.66998   0.25000   0.00000  Uiso   1.00
C465   C     0.08003   0.83002   0.75000   0.00000  Uiso   1.00
C466   C     0.33002   0.91998   0.25000   0.00000  Uiso   1.00
C467   C     0.16998   0.58002   0.75000   0.00000  Uiso   1.00
C468   C     0.08002   0.83003   0.25000   0.00000  Uiso   1.00
C469   C     0.41998   0.66997   0.75000   0.00000  Uiso   1.00
C470   C     0.16997   0.91998   0.75000   0.00000  Uiso   1.00
C471   C     0.33003   0.58002   0.25000   0.00000  Uiso   1.00
C472   C     0.41998   0.83002   0.75000   0.00000  Uiso   1.00
C473   C     0.25000   0.50002   0.64416   0.00000  Uiso   1.00
C474   C     0.08002   0.66998   0.25000   0.00000  Uiso   1.00
C475   C     0.33002   0.58003   0.75000   0.00000  Uiso   1.00
C476   C     0.16998   0.91997   0.25000   0.00000  Uiso   1.00
C477   C     0.08002   0.66998   0.75000   0.00000  Uiso   1.00
C478   C     0.41998   0.83002   0.25000   0.00000  Uiso   1.00
C479   C     0.13833   0.88832   0.25000   0.00000  Uiso   1.00
C480   C     0.36167   0.61168   0.75000   0.00000  Uiso   1.00
C481   C     0.11167   0.63833   0.25000   0.00000  Uiso   1.00
C482   C     0.38833   0.86167   0.75000   0.00000  Uiso   1.00
C483   C     0.36168   0.61167   0.25000   0.00000  Uiso   1.00
C484   C     0.49998   0.75000   0.35584   0.00000  Uiso   1.00
C485   C     0.13832   0.88833   0.75000   0.00000  Uiso   1.00
C486   C     0.38833   0.86167   0.25000   0.00000  Uiso   1.00
C487   C     0.11167   0.63833   0.75000   0.00000  Uiso   1.00
C488   C     0.13833   0.61167   0.75000   0.00000  Uiso   1.00
C489   C     0.36167   0.88833   0.25000   0.00000  Uiso   1.00
C490   C     0.11168   0.86167   0.74999   0.00000  Uiso   1.00
C491   C     0.38832   0.63833   0.25000   0.00000  Uiso   1.00
C492   C     0.36167   0.88833   0.75000   0.00000  Uiso   1.00
C493   C     0.13833   0.61167   0.25000   0.00000  Uiso   1.00
C494   C     0.38833   0.63832   0.75001   0.00000  Uiso   1.00
C495   C     0.00002   0.75000   0.64415   0.00000  Uiso   1.00
C496   C     0.11167   0.86168   0.24999   0.00000  Uiso   1.00
C497   C     0.49044   0.78765   0.41798   0.00000  Uiso   1.00
C498   C     0.00956   0.71235   0.58202   0.00000  Uiso   1.00
C499   C     0.21302   0.50850   0.41816   0.00000  Uiso   1.00
C500   C     0.28698   0.99150   0.58184   0.00000  Uiso   1.00
C501   C     0.00854   0.71302   0.41816   0.00000  Uiso   1.00
C502   C     0.49146   0.78698   0.58184   0.00000  Uiso   1.00
C503   C     0.28765   0.99048   0.41798   0.00000  Uiso   1.00
C504   C     0.21235   0.50953   0.58202   0.00000  Uiso   1.00
C505   C     0.24111   0.53781   0.91798   0.00000  Uiso   1.00
C506   C    -0.00000   0.74998   0.85584   0.00000  Uiso   1.00
C507   C     0.25888   0.96219   0.08202   0.00000  Uiso   1.00
C508   C     0.46311   0.75890   0.91816   0.00000  Uiso   1.00
C509   C     0.03689   0.74109   0.08184   0.00000  Uiso   1.00
C510   C     0.25788   0.96288   0.91815   0.00000  Uiso   1.00
C511   C     0.24213   0.53713   0.08185   0.00000  Uiso   1.00
C512   C     0.03756   0.74007   0.91798   0.00000  Uiso   1.00
C513   C     0.46245   0.75993   0.08201   0.00000  Uiso   1.00
C514   C     0.49979   0.75029   0.39812   0.00000  Uiso   1.00
C515   C     0.00020   0.74971   0.60188   0.00000  Uiso   1.00
C516   C     0.25029   0.99980   0.39812   0.00000  Uiso   1.00
C517   C     0.00000   0.75002   0.14415   0.00000  Uiso   1.00
C518   C     0.24971   0.50021   0.60188   0.00000  Uiso   1.00
C519   C     0.24980   0.50029   0.89812   0.00000  Uiso   1.00
C520   C     0.25020   0.99971   0.10188   0.00000  Uiso   1.00
C521   C     0.00029   0.74979   0.89812   0.00000  Uiso   1.00
C522   C     0.49972   0.75021   0.10188   0.00000  Uiso   1.00
C523   C     0.00355   0.71182   0.45882   0.00000  Uiso   1.00
C524   C     0.49644   0.78818   0.54118   0.00000  Uiso   1.00
C525   C     0.28879   0.99426   0.45901   0.00000  Uiso   1.00
C526   C     0.21121   0.50575   0.54099   0.00000  Uiso   1.00
C527   C     0.49422   0.78879   0.45901   0.00000  Uiso   1.00
C528   C     0.24998   0.50000   0.85584   0.00000  Uiso   1.00
C529   C     0.00578   0.71122   0.54099   0.00000  Uiso   1.00
C530   C     0.21182   0.50352   0.45882   0.00000  Uiso   1.00
C531   C     0.28818   0.99648   0.54118   0.00000  Uiso   1.00
C532   C     0.25287   0.96176   0.95882   0.00000  Uiso   1.00
C533   C     0.24711   0.53824   0.04118   0.00000  Uiso   1.00
C534   C     0.03873   0.74383   0.95901   0.00000  Uiso   1.00
C535   C     0.46128   0.75616   0.04099   0.00000  Uiso   1.00
C536   C     0.24490   0.53888   0.95900   0.00000  Uiso   1.00
C537   C     0.25508   0.96112   0.04100   0.00000  Uiso   1.00
C538   C     0.46186   0.75392   0.95882   0.00000  Uiso   1.00
C539   C     0.25002   0.50000   0.14416   0.00000  Uiso   1.00
C540   C     0.03815   0.74606   0.04118   0.00000  Uiso   1.00
C541   C     0.49955   0.75018   0.47946   0.00000  Uiso   1.00
C542   C     0.00045   0.74982   0.52054   0.00000  Uiso   1.00
C543   C     0.25018   0.99955   0.47946   0.00000  Uiso   1.00
C544   C     0.24982   0.50045   0.52054   0.00000  Uiso   1.00
C545   C     0.24955   0.50019   0.97946   0.00000  Uiso   1.00
C546   C     0.25044   0.99981   0.02054   0.00000  Uiso   1.00
C547   C     0.00018   0.74954   0.97946   0.00000  Uiso   1.00
C548   C     0.49983   0.75044   0.02054   0.00000  Uiso   1.00
C549   C     0.00242   0.67332   0.47938   0.00000  Uiso   1.00
C550   C     0.16998   0.58002   0.25000   0.00000  Uiso   1.00
C551   C     0.49757   0.82668   0.52062   0.00000  Uiso   1.00
C552   C     0.32713   0.99419   0.47994   0.00000  Uiso   1.00
C553   C     0.17287   0.50583   0.52006   0.00000  Uiso   1.00
C554   C     0.49411   0.82713   0.47994   0.00000  Uiso   1.00
C555   C     0.00588   0.67287   0.52006   0.00000  Uiso   1.00
C556   C     0.17332   0.50236   0.47938   0.00000  Uiso   1.00
C557   C     0.32668   0.99764   0.52061   0.00000  Uiso   1.00
C558   C     0.25106   0.92328   0.97939   0.00000  Uiso   1.00
C559   C     0.24892   0.57672   0.02061   0.00000  Uiso   1.00
C560   C     0.07707   0.74333   0.97994   0.00000  Uiso   1.00
H561   H     0.47153   0.64159   0.44128   0.00000  Uiso   1.00
H562   H     0.28034   0.60791   0.05873   0.00000  Uiso   1.00
H563   H     0.13841   0.73694   0.97788   0.00000  Uiso   1.00
H564   H     0.36160   0.76308   0.02213   0.00000  Uiso   1.00
H565   H     0.24090   0.63873   0.97783   0.00000  Uiso   1.00
H566   H     0.25903   0.86128   0.02217   0.00000  Uiso   1.00
H567   H     0.39132   0.72256   0.94129   0.00000  Uiso   1.00
H568   H     0.10873   0.77738   0.05869   0.00000  Uiso   1.00
H569   H     0.02845   0.85842   0.55872   0.00000  Uiso   1.00
H570   H     0.38854   0.98852   0.47786   0.00000  Uiso   1.00
H571   H     0.11147   0.51159   0.52214   0.00000  Uiso   1.00
H572   H     0.48836   0.88854   0.47786   0.00000  Uiso   1.00
H573   H     0.01163   0.61147   0.52215   0.00000  Uiso   1.00
H574   H     0.14162   0.97143   0.44128   0.00000  Uiso   1.00
H575   H     0.35841   0.52855   0.55872   0.00000  Uiso   1.00
H576   H     0.21965   0.89210   0.94125   0.00000  Uiso   1.00
O577   O     0.25000   0.50000   0.25000   0.00000  Uiso   1.00
O578   O     0.25000   0.96539   0.66251   0.00000  Uiso   1.00
O579   O     0.46538   0.75000   0.33749   0.00000  Uiso   1.00
O580   O     0.03461   0.75000   0.66251   0.00000  Uiso   1.00
O581   O     0.00000   0.71539   0.83749   0.00000  Uiso   1.00
O582   O     0.00000   0.78462   0.16251   0.00000  Uiso   1.00
O583   O     0.28461   0.50000   0.83749   0.00000  Uiso   1.00
O584   O     0.21538   0.50000   0.16251   0.00000  Uiso   1.00
O585   O     0.00000   0.78462   0.83749   0.00000  Uiso   1.00
O586   O     0.00000   0.71539   0.16251   0.00000  Uiso   1.00
O587   O     0.21538   0.50000   0.83749   0.00000  Uiso   1.00
O588   O     0.25000   0.50000   0.75000   0.00000  Uiso   1.00
O589   O     0.28461   0.50000   0.16251   0.00000  Uiso   1.00
O590   O     0.20126   0.58332   0.27298   0.00000  Uiso   1.00
O591   O     0.29873   0.91668   0.72702   0.00000  Uiso   1.00
O592   O     0.41668   0.70127   0.27298   0.00000  Uiso   1.00
O593   O     0.08332   0.79874   0.72702   0.00000  Uiso   1.00
O594   O     0.29873   0.91668   0.27298   0.00000  Uiso   1.00
O595   O     0.20126   0.58332   0.72702   0.00000  Uiso   1.00
O596   O     0.08332   0.79874   0.27298   0.00000  Uiso   1.00
O597   O     0.41668   0.70127   0.72702   0.00000  Uiso   1.00
O598   O     0.20126   0.91668   0.72702   0.00000  Uiso   1.00
O599   O     0.00000   0.75000   0.25000   0.00000  Uiso   1.00
O600   O     0.29873   0.58332   0.27298   0.00000  Uiso   1.00
O601   O     0.41668   0.79874   0.72702   0.00000  Uiso   1.00
O602   O     0.08332   0.70127   0.27298   0.00000  Uiso   1.00
O603   O     0.29873   0.58332   0.72702   0.00000  Uiso   1.00
O604   O     0.20126   0.91668   0.27298   0.00000  Uiso   1.00
O605   O     0.08332   0.70127   0.72702   0.00000  Uiso   1.00
O606   O     0.41668   0.79874   0.27298   0.00000  Uiso   1.00
O607   O     0.45126   0.83332   0.77298   0.00000  Uiso   1.00
O608   O     0.04873   0.66668   0.22702   0.00000  Uiso   1.00
O609   O     0.16668   0.95127   0.77298   0.00000  Uiso   1.00
O610   O     0.00000   0.75000   0.75000   0.00000  Uiso   1.00
O611   O     0.33332   0.54874   0.22702   0.00000  Uiso   1.00
O612   O     0.04873   0.66668   0.77298   0.00000  Uiso   1.00
O613   O     0.45126   0.83332   0.22702   0.00000  Uiso   1.00
O614   O     0.33332   0.54874   0.77298   0.00000  Uiso   1.00
O615   O     0.16668   0.95127   0.22702   0.00000  Uiso   1.00
O616   O     0.45126   0.66668   0.22702   0.00000  Uiso   1.00
O617   O     0.04873   0.83332   0.77298   0.00000  Uiso   1.00
O618   O     0.16668   0.54874   0.22702   0.00000  Uiso   1.00
O619   O     0.33332   0.95127   0.77298   0.00000  Uiso   1.00
O620   O     0.04873   0.83332   0.22702   0.00000  Uiso   1.00
O621   O     0.25000   0.96539   0.33749   0.00000  Uiso   1.00
O622   O     0.45126   0.66668   0.77298   0.00000  Uiso   1.00
O623   O     0.33332   0.95127   0.22702   0.00000  Uiso   1.00
O624   O     0.16668   0.54874   0.77298   0.00000  Uiso   1.00
O625   O     0.49341   0.63582   0.46108   0.00000  Uiso   1.00
O626   O     0.00656   0.86418   0.53892   0.00000  Uiso   1.00
O627   O     0.36495   0.99526   0.46016   0.00000  Uiso   1.00
O628   O     0.13504   0.50478   0.53984   0.00000  Uiso   1.00
O629   O     0.49515   0.86495   0.46016   0.00000  Uiso   1.00
O630   O     0.00484   0.63505   0.53984   0.00000  Uiso   1.00
O631   O     0.13582   0.99331   0.46109   0.00000  Uiso   1.00
O632   O     0.25000   0.53462   0.66251   0.00000  Uiso   1.00
O633   O     0.36418   0.50666   0.53892   0.00000  Uiso   1.00
O634   O     0.24140   0.88594   0.96108   0.00000  Uiso   1.00
O635   O     0.25857   0.61406   0.03891   0.00000  Uiso   1.00
O636   O     0.11490   0.74396   0.96017   0.00000  Uiso   1.00
O637   O     0.38510   0.75600   0.03983   0.00000  Uiso   1.00
O638   O     0.24722   0.61502   0.96014   0.00000  Uiso   1.00
O639   O     0.25273   0.88499   0.03986   0.00000  Uiso   1.00
O640   O     0.38576   0.74451   0.96108   0.00000  Uiso   1.00
O641   O     0.11425   0.75540   0.03892   0.00000  Uiso   1.00
O642   O     0.03461   0.75000   0.33749   0.00000  Uiso   1.00
O643   O     0.46538   0.75000   0.66251   0.00000  Uiso   1.00
O644   O     0.25000   0.53462   0.33749   0.00000  Uiso   1.00
Zn645  Zn    0.20052   0.50000   0.21730   0.00000  Uiso   1.00
Zn646  Zn    0.04947   0.75000   0.28270   0.00000  Uiso   1.00
Zn647  Zn    0.25000   0.95053   0.71730   0.00000  Uiso   1.00
Zn648  Zn    0.25000   0.54948   0.28270   0.00000  Uiso   1.00
Zn649  Zn    0.04947   0.75000   0.71730   0.00000  Uiso   1.00
Zn650  Zn    0.45052   0.75000   0.28270   0.00000  Uiso   1.00
Zn651  Zn    0.25000   0.54948   0.71730   0.00000  Uiso   1.00
Zn652  Zn    0.25000   0.95053   0.28270   0.00000  Uiso   1.00
Zn653  Zn    0.29947   0.50000   0.78270   0.00000  Uiso   1.00
Zn654  Zn    0.00000   0.70053   0.21730   0.00000  Uiso   1.00
Zn655  Zn    0.00000   0.79948   0.78270   0.00000  Uiso   1.00
Zn656  Zn    0.29947   0.50000   0.21730   0.00000  Uiso   1.00
Zn657  Zn    0.20052   0.50000   0.78270   0.00000  Uiso   1.00
Zn658  Zn    0.00000   0.79948   0.21730   0.00000  Uiso   1.00
Zn659  Zn    0.00000   0.70053   0.78270   0.00000  Uiso   1.00
Zn660  Zn    0.45052   0.75000   0.71730   0.00000  Uiso   1.00
Br661  Br    0.97179   0.83539   0.38716   0.00000  Uiso   1.00
Br662  Br    0.77674   0.91416   0.11284   0.00000  Uiso   1.00
Br663  Br    0.91621   0.78247   0.88926   0.00000  Uiso   1.00
Br664  Br    0.58379   0.71753   0.11075   0.00000  Uiso   1.00
Br665  Br    0.78021   0.91540   0.88924   0.00000  Uiso   1.00
Br666  Br    0.71981   0.58462   0.11077   0.00000  Uiso   1.00
Br667  Br    0.58513   0.72101   0.88716   0.00000  Uiso   1.00
Br668  Br    0.91487   0.77901   0.11283   0.00000  Uiso   1.00
Br669  Br    0.52821   0.66461   0.61284   0.00000  Uiso   1.00
Br670  Br    0.66588   0.53158   0.38925   0.00000  Uiso   1.00
Br671  Br    0.83411   0.96842   0.61075   0.00000  Uiso   1.00
Br672  Br    0.53166   0.66591   0.38925   0.00000  Uiso   1.00
Br673  Br    0.96834   0.83409   0.61075   0.00000  Uiso   1.00
Br674  Br    0.83541   0.97188   0.38716   0.00000  Uiso   1.00
Br675  Br    0.66459   0.52813   0.61284   0.00000  Uiso   1.00
Br676  Br    0.72324   0.58584   0.88715   0.00000  Uiso   1.00
C677   C     0.75000   0.99998   0.35584   0.00000  Uiso   1.00
C678   C     0.83002   0.91998   0.75000   0.00000  Uiso   1.00
C679   C     0.92294   0.75664   0.02005   0.00000  Uiso   1.00
C680   C     0.74548   0.57723   0.97993   0.00000  Uiso   1.00
C681   C     0.75449   0.92278   0.02006   0.00000  Uiso   1.00
C682   C     0.92335   0.75316   0.97938   0.00000  Uiso   1.00
C683   C     0.57666   0.74680   0.02062   0.00000  Uiso   1.00
C684   C     0.91997   0.66998   0.25000   0.00000  Uiso   1.00
C685   C     0.58003   0.83002   0.75000   0.00000  Uiso   1.00
C686   C     0.83002   0.91998   0.25000   0.00000  Uiso   1.00
C687   C     0.66998   0.58002   0.75000   0.00000  Uiso   1.00
C688   C     0.58002   0.83003   0.25000   0.00000  Uiso   1.00
C689   C     0.91998   0.66997   0.75000   0.00000  Uiso   1.00
C690   C     0.66997   0.91998   0.75000   0.00000  Uiso   1.00
C691   C     0.83003   0.58002   0.25000   0.00000  Uiso   1.00
C692   C     0.91998   0.83002   0.75000   0.00000  Uiso   1.00
C693   C     0.75000   0.50002   0.64416   0.00000  Uiso   1.00
C694   C     0.58002   0.66998   0.25000   0.00000  Uiso   1.00
C695   C     0.83002   0.58003   0.75000   0.00000  Uiso   1.00
C696   C     0.66998   0.91997   0.25000   0.00000  Uiso   1.00
C697   C     0.58002   0.66998   0.75000   0.00000  Uiso   1.00
C698   C     0.91998   0.83002   0.25000   0.00000  Uiso   1.00
C699   C     0.63833   0.88832   0.25000   0.00000  Uiso   1.00
C700   C     0.86167   0.61168   0.75000   0.00000  Uiso   1.00
C701   C     0.61167   0.63833   0.25000   0.00000  Uiso   1.00
C702   C     0.88833   0.86167   0.75000   0.00000  Uiso   1.00
C703   C     0.86168   0.61167   0.25000   0.00000  Uiso   1.00
C704   C     0.99998   0.75000   0.35584   0.00000  Uiso   1.00
C705   C     0.63832   0.88833   0.75000   0.00000  Uiso   1.00
C706   C     0.88833   0.86167   0.25000   0.00000  Uiso   1.00
C707   C     0.61167   0.63833   0.75000   0.00000  Uiso   1.00
C708   C     0.63833   0.61167   0.75000   0.00000  Uiso   1.00
C709   C     0.86167   0.88833   0.25000   0.00000  Uiso   1.00
C710   C     0.61168   0.86167   0.74999   0.00000  Uiso   1.00
C711   C     0.88832   0.63833   0.25000   0.00000  Uiso   1.00
C712   C     0.86167   0.88833   0.75000   0.00000  Uiso   1.00
C713   C     0.63833   0.61167   0.25000   0.00000  Uiso   1.00
C714   C     0.88833   0.63832   0.75001   0.00000  Uiso   1.00
C715   C     0.50002   0.75000   0.64415   0.00000  Uiso   1.00
C716   C     0.61167   0.86168   0.24999   0.00000  Uiso   1.00
C717   C     0.99044   0.78765   0.41798   0.00000  Uiso   1.00
C718   C     0.50956   0.71235   0.58202   0.00000  Uiso   1.00
C719   C     0.71302   0.50850   0.41816   0.00000  Uiso   1.00
C720   C     0.78698   0.99150   0.58184   0.00000  Uiso   1.00
C721   C     0.50854   0.71302   0.41816   0.00000  Uiso   1.00
C722   C     0.99146   0.78698   0.58184   0.00000  Uiso   1.00
C723   C     0.78765   0.99048   0.41798   0.00000  Uiso   1.00
C724   C     0.71235   0.50953   0.58202   0.00000  Uiso   1.00
C725   C     0.74111   0.53781   0.91798   0.00000  Uiso   1.00
C726   C     0.50000   0.74998   0.85584   0.00000  Uiso   1.00
C727   C     0.75888   0.96219   0.08202   0.00000  Uiso   1.00
C728   C     0.96311   0.75890   0.91816   0.00000  Uiso   1.00
C729   C     0.53689   0.74109   0.08184   0.00000  Uiso   1.00
C730   C     0.75788   0.96288   0.91815   0.00000  Uiso   1.00
C731   C     0.74213   0.53713   0.08185   0.00000  Uiso   1.00
C732   C     0.53756   0.74007   0.91798   0.00000  Uiso   1.00
C733   C     0.96245   0.75993   0.08201   0.00000  Uiso   1.00
C734   C     0.99979   0.75029   0.39812   0.00000  Uiso   1.00
C735   C     0.50020   0.74971   0.60188   0.00000  Uiso   1.00
C736   C     0.75029   0.99980   0.39812   0.00000  Uiso   1.00
C737   C     0.50000   0.75002   0.14415   0.00000  Uiso   1.00
C738   C     0.74971   0.50021   0.60188   0.00000  Uiso   1.00
C739   C     0.74980   0.50029   0.89812   0.00000  Uiso   1.00
C740   C     0.75020   0.99971   0.10188   0.00000  Uiso   1.00
C741   C     0.50029   0.74979   0.89812   0.00000  Uiso   1.00
C742   C     0.99972   0.75021   0.10188   0.00000  Uiso   1.00
C743   C     0.50355   0.71182   0.45882   0.00000  Uiso   1.00
C744   C     0.99644   0.78818   0.54118   0.00000  Uiso   1.00
C745   C     0.78879   0.99426   0.45901   0.00000  Uiso   1.00
C746   C     0.71121   0.50575   0.54099   0.00000  Uiso   1.00
C747   C     0.99422   0.78879   0.45901   0.00000  Uiso   1.00
C748   C     0.74998   0.50000   0.85584   0.00000  Uiso   1.00
C749   C     0.50578   0.71122   0.54099   0.00000  Uiso   1.00
C750   C     0.71182   0.50352   0.45882   0.00000  Uiso   1.00
C751   C     0.78818   0.99648   0.54118   0.00000  Uiso   1.00
C752   C     0.75287   0.96176   0.95882   0.00000  Uiso   1.00
C753   C     0.74711   0.53824   0.04118   0.00000  Uiso   1.00
C754   C     0.53873   0.74383   0.95901   0.00000  Uiso   1.00
C755   C     0.96128   0.75616   0.04099   0.00000  Uiso   1.00
C756   C     0.74490   0.53888   0.95900   0.00000  Uiso   1.00
C757   C     0.75508   0.96112   0.04100   0.00000  Uiso   1.00
C758   C     0.96186   0.75392   0.95882   0.00000  Uiso   1.00
C759   C     0.75002   0.50000   0.14416   0.00000  Uiso   1.00
C760   C     0.53815   0.74606   0.04118   0.00000  Uiso   1.00
C761   C     0.99955   0.75018   0.47946   0.00000  Uiso   1.00
C762   C     0.50045   0.74982   0.52054   0.00000  Uiso   1.00
C763   C     0.75018   0.99955   0.47946   0.00000  Uiso   1.00
C764   C     0.74982   0.50045   0.52054   0.00000  Uiso   1.00
C765   C     0.74955   0.50019   0.97946   0.00000  Uiso   1.00
C766   C     0.75044   0.99981   0.02054   0.00000  Uiso   1.00
C767   C     0.50018   0.74954   0.97946   0.00000  Uiso   1.00
C768   C     0.99983   0.75044   0.02054   0.00000  Uiso   1.00
C769   C     0.50242   0.67332   0.47938   0.00000  Uiso   1.00
C770   C     0.66998   0.58002   0.25000   0.00000  Uiso   1.00
C771   C     0.99757   0.82668   0.52062   0.00000  Uiso   1.00
C772   C     0.82713   0.99419   0.47994   0.00000  Uiso   1.00
C773   C     0.67287   0.50583   0.52006   0.00000  Uiso   1.00
C774   C     0.99411   0.82713   0.47994   0.00000  Uiso   1.00
C775   C     0.50588   0.67287   0.52006   0.00000  Uiso   1.00
C776   C     0.67332   0.50236   0.47938   0.00000  Uiso   1.00
C777   C     0.82668   0.99764   0.52061   0.00000  Uiso   1.00
C778   C     0.75106   0.92328   0.97939   0.00000  Uiso   1.00
C779   C     0.74892   0.57672   0.02061   0.00000  Uiso   1.00
C780   C     0.57707   0.74333   0.97994   0.00000  Uiso   1.00
H781   H     0.97153   0.64159   0.44128   0.00000  Uiso   1.00
H782   H     0.78034   0.60791   0.05873   0.00000  Uiso   1.00
H783   H     0.63841   0.73694   0.97788   0.00000  Uiso   1.00
H784   H     0.86160   0.76308   0.02213   0.00000  Uiso   1.00
H785   H     0.74090   0.63873   0.97783   0.00000  Uiso   1.00
H786   H     0.75903   0.86128   0.02217   0.00000  Uiso   1.00
H787   H     0.89132   0.72256   0.94129   0.00000  Uiso   1.00
H788   H     0.60873   0.77738   0.05869   0.00000  Uiso   1.00
H789   H     0.52845   0.85842   0.55872   0.00000  Uiso   1.00
H790   H     0.88854   0.98852   0.47786   0.00000  Uiso   1.00
H791   H     0.61147   0.51159   0.52214   0.00000  Uiso   1.00
H792   H     0.98836   0.88854   0.47786   0.00000  Uiso   1.00
H793   H     0.51163   0.61147   0.52215   0.00000  Uiso   1.00
H794   H     0.64162   0.97143   0.44128   0.00000  Uiso   1.00
H795   H     0.85841   0.52855   0.55872   0.00000  Uiso   1.00
H796   H     0.71965   0.89210   0.94125   0.00000  Uiso   1.00
O797   O     0.75000   0.50000   0.25000   0.00000  Uiso   1.00
O798   O     0.75000   0.96539   0.66251   0.00000  Uiso   1.00
O799   O     0.96538   0.75000   0.33749   0.00000  Uiso   1.00
O800   O     0.53461   0.75000   0.66251   0.00000  Uiso   1.00
O801   O     0.50000   0.71539   0.83749   0.00000  Uiso   1.00
O802   O     0.50000   0.78462   0.16251   0.00000  Uiso   1.00
O803   O     0.78461   0.50000   0.83749   0.00000  Uiso   1.00
O804   O     0.71538   0.50000   0.16251   0.00000  Uiso   1.00
O805   O     0.50000   0.78462   0.83749   0.00000  Uiso   1.00
O806   O     0.50000   0.71539   0.16251   0.00000  Uiso   1.00
O807   O     0.71538   0.50000   0.83749   0.00000  Uiso   1.00
O808   O     0.75000   0.50000   0.75000   0.00000  Uiso   1.00
O809   O     0.78461   0.50000   0.16251   0.00000  Uiso   1.00
O810   O     0.70126   0.58332   0.27298   0.00000  Uiso   1.00
O811   O     0.79873   0.91668   0.72702   0.00000  Uiso   1.00
O812   O     0.91668   0.70127   0.27298   0.00000  Uiso   1.00
O813   O     0.58332   0.79874   0.72702   0.00000  Uiso   1.00
O814   O     0.79873   0.91668   0.27298   0.00000  Uiso   1.00
O815   O     0.70126   0.58332   0.72702   0.00000  Uiso   1.00
O816   O     0.58332   0.79874   0.27298   0.00000  Uiso   1.00
O817   O     0.91668   0.70127   0.72702   0.00000  Uiso   1.00
O818   O     0.70126   0.91668   0.72702   0.00000  Uiso   1.00
O819   O     0.50000   0.75000   0.25000   0.00000  Uiso   1.00
O820   O     0.79873   0.58332   0.27298   0.00000  Uiso   1.00
O821   O     0.91668   0.79874   0.72702   0.00000  Uiso   1.00
O822   O     0.58332   0.70127   0.27298   0.00000  Uiso   1.00
O823   O     0.79873   0.58332   0.72702   0.00000  Uiso   1.00
O824   O     0.70126   0.91668   0.27298   0.00000  Uiso   1.00
O825   O     0.58332   0.70127   0.72702   0.00000  Uiso   1.00
O826   O     0.91668   0.79874   0.27298   0.00000  Uiso   1.00
O827   O     0.95126   0.83332   0.77298   0.00000  Uiso   1.00
O828   O     0.54873   0.66668   0.22702   0.00000  Uiso   1.00
O829   O     0.66668   0.95127   0.77298   0.00000  Uiso   1.00
O830   O     0.50000   0.75000   0.75000   0.00000  Uiso   1.00
O831   O     0.83332   0.54874   0.22702   0.00000  Uiso   1.00
O832   O     0.54873   0.66668   0.77298   0.00000  Uiso   1.00
O833   O     0.95126   0.83332   0.22702   0.00000  Uiso   1.00
O834   O     0.83332   0.54874   0.77298   0.00000  Uiso   1.00
O835   O     0.66668   0.95127   0.22702   0.00000  Uiso   1.00
O836   O     0.95126   0.66668   0.22702   0.00000  Uiso   1.00
O837   O     0.54873   0.83332   0.77298   0.00000  Uiso   1.00
O838   O     0.66668   0.54874   0.22702   0.00000  Uiso   1.00
O839   O     0.83332   0.95127   0.77298   0.00000  Uiso   1.00
O840   O     0.54873   0.83332   0.22702   0.00000  Uiso   1.00
O841   O     0.75000   0.96539   0.33749   0.00000  Uiso   1.00
O842   O     0.95126   0.66668   0.77298   0.00000  Uiso   1.00
O843   O     0.83332   0.95127   0.22702   0.00000  Uiso   1.00
O844   O     0.66668   0.54874   0.77298   0.00000  Uiso   1.00
O845   O     0.99341   0.63582   0.46108   0.00000  Uiso   1.00
O846   O     0.50656   0.86418   0.53892   0.00000  Uiso   1.00
O847   O     0.86495   0.99526   0.46016   0.00000  Uiso   1.00
O848   O     0.63504   0.50478   0.53984   0.00000  Uiso   1.00
O849   O     0.99515   0.86495   0.46016   0.00000  Uiso   1.00
O850   O     0.50484   0.63505   0.53984   0.00000  Uiso   1.00
O851   O     0.63582   0.99331   0.46109   0.00000  Uiso   1.00
O852   O     0.75000   0.53462   0.66251   0.00000  Uiso   1.00
O853   O     0.86418   0.50666   0.53892   0.00000  Uiso   1.00
O854   O     0.74140   0.88594   0.96108   0.00000  Uiso   1.00
O855   O     0.75857   0.61406   0.03891   0.00000  Uiso   1.00
O856   O     0.61490   0.74396   0.96017   0.00000  Uiso   1.00
O857   O     0.88510   0.75600   0.03983   0.00000  Uiso   1.00
O858   O     0.74722   0.61502   0.96014   0.00000  Uiso   1.00
O859   O     0.75273   0.88499   0.03986   0.00000  Uiso   1.00
O860   O     0.88576   0.74451   0.96108   0.00000  Uiso   1.00
O861   O     0.61425   0.75540   0.03892   0.00000  Uiso   1.00
O862   O     0.53461   0.75000   0.33749   0.00000  Uiso   1.00
O863   O     0.96538   0.75000   0.66251   0.00000  Uiso   1.00
O864   O     0.75000   0.53462   0.33749   0.00000  Uiso   1.00
Zn865  Zn    0.70052   0.50000   0.21730   0.00000  Uiso   1.00
Zn866  Zn    0.54947   0.75000   0.28270   0.00000  Uiso   1.00
Zn867  Zn    0.75000   0.95053   0.71730   0.00000  Uiso   1.00
Zn868  Zn    0.75000   0.54948   0.28270   0.00000  Uiso   1.00
Zn869  Zn    0.54947   0.75000   0.71730   0.00000  Uiso   1.00
Zn870  Zn    0.95052   0.75000   0.28270   0.00000  Uiso   1.00
Zn871  Zn    0.75000   0.54948   0.71730   0.00000  Uiso   1.00
Zn872  Zn    0.75000   0.95053   0.28270   0.00000  Uiso   1.00
Zn873  Zn    0.79947   0.50000   0.78270   0.00000  Uiso   1.00
Zn874  Zn    0.50000   0.70053   0.21730   0.00000  Uiso   1.00
Zn875  Zn    0.50000   0.79948   0.78270   0.00000  Uiso   1.00
Zn876  Zn    0.79947   0.50000   0.21730   0.00000  Uiso   1.00
Zn877  Zn    0.70052   0.50000   0.78270   0.00000  Uiso   1.00
Zn878  Zn    0.50000   0.79948   0.21730   0.00000  Uiso   1.00
Zn879  Zn    0.50000   0.70053   0.78270   0.00000  Uiso   1.00
Zn880  Zn    0.95052   0.75000   0.71730   0.00000  Uiso   1.00
loop_
_geom_bond_atom_site_label_1
_geom_bond_atom_site_label_2
_geom_bond_distance
_geom_bond_site_symmetry_2
_ccdc_geom_bond_type
Br1    C57     1.945   .     S
Br2    C67     1.945   .     S
Br3    C68     1.943   .     S
Br4    C69     1.943   .     S
Br5    C70     1.943   .     S
Br6    C71     1.943   .     S
Br7    C72     1.945   .     S
Br8    C73     1.945   .     S
Br9    C58     1.945   .     S
Br10   C59     1.943   .     S
Br11   C60     1.943   .     S
Br12   C61     1.943   .     S
Br13   C62     1.943   .     S
Br14   C63     1.945   .     S
Br15   C64     1.945   .     S
Br16   C65     1.945   .     S
C17    C76     1.457   .     S
C17    O181    1.269   .     A
C17    O644    1.270   .     S
C18    C52     1.423   .     S
C18    O179    1.276   .     A
C18    O151    1.276   .     A
C19    O197    1.382   .     S
C19    C95     1.417   .     A
C19    C22     1.406   1_554 S
C20    C96     1.417   .     A
C20    O198    1.383   .     S
C20    C119    1.406   1_556 S
C21    O199    1.382   .     S
C21    C97     1.417   .     A
C21    C118    1.406   1_554 S
C22    C98     1.415   .     A
C22    O200    1.379   .     S
C22    C19     1.406   1_556 S
C23    O201    1.379   .     S
C23    C100    1.415   .     A
C23    C120    1.406   1_554 S
C24    O152    1.276   .     A
C24    C51     1.423   .     S
C24    O176    1.276   .     A
C25    O177    1.276   .     A
C25    O153    1.276   .     A
C25    C50     1.423   .     S
C26    O183    1.276   .     A
C26    C49     1.423   .     S
C26    O154    1.276   .     A
C27    O155    1.276   .     A
C27    C48     1.423   .     S
C27    O184    1.276   .     A
C28    C56     1.423   .     S
C28    O180    1.276   .     A
C28    O156    1.276   .     A
C29    O157    1.276   .     A
C29    O182    1.276   .     A
C29    C54     1.423   .     S
C30    C45     1.423   .     S
C30    O169    1.276   .     A
C30    O158    1.276   .     A
C31    C43     1.423   .     S
C31    O160    1.276   .     A
C31    O171    1.276   .     A
C32    O161    1.276   .     A
C32    C42     1.423   .     S
C32    O167    1.276   .     A
C33    C78     1.457   .     S
C33    O192    1.269   .     A
C33    O578    1.270   1_545 S
C34    C41     1.423   .     S
C34    O168    1.276   .     A
C34    O162    1.276   .     A
C35    O163    1.276   .     A
C35    O174    1.276   .     A
C35    C40     1.423   .     S
C36    C39     1.423   .     S
C36    O164    1.276   .     A
C36    O175    1.276   .     A
C37    O172    1.276   .     A
C37    C47     1.423   .     S
C37    O165    1.276   .     A
C38    O166    1.276   .     A
C38    O173    1.276   .     A
C38    C46     1.423   .     S
C39    C56     1.199   .     T
C40    C54     1.199   .     T
C41    C53     1.199   .     T
C42    C52     1.199   .     T
C43    C51     1.199   .     T
C44    C74     1.457   .     S
C44    O139    1.269   .     A
C44    O422    1.270   .     S
C45    C50     1.199   .     T
C46    C49     1.199   .     T
C47    C48     1.199   .     T
C53    C110    1.423   .     S
C55    C75     1.457   .     S
C55    O140    1.269   .     A
C55    O423    1.270   1_455 S
C57    C87     1.419   .     A
C57    C74     1.403   .     A
C58    C89     1.419   .     A
C58    C75     1.403   .     A
C59    C90     1.411   .     A
C59    C516    1.399   1_545 S
C60    C91     1.411   .     A
C60    C518    1.399   .     S
C61    C83     1.410   .     A
C61    C294    1.399   1_455 S
C62    C84     1.411   .     A
C62    C295    1.399   .     S
C63    C76     1.403   .     A
C63    C85     1.419   .     A
C64    C86     1.419   .     A
C64    C78     1.403   .     A
C65    C79     1.403   .     A
C65    C96     1.419   .     A
C66    C81     1.457   .     S
C66    O141    1.269   .     S
C66    O145    1.270   .     S
C67    C97     1.419   .     A
C67    C80     1.403   .     A
C68    C98     1.410   .     A
C68    C301    1.399   .     S
C69    C100    1.410   .     A
C69    C302    1.399   1_455 S
C70    C92     1.411   .     A
C70    C519    1.399   .     S
C71    C93     1.411   .     A
C71    C520    1.399   1_545 S
C72    C81     1.403   .     A
C72    C94     1.419   .     A
C73    C82     1.403   .     A
C73    C95     1.419   .     A
C74    C281    1.399   .     S
C75    C282    1.399   1_455 S
C76    C499    1.399   .     S
C77    O142    1.269   .     A
C77    O146    1.270   .     A
C77    C302    1.457   1_455 S
C78    C500    1.399   1_545 S
C79    C510    1.399   1_545 S
C79    C88     1.457   .     S
C80    C511    1.399   .     S
C80    C539    1.457   .     S
C81    C288    1.399   1_455 S
C82    C297    1.457   .     S
C82    C289    1.399   .     S
C83    C109    1.415   .     A
C83    C321    1.418   1_455 S
C84    C111    1.415   .     A
C84    C322    1.418   .     S
C85    C112    1.417   .     A
C85    C103    1.425   .     A
C86    C104    1.425   .     A
C86    C113    1.417   .     A
C87    C114    1.417   .     A
C87    C101    1.425   .     A
C88    O143    1.270   .     A
C88    O147    1.269   .     A
C89    C115    1.417   .     A
C89    C102    1.425   .     A
C90    C116    1.415   .     A
C90    C543    1.418   1_545 S
C91    C117    1.415   .     A
C91    C544    1.418   .     S
C92    C118    1.415   .     A
C92    C545    1.418   .     S
C93    C119    1.415   .     A
C93    C546    1.418   1_545 S
C94    C120    1.417   .     A
C94    C107    1.425   .     A
C95    C108    1.425   .     A
C96    C105    1.425   .     A
C97    C106    1.425   .     A
C98    C327    1.418   .     S
C99    O149    1.269   .     A
C99    O144    1.270   .     A
C99    C520    1.457   1_545 S
C100   C328    1.418   1_455 S
C101   C303    1.418   .     S
C101   C322    1.416   .     S
C102   C304    1.418   1_455 S
C102   C321    1.416   1_455 S
C103   C530    1.418   .     S
C103   C544    1.416   .     S
C104   C531    1.418   1_545 S
C104   C543    1.416   1_545 S
C105   C532    1.418   1_545 S
C105   C546    1.416   1_546 S
C106   C533    1.418   .     S
C106   C545    1.416   1_554 S
C107   C318    1.418   1_455 S
C107   C328    1.416   1_456 S
C108   C320    1.418   .     S
C108   C327    1.416   1_554 S
C109   C115    1.406   .     A
C109   O405    1.379   1_455 S
C110   O178    1.276   .     A
C110   O150    1.276   .     A
C111   C114    1.406   .     A
C111   O406    1.379   .     S
C112   C117    1.406   .     A
C112   O187    1.382   .     S
C113   C116    1.406   .     A
C113   O188    1.382   .     S
C114   O189    1.382   .     S
C115   O190    1.383   .     S
C116   O631    1.379   1_545 S
C117   O633    1.379   .     S
C118   O194    1.379   .     S
C118   C21     1.406   1_556 S
C119   O195    1.379   .     S
C119   C20     1.406   1_554 S
C120   O196    1.382   .     S
C120   C23     1.406   1_556 S
H121   O185    0.992   .     S
H122   O195    0.992   .     S
H123   O196    0.990   .     S
H124   O197    0.990   .     S
H125   O198    0.990   .     S
H126   O199    0.990   .     S
H127   O200    0.992   .     S
H128   O201    0.992   .     S
H129   O186    0.992   .     S
H130   O187    0.990   .     S
H131   O188    0.990   .     S
H132   O189    0.990   .     S
H133   O190    0.990   .     S
H134   O191    0.992   .     S
H135   O193    0.992   .     S
H136   O194    0.992   .     S
O137   Zn208   1.935   .     S
O137   Zn205   1.935   .     S
O137   Zn652   1.935   1_545 S
O137   Zn216   1.935   .     S
O138   Zn207   1.946   .     S
O138   C473    1.270   .     S
O139   Zn210   1.946   .     S
O140   Zn209   1.946   .     S
O141   Zn219   1.946   .     S
O142   Zn218   1.946   .     S
O143   Zn213   1.946   .     S
O144   Zn205   1.946   .     S
O145   Zn215   1.946   .     S
O146   Zn214   1.946   .     S
O147   Zn217   1.946   .     S
O148   Zn213   1.935   .     S
O148   Zn217   1.935   .     S
O148   Zn211   1.935   .     S
O148   Zn647   1.935   1_545 S
O149   Zn216   1.946   .     S
O150   Zn208   1.916   .     S
O151   Zn207   1.916   .     S
O152   Zn210   1.917   .     S
O153   Zn209   1.917   .     S
O154   Zn212   1.916   .     S
O155   Zn211   1.916   .     S
O156   Zn206   1.916   .     S
O157   Zn220   1.916   .     S
O158   Zn207   1.916   .     S
O159   Zn218   1.935   .     S
O159   Zn206   1.935   .     S
O159   Zn214   1.935   .     S
O159   Zn430   1.935   1_455 S
O160   Zn208   1.916   .     S
O161   Zn220   1.916   .     S
O162   Zn206   1.916   .     S
O163   Zn211   1.917   .     S
O164   Zn212   1.917   .     S
O165   Zn209   1.916   .     S
O166   Zn210   1.916   .     S
O167   Zn435   1.916   .     S
O168   Zn214   1.916   .     S
O169   Zn657   1.917   .     S
O170   Zn219   1.935   .     S
O170   Zn215   1.935   .     S
O170   Zn209   1.935   .     S
O170   Zn440   1.935   1_455 S
O171   Zn216   1.917   .     S
O172   Zn219   1.916   .     S
O173   Zn438   1.916   .     S
O174   Zn213   1.916   .     S
O175   Zn645   1.916   .     S
O176   Zn434   1.916   .     S
O177   Zn215   1.916   .     S
O178   Zn205   1.916   .     S
O179   Zn653   1.916   .     S
O180   Zn218   1.917   .     S
O181   Zn212   1.946   .     S
O182   Zn439   1.917   .     S
O183   Zn656   1.916   .     S
O184   Zn217   1.916   .     S
O185   C329    1.379   .     S
O186   C331    1.379   1_455 S
O191   C556    1.379   .     S
O192   Zn211   1.946   .     S
O193   C557    1.379   1_545 S
O202   Zn206   1.946   .     S
O202   C264    1.270   1_455 S
O203   Zn220   1.946   .     S
O203   C275    1.270   .     S
O204   Zn208   1.946   .     S
O204   C457    1.270   1_545 S
Zn205  O615    1.916   1_545 S
Zn207  O588    1.935   .     S
Zn210  O379    1.935   .     S
Zn212  O577    1.935   .     S
Zn213  O619    1.916   1_545 S
Zn214  O396    1.916   1_455 S
Zn215  O387    1.916   1_455 S
Zn216  O623    1.916   1_545 S
Zn217  O609    1.917   1_545 S
Zn218  O393    1.916   1_455 S
Zn219  O402    1.917   1_455 S
Zn220  O390    1.935   .     S
Br221  C277    1.945   .     S
Br222  C287    1.945   .     S
Br223  C288    1.943   .     S
Br224  C289    1.943   .     S
Br225  C290    1.943   .     S
Br226  C291    1.943   .     S
Br227  C292    1.945   .     S
Br228  C293    1.945   .     S
Br229  C278    1.945   .     S
Br230  C279    1.943   .     S
Br231  C280    1.943   .     S
Br232  C281    1.943   .     S
Br233  C282    1.943   .     S
Br234  C283    1.945   .     S
Br235  C284    1.945   .     S
Br236  C285    1.945   .     S
C237   C296    1.457   .     S
C237   O401    1.269   .     A
C237   O864    1.270   .     S
C238   C272    1.423   .     S
C238   O399    1.276   .     A
C238   O371    1.276   .     A
C239   O417    1.382   .     S
C239   C315    1.417   .     A
C239   C242    1.406   1_554 S
C240   C316    1.417   .     A
C240   O418    1.383   .     S
C240   C339    1.406   1_556 S
C241   O419    1.382   .     S
C241   C317    1.417   .     A
C241   C338    1.406   1_554 S
C242   C318    1.415   .     A
C242   O420    1.379   .     S
C242   C239    1.406   1_556 S
C243   O421    1.379   .     S
C243   C320    1.415   .     A
C243   C340    1.406   1_554 S
C244   O372    1.276   .     A
C244   C271    1.423   .     S
C244   O396    1.276   .     A
C245   O397    1.276   .     A
C245   O373    1.276   .     A
C245   C270    1.423   .     S
C246   O403    1.276   .     A
C246   C269    1.423   .     S
C246   O374    1.276   .     A
C247   O375    1.276   .     A
C247   C268    1.423   .     S
C247   O404    1.276   .     A
C248   C276    1.423   .     S
C248   O400    1.276   .     A
C248   O376    1.276   .     A
C249   O377    1.276   .     A
C249   O402    1.276   .     A
C249   C274    1.423   .     S
C250   C265    1.423   .     S
C250   O389    1.276   .     A
C250   O378    1.276   .     A
C251   C263    1.423   .     S
C251   O380    1.276   .     A
C251   O391    1.276   .     A
C252   O381    1.276   .     A
C252   C262    1.423   .     S
C252   O387    1.276   .     A
C253   C298    1.457   .     S
C253   O412    1.269   .     A
C253   O798    1.270   1_545 S
C254   C261    1.423   .     S
C254   O388    1.276   .     A
C254   O382    1.276   .     A
C255   O383    1.276   .     A
C255   O394    1.276   .     A
C255   C260    1.423   .     S
C256   C259    1.423   .     S
C256   O384    1.276   .     A
C256   O395    1.276   .     A
C257   O392    1.276   .     A
C257   C267    1.423   .     S
C257   O385    1.276   .     A
C258   O386    1.276   .     A
C258   O393    1.276   .     A
C258   C266    1.423   .     S
C259   C276    1.199   .     T
C260   C274    1.199   .     T
C261   C273    1.199   .     T
C262   C272    1.199   .     T
C263   C271    1.199   .     T
C264   C294    1.457   .     S
C264   O359    1.269   .     A
C264   O202    1.270   1_655 S
C265   C270    1.199   .     T
C266   C269    1.199   .     T
C267   C268    1.199   .     T
C273   C330    1.423   .     S
C275   C295    1.457   .     S
C275   O360    1.269   .     A
C277   C307    1.419   .     A
C277   C294    1.403   .     A
C278   C309    1.419   .     A
C278   C295    1.403   .     A
C279   C310    1.411   .     A
C279   C736    1.399   1_545 S
C280   C311    1.411   .     A
C280   C738    1.399   .     S
C281   C303    1.410   .     A
C282   C304    1.411   .     A
C282   C75     1.399   1_655 S
C283   C296    1.403   .     A
C283   C305    1.419   .     A
C284   C306    1.419   .     A
C284   C298    1.403   .     A
C285   C299    1.403   .     A
C285   C316    1.419   .     A
C286   C301    1.457   .     S
C286   O361    1.269   .     S
C286   O365    1.270   .     S
C287   C317    1.419   .     A
C287   C300    1.403   .     A
C288   C318    1.410   .     A
C288   C81     1.399   1_655 S
C289   C320    1.410   .     A
C290   C312    1.411   .     A
C290   C739    1.399   .     S
C291   C313    1.411   .     A
C291   C740    1.399   1_545 S
C292   C301    1.403   .     A
C292   C314    1.419   .     A
C293   C302    1.403   .     A
C293   C315    1.419   .     A
C294   C61     1.399   1_655 S
C296   C719    1.399   .     S
C297   O362    1.269   .     A
C297   O366    1.270   .     A
C298   C720    1.399   1_545 S
C299   C730    1.399   1_545 S
C299   C308    1.457   .     S
C300   C731    1.399   .     S
C300   C759    1.457   .     S
C302   C77     1.457   1_655 S
C302   C69     1.399   1_655 S
C303   C329    1.415   .     A
C304   C331    1.415   .     A
C304   C102    1.418   1_655 S
C305   C332    1.417   .     A
C305   C323    1.425   .     A
C306   C324    1.425   .     A
C306   C333    1.417   .     A
C307   C334    1.417   .     A
C307   C321    1.425   .     A
C308   O363    1.270   .     A
C308   O367    1.269   .     A
C309   C335    1.417   .     A
C309   C322    1.425   .     A
C310   C336    1.415   .     A
C310   C763    1.418   1_545 S
C311   C337    1.415   .     A
C311   C764    1.418   .     S
C312   C338    1.415   .     A
C312   C765    1.418   .     S
C313   C339    1.415   .     A
C313   C766    1.418   1_545 S
C314   C340    1.417   .     A
C314   C327    1.425   .     A
C315   C328    1.425   .     A
C316   C325    1.425   .     A
C317   C326    1.425   .     A
C318   C107    1.418   1_655 S
C319   O369    1.269   .     A
C319   O364    1.270   .     A
C319   C740    1.457   1_545 S
C321   C83     1.418   1_655 S
C321   C102    1.416   1_655 S
C323   C750    1.418   .     S
C323   C764    1.416   .     S
C324   C751    1.418   1_545 S
C324   C763    1.416   1_545 S
C325   C752    1.418   1_545 S
C325   C766    1.416   1_546 S
C326   C753    1.418   .     S
C326   C765    1.416   1_554 S
C327   C108    1.416   1_556 S
C328   C100    1.418   1_655 S
C328   C107    1.416   1_654 S
C329   C335    1.406   .     A
C330   O398    1.276   .     A
C330   O370    1.276   .     A
C331   C334    1.406   .     A
C331   O186    1.379   1_655 S
C332   C337    1.406   .     A
C332   O407    1.382   .     S
C333   C336    1.406   .     A
C333   O408    1.382   .     S
C334   O409    1.382   .     S
C335   O410    1.383   .     S
C336   O851    1.379   1_545 S
C337   O853    1.379   .     S
C338   O414    1.379   .     S
C338   C241    1.406   1_556 S
C339   O415    1.379   .     S
C339   C240    1.406   1_554 S
C340   O416    1.382   .     S
C340   C243    1.406   1_556 S
H341   O405    0.992   .     S
H342   O415    0.992   .     S
H343   O416    0.990   .     S
H344   O417    0.990   .     S
H345   O418    0.990   .     S
H346   O419    0.990   .     S
H347   O420    0.992   .     S
H348   O421    0.992   .     S
H349   O406    0.992   .     S
H350   O407    0.990   .     S
H351   O408    0.990   .     S
H352   O409    0.990   .     S
H353   O410    0.990   .     S
H354   O411    0.992   .     S
H355   O413    0.992   .     S
H356   O414    0.992   .     S
O357   Zn428   1.935   .     S
O357   Zn425   1.935   .     S
O357   Zn872   1.935   1_545 S
O357   Zn436   1.935   .     S
O358   Zn427   1.946   .     S
O358   C693    1.270   .     S
O359   Zn430   1.946   .     S
O360   Zn429   1.946   .     S
O361   Zn439   1.946   .     S
O362   Zn438   1.946   .     S
O363   Zn433   1.946   .     S
O364   Zn425   1.946   .     S
O365   Zn435   1.946   .     S
O366   Zn434   1.946   .     S
O367   Zn437   1.946   .     S
O368   Zn433   1.935   .     S
O368   Zn437   1.935   .     S
O368   Zn431   1.935   .     S
O368   Zn867   1.935   1_545 S
O369   Zn436   1.946   .     S
O370   Zn428   1.916   .     S
O371   Zn427   1.916   .     S
O372   Zn430   1.917   .     S
O373   Zn429   1.917   .     S
O374   Zn432   1.916   .     S
O375   Zn431   1.916   .     S
O376   Zn426   1.916   .     S
O377   Zn440   1.916   .     S
O378   Zn427   1.916   .     S
O379   Zn438   1.935   .     S
O379   Zn426   1.935   .     S
O379   Zn434   1.935   .     S
O380   Zn428   1.916   .     S
O381   Zn440   1.916   .     S
O382   Zn426   1.916   .     S
O383   Zn431   1.917   .     S
O384   Zn432   1.917   .     S
O385   Zn429   1.916   .     S
O386   Zn430   1.916   .     S
O387   Zn215   1.916   1_655 S
O388   Zn434   1.916   .     S
O389   Zn877   1.917   .     S
O390   Zn439   1.935   .     S
O390   Zn435   1.935   .     S
O390   Zn429   1.935   .     S
O391   Zn436   1.917   .     S
O392   Zn439   1.916   .     S
O393   Zn218   1.916   1_655 S
O394   Zn433   1.916   .     S
O395   Zn865   1.916   .     S
O396   Zn214   1.916   1_655 S
O397   Zn435   1.916   .     S
O398   Zn425   1.916   .     S
O399   Zn873   1.916   .     S
O400   Zn438   1.917   .     S
O401   Zn432   1.946   .     S
O402   Zn219   1.917   1_655 S
O403   Zn876   1.916   .     S
O404   Zn437   1.916   .     S
O405   C109    1.379   1_655 S
O411   C776    1.379   .     S
O412   Zn431   1.946   .     S
O413   C777    1.379   1_545 S
O422   Zn426   1.946   .     S
O423   Zn440   1.946   .     S
O423   C55     1.270   1_655 S
O424   Zn428   1.946   .     S
O424   C677    1.270   1_545 S
Zn425  O835    1.916   1_545 S
Zn427  O808    1.935   .     S
Zn430  O159    1.935   1_655 S
Zn432  O797    1.935   .     S
Zn433  O839    1.916   1_545 S
Zn436  O843    1.916   1_545 S
Zn437  O829    1.917   1_545 S
Zn440  O170    1.935   1_655 S
Br441  C497    1.945   .     S
Br442  C507    1.945   .     S
Br443  C508    1.943   .     S
Br444  C509    1.943   .     S
Br445  C510    1.943   .     S
Br446  C511    1.943   .     S
Br447  C512    1.945   .     S
Br448  C513    1.945   .     S
Br449  C498    1.945   .     S
Br450  C499    1.943   .     S
Br451  C500    1.943   .     S
Br452  C501    1.943   .     S
Br453  C502    1.943   .     S
Br454  C503    1.945   .     S
Br455  C504    1.945   .     S
Br456  C505    1.945   .     S
C457   C516    1.457   .     S
C457   O621    1.269   .     A
C457   O204    1.270   1_565 S
C458   C492    1.423   .     S
C458   O619    1.276   .     A
C458   O591    1.276   .     A
C459   O637    1.382   .     S
C459   C535    1.417   .     A
C459   C462    1.406   1_554 S
C460   C536    1.417   .     A
C460   O638    1.383   .     S
C460   C559    1.406   1_556 S
C461   O639    1.382   .     S
C461   C537    1.417   .     A
C461   C558    1.406   1_554 S
C462   C538    1.415   .     A
C462   O640    1.379   .     S
C462   C459    1.406   1_556 S
C463   O641    1.379   .     S
C463   C540    1.415   .     A
C463   C560    1.406   1_554 S
C464   O592    1.276   .     A
C464   C491    1.423   .     S
C464   O616    1.276   .     A
C465   O617    1.276   .     A
C465   O593    1.276   .     A
C465   C490    1.423   .     S
C466   O623    1.276   .     A
C466   C489    1.423   .     S
C466   O594    1.276   .     A
C467   O595    1.276   .     A
C467   C488    1.423   .     S
C467   O624    1.276   .     A
C468   C496    1.423   .     S
C468   O620    1.276   .     A
C468   O596    1.276   .     A
C469   O597    1.276   .     A
C469   O622    1.276   .     A
C469   C494    1.423   .     S
C470   C485    1.423   .     S
C470   O609    1.276   .     A
C470   O598    1.276   .     A
C471   C483    1.423   .     S
C471   O600    1.276   .     A
C471   O611    1.276   .     A
C472   O601    1.276   .     A
C472   C482    1.423   .     S
C472   O607    1.276   .     A
C473   C518    1.457   .     S
C473   O632    1.269   .     A
C474   C481    1.423   .     S
C474   O608    1.276   .     A
C474   O602    1.276   .     A
C475   O603    1.276   .     A
C475   O614    1.276   .     A
C475   C480    1.423   .     S
C476   C479    1.423   .     S
C476   O604    1.276   .     A
C476   O615    1.276   .     A
C477   O612    1.276   .     A
C477   C487    1.423   .     S
C477   O605    1.276   .     A
C478   O606    1.276   .     A
C478   O613    1.276   .     A
C478   C486    1.423   .     S
C479   C496    1.199   .     T
C480   C494    1.199   .     T
C481   C493    1.199   .     T
C482   C492    1.199   .     T
C483   C491    1.199   .     T
C484   C514    1.457   .     S
C484   O579    1.269   .     A
C484   O862    1.270   .     S
C485   C490    1.199   .     T
C486   C489    1.199   .     T
C487   C488    1.199   .     T
C493   C550    1.423   .     S
C495   C515    1.457   .     S
C495   O580    1.269   .     A
C495   O863    1.270   1_455 S
C497   C527    1.419   .     A
C497   C514    1.403   .     A
C498   C529    1.419   .     A
C498   C515    1.403   .     A
C499   C530    1.411   .     A
C500   C531    1.411   .     A
C500   C78     1.399   1_565 S
C501   C523    1.410   .     A
C501   C734    1.399   1_455 S
C502   C524    1.411   .     A
C502   C735    1.399   .     S
C503   C516    1.403   .     A
C503   C525    1.419   .     A
C504   C526    1.419   .     A
C504   C518    1.403   .     A
C505   C519    1.403   .     A
C505   C536    1.419   .     A
C506   C521    1.457   .     S
C506   O581    1.269   .     S
C506   O585    1.270   .     S
C507   C537    1.419   .     A
C507   C520    1.403   .     A
C508   C538    1.410   .     A
C508   C741    1.399   .     S
C509   C540    1.410   .     A
C509   C742    1.399   1_455 S
C510   C532    1.411   .     A
C510   C79     1.399   1_565 S
C511   C533    1.411   .     A
C512   C521    1.403   .     A
C512   C534    1.419   .     A
C513   C522    1.403   .     A
C513   C535    1.419   .     A
C514   C721    1.399   .     S
C515   C722    1.399   1_455 S
C516   C59     1.399   1_565 S
C517   O582    1.269   .     A
C517   O586    1.270   .     A
C517   C742    1.457   1_455 S
C519   C528    1.457   .     S
C520   C71     1.399   1_565 S
C520   C99     1.457   1_565 S
C521   C728    1.399   1_455 S
C522   C737    1.457   .     S
C522   C729    1.399   .     S
C523   C549    1.415   .     A
C523   C761    1.418   1_455 S
C524   C551    1.415   .     A
C524   C762    1.418   .     S
C525   C552    1.417   .     A
C525   C543    1.425   .     A
C526   C544    1.425   .     A
C526   C553    1.417   .     A
C527   C554    1.417   .     A
C527   C541    1.425   .     A
C528   O583    1.270   .     A
C528   O587    1.269   .     A
C529   C555    1.417   .     A
C529   C542    1.425   .     A
C530   C556    1.415   .     A
C531   C557    1.415   .     A
C531   C104    1.418   1_565 S
C532   C558    1.415   .     A
C532   C105    1.418   1_565 S
C533   C559    1.415   .     A
C534   C560    1.417   .     A
C534   C547    1.425   .     A
C535   C548    1.425   .     A
C536   C545    1.425   .     A
C537   C546    1.425   .     A
C538   C767    1.418   .     S
C539   O589    1.269   .     A
C539   O584    1.270   .     A
C540   C768    1.418   1_455 S
C541   C743    1.418   .     S
C541   C762    1.416   .     S
C542   C744    1.418   1_455 S
C542   C761    1.416   1_455 S
C543   C90     1.418   1_565 S
C543   C104    1.416   1_565 S
C545   C106    1.416   1_556 S
C546   C93     1.418   1_565 S
C546   C105    1.416   1_564 S
C547   C758    1.418   1_455 S
C547   C768    1.416   1_456 S
C548   C760    1.418   .     S
C548   C767    1.416   1_554 S
C549   C555    1.406   .     A
C549   O845    1.379   1_455 S
C550   O618    1.276   .     A
C550   O590    1.276   .     A
C551   C554    1.406   .     A
C551   O846    1.379   .     S
C552   C557    1.406   .     A
C552   O627    1.382   .     S
C553   C556    1.406   .     A
C553   O628    1.382   .     S
C554   O629    1.382   .     S
C555   O630    1.383   .     S
C557   O193    1.379   1_565 S
C558   O634    1.379   .     S
C558   C461    1.406   1_556 S
C559   O635    1.379   .     S
C559   C460    1.406   1_554 S
C560   O636    1.382   .     S
C560   C463    1.406   1_556 S
H561   O625    0.992   .     S
H562   O635    0.992   .     S
H563   O636    0.990   .     S
H564   O637    0.990   .     S
H565   O638    0.990   .     S
H566   O639    0.990   .     S
H567   O640    0.992   .     S
H568   O641    0.992   .     S
H569   O626    0.992   .     S
H570   O627    0.990   .     S
H571   O628    0.990   .     S
H572   O629    0.990   .     S
H573   O630    0.990   .     S
H574   O631    0.992   .     S
H575   O633    0.992   .     S
H576   O634    0.992   .     S
O577   Zn648   1.935   .     S
O577   Zn645   1.935   .     S
O577   Zn656   1.935   .     S
O578   Zn647   1.946   .     S
O578   C33     1.270   1_565 S
O579   Zn650   1.946   .     S
O580   Zn649   1.946   .     S
O581   Zn659   1.946   .     S
O582   Zn658   1.946   .     S
O583   Zn653   1.946   .     S
O584   Zn645   1.946   .     S
O585   Zn655   1.946   .     S
O586   Zn654   1.946   .     S
O587   Zn657   1.946   .     S
O588   Zn653   1.935   .     S
O588   Zn657   1.935   .     S
O588   Zn651   1.935   .     S
O589   Zn656   1.946   .     S
O590   Zn648   1.916   .     S
O591   Zn647   1.916   .     S
O592   Zn650   1.917   .     S
O593   Zn649   1.917   .     S
O594   Zn652   1.916   .     S
O595   Zn651   1.916   .     S
O596   Zn646   1.916   .     S
O597   Zn660   1.916   .     S
O598   Zn647   1.916   .     S
O599   Zn658   1.935   .     S
O599   Zn646   1.935   .     S
O599   Zn654   1.935   .     S
O599   Zn870   1.935   1_455 S
O600   Zn648   1.916   .     S
O601   Zn660   1.916   .     S
O602   Zn646   1.916   .     S
O603   Zn651   1.917   .     S
O604   Zn652   1.917   .     S
O605   Zn649   1.916   .     S
O606   Zn650   1.916   .     S
O607   Zn875   1.916   .     S
O608   Zn654   1.916   .     S
O609   Zn217   1.917   1_565 S
O610   Zn659   1.935   .     S
O610   Zn655   1.935   .     S
O610   Zn649   1.935   .     S
O610   Zn880   1.935   1_455 S
O611   Zn656   1.917   .     S
O612   Zn659   1.916   .     S
O613   Zn878   1.916   .     S
O614   Zn653   1.916   .     S
O615   Zn205   1.916   1_565 S
O616   Zn874   1.916   .     S
O617   Zn655   1.916   .     S
O618   Zn645   1.916   .     S
O619   Zn213   1.916   1_565 S
O620   Zn658   1.917   .     S
O621   Zn652   1.946   .     S
O622   Zn879   1.917   .     S
O623   Zn216   1.916   1_565 S
O624   Zn657   1.916   .     S
O625   C769    1.379   .     S
O626   C771    1.379   1_455 S
O631   C116    1.379   1_565 S
O632   Zn651   1.946   .     S
O642   Zn646   1.946   .     S
O642   C704    1.270   1_455 S
O643   Zn660   1.946   .     S
O643   C715    1.270   .     S
O644   Zn648   1.946   .     S
Zn647  O148    1.935   1_565 S
Zn650  O819    1.935   .     S
Zn652  O137    1.935   1_565 S
Zn654  O836    1.916   1_455 S
Zn655  O827    1.916   1_455 S
Zn658  O833    1.916   1_455 S
Zn659  O842    1.917   1_455 S
Zn660  O830    1.935   .     S
Br661  C717    1.945   .     S
Br662  C727    1.945   .     S
Br663  C728    1.943   .     S
Br664  C729    1.943   .     S
Br665  C730    1.943   .     S
Br666  C731    1.943   .     S
Br667  C732    1.945   .     S
Br668  C733    1.945   .     S
Br669  C718    1.945   .     S
Br670  C719    1.943   .     S
Br671  C720    1.943   .     S
Br672  C721    1.943   .     S
Br673  C722    1.943   .     S
Br674  C723    1.945   .     S
Br675  C724    1.945   .     S
Br676  C725    1.945   .     S
C677   C736    1.457   .     S
C677   O841    1.269   .     A
C677   O424    1.270   1_565 S
C678   C712    1.423   .     S
C678   O839    1.276   .     A
C678   O811    1.276   .     A
C679   O857    1.382   .     S
C679   C755    1.417   .     A
C679   C682    1.406   1_554 S
C680   C756    1.417   .     A
C680   O858    1.383   .     S
C680   C779    1.406   1_556 S
C681   O859    1.382   .     S
C681   C757    1.417   .     A
C681   C778    1.406   1_554 S
C682   C758    1.415   .     A
C682   O860    1.379   .     S
C682   C679    1.406   1_556 S
C683   O861    1.379   .     S
C683   C760    1.415   .     A
C683   C780    1.406   1_554 S
C684   O812    1.276   .     A
C684   C711    1.423   .     S
C684   O836    1.276   .     A
C685   O837    1.276   .     A
C685   O813    1.276   .     A
C685   C710    1.423   .     S
C686   O843    1.276   .     A
C686   C709    1.423   .     S
C686   O814    1.276   .     A
C687   O815    1.276   .     A
C687   C708    1.423   .     S
C687   O844    1.276   .     A
C688   C716    1.423   .     S
C688   O840    1.276   .     A
C688   O816    1.276   .     A
C689   O817    1.276   .     A
C689   O842    1.276   .     A
C689   C714    1.423   .     S
C690   C705    1.423   .     S
C690   O829    1.276   .     A
C690   O818    1.276   .     A
C691   C703    1.423   .     S
C691   O820    1.276   .     A
C691   O831    1.276   .     A
C692   O821    1.276   .     A
C692   C702    1.423   .     S
C692   O827    1.276   .     A
C693   C738    1.457   .     S
C693   O852    1.269   .     A
C694   C701    1.423   .     S
C694   O828    1.276   .     A
C694   O822    1.276   .     A
C695   O823    1.276   .     A
C695   O834    1.276   .     A
C695   C700    1.423   .     S
C696   C699    1.423   .     S
C696   O824    1.276   .     A
C696   O835    1.276   .     A
C697   O832    1.276   .     A
C697   C707    1.423   .     S
C697   O825    1.276   .     A
C698   O826    1.276   .     A
C698   O833    1.276   .     A
C698   C706    1.423   .     S
C699   C716    1.199   .     T
C700   C714    1.199   .     T
C701   C713    1.199   .     T
C702   C712    1.199   .     T
C703   C711    1.199   .     T
C704   C734    1.457   .     S
C704   O799    1.269   .     A
C704   O642    1.270   1_655 S
C705   C710    1.199   .     T
C706   C709    1.199   .     T
C707   C708    1.199   .     T
C713   C770    1.423   .     S
C715   C735    1.457   .     S
C715   O800    1.269   .     A
C717   C747    1.419   .     A
C717   C734    1.403   .     A
C718   C749    1.419   .     A
C718   C735    1.403   .     A
C719   C750    1.411   .     A
C720   C751    1.411   .     A
C720   C298    1.399   1_565 S
C721   C743    1.410   .     A
C722   C744    1.411   .     A
C722   C515    1.399   1_655 S
C723   C736    1.403   .     A
C723   C745    1.419   .     A
C724   C746    1.419   .     A
C724   C738    1.403   .     A
C725   C739    1.403   .     A
C725   C756    1.419   .     A
C726   C741    1.457   .     S
C726   O801    1.269   .     S
C726   O805    1.270   .     S
C727   C757    1.419   .     A
C727   C740    1.403   .     A
C728   C758    1.410   .     A
C728   C521    1.399   1_655 S
C729   C760    1.410   .     A
C730   C752    1.411   .     A
C730   C299    1.399   1_565 S
C731   C753    1.411   .     A
C732   C741    1.403   .     A
C732   C754    1.419   .     A
C733   C742    1.403   .     A
C733   C755    1.419   .     A
C734   C501    1.399   1_655 S
C736   C279    1.399   1_565 S
C737   O802    1.269   .     A
C737   O806    1.270   .     A
C739   C748    1.457   .     S
C740   C291    1.399   1_565 S
C740   C319    1.457   1_565 S
C742   C517    1.457   1_655 S
C742   C509    1.399   1_655 S
C743   C769    1.415   .     A
C744   C771    1.415   .     A
C744   C542    1.418   1_655 S
C745   C772    1.417   .     A
C745   C763    1.425   .     A
C746   C764    1.425   .     A
C746   C773    1.417   .     A
C747   C774    1.417   .     A
C747   C761    1.425   .     A
C748   O803    1.270   .     A
C748   O807    1.269   .     A
C749   C775    1.417   .     A
C749   C762    1.425   .     A
C750   C776    1.415   .     A
C751   C777    1.415   .     A
C751   C324    1.418   1_565 S
C752   C778    1.415   .     A
C752   C325    1.418   1_565 S
C753   C779    1.415   .     A
C754   C780    1.417   .     A
C754   C767    1.425   .     A
C755   C768    1.425   .     A
C756   C765    1.425   .     A
C757   C766    1.425   .     A
C758   C547    1.418   1_655 S
C759   O809    1.269   .     A
C759   O804    1.270   .     A
C761   C523    1.418   1_655 S
C761   C542    1.416   1_655 S
C763   C310    1.418   1_565 S
C763   C324    1.416   1_565 S
C765   C326    1.416   1_556 S
C766   C313    1.418   1_565 S
C766   C325    1.416   1_564 S
C767   C548    1.416   1_556 S
C768   C540    1.418   1_655 S
C768   C547    1.416   1_654 S
C769   C775    1.406   .     A
C770   O838    1.276   .     A
C770   O810    1.276   .     A
C771   C774    1.406   .     A
C771   O626    1.379   1_655 S
C772   C777    1.406   .     A
C772   O847    1.382   .     S
C773   C776    1.406   .     A
C773   O848    1.382   .     S
C774   O849    1.382   .     S
C775   O850    1.383   .     S
C777   O413    1.379   1_565 S
C778   O854    1.379   .     S
C778   C681    1.406   1_556 S
C779   O855    1.379   .     S
C779   C680    1.406   1_554 S
C780   O856    1.382   .     S
C780   C683    1.406   1_556 S
H781   O845    0.992   .     S
H782   O855    0.992   .     S
H783   O856    0.990   .     S
H784   O857    0.990   .     S
H785   O858    0.990   .     S
H786   O859    0.990   .     S
H787   O860    0.992   .     S
H788   O861    0.992   .     S
H789   O846    0.992   .     S
H790   O847    0.990   .     S
H791   O848    0.990   .     S
H792   O849    0.990   .     S
H793   O850    0.990   .     S
H794   O851    0.992   .     S
H795   O853    0.992   .     S
H796   O854    0.992   .     S
O797   Zn868   1.935   .     S
O797   Zn865   1.935   .     S
O797   Zn876   1.935   .     S
O798   Zn867   1.946   .     S
O798   C253    1.270   1_565 S
O799   Zn870   1.946   .     S
O800   Zn869   1.946   .     S
O801   Zn879   1.946   .     S
O802   Zn878   1.946   .     S
O803   Zn873   1.946   .     S
O804   Zn865   1.946   .     S
O805   Zn875   1.946   .     S
O806   Zn874   1.946   .     S
O807   Zn877   1.946   .     S
O808   Zn873   1.935   .     S
O808   Zn877   1.935   .     S
O808   Zn871   1.935   .     S
O809   Zn876   1.946   .     S
O810   Zn868   1.916   .     S
O811   Zn867   1.916   .     S
O812   Zn870   1.917   .     S
O813   Zn869   1.917   .     S
O814   Zn872   1.916   .     S
O815   Zn871   1.916   .     S
O816   Zn866   1.916   .     S
O817   Zn880   1.916   .     S
O818   Zn867   1.916   .     S
O819   Zn878   1.935   .     S
O819   Zn866   1.935   .     S
O819   Zn874   1.935   .     S
O820   Zn868   1.916   .     S
O821   Zn880   1.916   .     S
O822   Zn866   1.916   .     S
O823   Zn871   1.917   .     S
O824   Zn872   1.917   .     S
O825   Zn869   1.916   .     S
O826   Zn870   1.916   .     S
O827   Zn655   1.916   1_655 S
O828   Zn874   1.916   .     S
O829   Zn437   1.917   1_565 S
O830   Zn879   1.935   .     S
O830   Zn875   1.935   .     S
O830   Zn869   1.935   .     S
O831   Zn876   1.917   .     S
O832   Zn879   1.916   .     S
O833   Zn658   1.916   1_655 S
O834   Zn873   1.916   .     S
O835   Zn425   1.916   1_565 S
O836   Zn654   1.916   1_655 S
O837   Zn875   1.916   .     S
O838   Zn865   1.916   .     S
O839   Zn433   1.916   1_565 S
O840   Zn878   1.917   .     S
O841   Zn872   1.946   .     S
O842   Zn659   1.917   1_655 S
O843   Zn436   1.916   1_565 S
O844   Zn877   1.916   .     S
O845   C549    1.379   1_655 S
O851   C336    1.379   1_565 S
O852   Zn871   1.946   .     S
O862   Zn866   1.946   .     S
O863   Zn880   1.946   .     S
O863   C495    1.270   1_655 S
O864   Zn868   1.946   .     S
Zn867  O368    1.935   1_565 S
Zn870  O599    1.935   1_655 S
Zn872  O357    1.935   1_565 S
Zn880  O610    1.935   1_655 S
