data_str_m1_o10_o18_pcu_sym.125
_audit_creation_date              2020-01-03
_audit_creation_method            'Materials Studio'
_symmetry_space_group_name_H-M    'P1'
_symmetry_Int_Tables_number       1
_symmetry_cell_setting            triclinic
loop_
_symmetry_equiv_pos_as_xyz
  x,y,z
_cell_length_a                    32.6828
_cell_length_b                    32.5303
_cell_length_c                    35.4764
_cell_angle_alpha                 97.9184
_cell_angle_beta                  72.9141
_cell_angle_gamma                 98.6773
loop_
_atom_site_label
_atom_site_type_symbol
_atom_site_fract_x
_atom_site_fract_y
_atom_site_fract_z
_atom_site_U_iso_or_equiv
_atom_site_adp_type
_atom_site_occupancy
C1     C     0.05254   0.15959   0.25927   0.00000  Uiso   1.00
C2     C     0.19673   0.12393   0.45803   0.00000  Uiso   1.00
C3     C     0.22111   0.10746   0.47709   0.00000  Uiso   1.00
C4     C     0.28127   0.17330   0.24081   0.00000  Uiso   1.00
C5     C     0.21426   0.11607   0.01845   0.00000  Uiso   1.00
C6     C     0.17749   0.13624   0.04057   0.00000  Uiso   1.00
C7     C     0.24256   0.10485   0.03832   0.00000  Uiso   1.00
C8     C     0.23345   0.11308   0.08013   0.00000  Uiso   1.00
C9     C     0.17293   0.14909   0.08096   0.00000  Uiso   1.00
C10    C     0.32768   0.17489   0.23541   0.00000  Uiso   1.00
C11    C     0.00771   0.15838   0.26210   0.00000  Uiso   1.00
C12    C     0.08987   0.20063   0.42152   0.00000  Uiso   1.00
C13    C     0.18131   0.32224   0.23787   0.00000  Uiso   1.00
C14    C     0.15192   0.01203   0.26198   0.00000  Uiso   1.00
C15    C     0.15597   0.05611   0.25893   0.00000  Uiso   1.00
C16    C     0.17699   0.27771   0.24126   0.00000  Uiso   1.00
C17    C     0.18801   0.14563   0.14386   0.00000  Uiso   1.00
C18    C     0.14520   0.18739   0.35641   0.00000  Uiso   1.00
C19    C     0.13090   0.18980   0.40018   0.00000  Uiso   1.00
C20    C     0.19848   0.13547   0.10086   0.00000  Uiso   1.00
C21    C     0.07391   0.19562   0.46184   0.00000  Uiso   1.00
C22    C     0.28167   0.08490   0.01601   0.00000  Uiso   1.00
C23    C     0.15648   0.17574   0.42019   0.00000  Uiso   1.00
C24    C     0.02431   0.19464   0.20011   0.00000  Uiso   1.00
C25    C     0.26041   0.09994   0.10295   0.00000  Uiso   1.00
C26    C     0.08102   0.13367   0.07853   0.00000  Uiso   1.00
C27    C     0.13925   0.16639   0.46002   0.00000  Uiso   1.00
C28    C     0.09788   0.17780   0.48132   0.00000  Uiso   1.00
C29    C     0.16223   0.14652   0.47932   0.00000  Uiso   1.00
C30    C     0.14799   0.14573   0.02097   0.00000  Uiso   1.00
C31    C     0.10428   0.15205   0.04069   0.00000  Uiso   1.00
C32    C     0.08029   0.16935   0.02103   0.00000  Uiso   1.00
F33    F     0.03885   0.17602   0.04017   0.00000  Uiso   1.00
F34    F     0.31294   0.14221   0.29467   0.00000  Uiso   1.00
F35    F     0.21537   0.00650   0.21009   0.00000  Uiso   1.00
F36    F     0.14608   0.17796   0.10079   0.00000  Uiso   1.00
F37    F     0.25134   0.08328   0.45421   0.00000  Uiso   1.00
F38    F     0.03411   0.20679   0.48124   0.00000  Uiso   1.00
F39    F     0.06441   0.21480   0.40320   0.00000  Uiso   1.00
F40    F     0.19890   0.17394   0.40103   0.00000  Uiso   1.00
H41    H     0.12435   0.33194   0.28414   0.00000  Uiso   1.00
H42    H     0.20357   0.11596   0.42642   0.00000  Uiso   1.00
H43    H     0.28535   0.05405   0.02204   0.00000  Uiso   1.00
H44    H     0.01128   0.20454   0.17845   0.00000  Uiso   1.00
H45    H     0.24688   0.09607   0.13425   0.00000  Uiso   1.00
H46    H     0.09340   0.10840   0.08720   0.00000  Uiso   1.00
O47    O     0.16667   0.16667   0.25000   0.00000  Uiso   1.00
O48    O     0.15693   0.12393   0.16625   0.00000  Uiso   1.00
O49    O     0.12687   0.20646   0.33749   0.00000  Uiso   1.00
O50    O     0.21088   0.17493   0.15877   0.00000  Uiso   1.00
O51    O     0.17198   0.16135   0.33749   0.00000  Uiso   1.00
O52    O     0.31081   0.10371   0.49214   0.00000  Uiso   1.00
O53    O     0.06332   0.20045   0.19465   0.00000  Uiso   1.00
O54    O     0.29810   0.09443   0.08776   0.00000  Uiso   1.00
O55    O     0.04815   0.14654   0.10052   0.00000  Uiso   1.00
O56    O     0.17849   0.08101   0.27820   0.00000  Uiso   1.00
O57    O     0.14581   0.26136   0.26767   0.00000  Uiso   1.00
O58    O     0.07452   0.13251   0.23607   0.00000  Uiso   1.00
O59    O     0.26785   0.19179   0.21805   0.00000  Uiso   1.00
O60    O     0.06990   0.18960   0.27820   0.00000  Uiso   1.00
O61    O     0.25440   0.15277   0.26767   0.00000  Uiso   1.00
O62    O     0.13800   0.06903   0.23607   0.00000  Uiso   1.00
O63    O     0.20437   0.25527   0.21805   0.00000  Uiso   1.00
Zn64   Zn    0.19244   0.14090   0.28277   0.00000  Uiso   1.00
Zn65   Zn    0.13459   0.12378   0.22257   0.00000  Uiso   1.00
Zn66   Zn    0.21166   0.19664   0.21188   0.00000  Uiso   1.00
Zn67   Zn    0.12798   0.20535   0.28277   0.00000  Uiso   1.00
C68    C     0.38587   0.15959   0.25927   0.00000  Uiso   1.00
C69    C     0.53006   0.12393   0.45803   0.00000  Uiso   1.00
C70    C     0.55444   0.10746   0.47709   0.00000  Uiso   1.00
C71    C     0.61460   0.17330   0.24081   0.00000  Uiso   1.00
C72    C     0.54759   0.11607   0.01845   0.00000  Uiso   1.00
C73    C     0.51082   0.13624   0.04057   0.00000  Uiso   1.00
C74    C     0.57590   0.10485   0.03832   0.00000  Uiso   1.00
C75    C     0.56678   0.11308   0.08013   0.00000  Uiso   1.00
C76    C     0.50627   0.14909   0.08096   0.00000  Uiso   1.00
C77    C     0.66102   0.17489   0.23541   0.00000  Uiso   1.00
C78    C     0.34105   0.15838   0.26210   0.00000  Uiso   1.00
C79    C     0.42321   0.20063   0.42152   0.00000  Uiso   1.00
C80    C     0.51465   0.32224   0.23787   0.00000  Uiso   1.00
C81    C     0.48526   0.01203   0.26198   0.00000  Uiso   1.00
C82    C     0.48930   0.05611   0.25893   0.00000  Uiso   1.00
C83    C     0.51032   0.27771   0.24126   0.00000  Uiso   1.00
C84    C     0.52135   0.14563   0.14386   0.00000  Uiso   1.00
C85    C     0.47854   0.18739   0.35641   0.00000  Uiso   1.00
C86    C     0.46424   0.18980   0.40018   0.00000  Uiso   1.00
C87    C     0.53181   0.13547   0.10086   0.00000  Uiso   1.00
C88    C     0.40724   0.19562   0.46184   0.00000  Uiso   1.00
C89    C     0.61501   0.08490   0.01601   0.00000  Uiso   1.00
C90    C     0.48982   0.17574   0.42019   0.00000  Uiso   1.00
C91    C     0.35764   0.19464   0.20011   0.00000  Uiso   1.00
C92    C     0.59374   0.09994   0.10295   0.00000  Uiso   1.00
C93    C     0.41436   0.13367   0.07853   0.00000  Uiso   1.00
C94    C     0.47259   0.16639   0.46002   0.00000  Uiso   1.00
C95    C     0.43121   0.17780   0.48132   0.00000  Uiso   1.00
C96    C     0.49556   0.14652   0.47932   0.00000  Uiso   1.00
C97    C     0.48132   0.14573   0.02097   0.00000  Uiso   1.00
C98    C     0.43761   0.15205   0.04069   0.00000  Uiso   1.00
C99    C     0.41362   0.16935   0.02103   0.00000  Uiso   1.00
F100   F     0.37219   0.17602   0.04017   0.00000  Uiso   1.00
F101   F     0.64627   0.14221   0.29467   0.00000  Uiso   1.00
F102   F     0.54870   0.00650   0.21009   0.00000  Uiso   1.00
F103   F     0.47942   0.17796   0.10079   0.00000  Uiso   1.00
F104   F     0.58467   0.08328   0.45421   0.00000  Uiso   1.00
F105   F     0.36744   0.20679   0.48124   0.00000  Uiso   1.00
F106   F     0.39774   0.21480   0.40320   0.00000  Uiso   1.00
F107   F     0.53223   0.17394   0.40103   0.00000  Uiso   1.00
H108   H     0.45769   0.33194   0.28414   0.00000  Uiso   1.00
H109   H     0.53690   0.11596   0.42642   0.00000  Uiso   1.00
H110   H     0.61869   0.05405   0.02204   0.00000  Uiso   1.00
H111   H     0.34461   0.20454   0.17845   0.00000  Uiso   1.00
H112   H     0.58022   0.09607   0.13425   0.00000  Uiso   1.00
H113   H     0.42674   0.10840   0.08720   0.00000  Uiso   1.00
O114   O     0.50000   0.16667   0.25000   0.00000  Uiso   1.00
O115   O     0.49027   0.12393   0.16625   0.00000  Uiso   1.00
O116   O     0.46020   0.20646   0.33749   0.00000  Uiso   1.00
O117   O     0.54421   0.17493   0.15877   0.00000  Uiso   1.00
O118   O     0.50532   0.16135   0.33749   0.00000  Uiso   1.00
O119   O     0.64414   0.10371   0.49214   0.00000  Uiso   1.00
O120   O     0.39665   0.20045   0.19465   0.00000  Uiso   1.00
O121   O     0.63143   0.09443   0.08776   0.00000  Uiso   1.00
O122   O     0.38149   0.14654   0.10052   0.00000  Uiso   1.00
O123   O     0.51182   0.08101   0.27820   0.00000  Uiso   1.00
O124   O     0.47914   0.26136   0.26767   0.00000  Uiso   1.00
O125   O     0.40785   0.13251   0.23607   0.00000  Uiso   1.00
O126   O     0.60119   0.19179   0.21805   0.00000  Uiso   1.00
O127   O     0.40323   0.18960   0.27820   0.00000  Uiso   1.00
O128   O     0.58773   0.15277   0.26767   0.00000  Uiso   1.00
O129   O     0.47133   0.06903   0.23607   0.00000  Uiso   1.00
O130   O     0.53771   0.25527   0.21805   0.00000  Uiso   1.00
Zn131  Zn    0.52577   0.14090   0.28277   0.00000  Uiso   1.00
Zn132  Zn    0.46792   0.12378   0.22257   0.00000  Uiso   1.00
Zn133  Zn    0.54500   0.19664   0.21188   0.00000  Uiso   1.00
Zn134  Zn    0.46131   0.20535   0.28277   0.00000  Uiso   1.00
C135   C     0.71921   0.15959   0.25927   0.00000  Uiso   1.00
C136   C     0.86339   0.12393   0.45803   0.00000  Uiso   1.00
C137   C     0.88778   0.10746   0.47709   0.00000  Uiso   1.00
C138   C     0.94793   0.17330   0.24081   0.00000  Uiso   1.00
C139   C     0.88092   0.11607   0.01845   0.00000  Uiso   1.00
C140   C     0.84415   0.13624   0.04057   0.00000  Uiso   1.00
C141   C     0.90923   0.10485   0.03832   0.00000  Uiso   1.00
C142   C     0.90012   0.11308   0.08013   0.00000  Uiso   1.00
C143   C     0.83960   0.14909   0.08096   0.00000  Uiso   1.00
C144   C     0.99435   0.17489   0.23541   0.00000  Uiso   1.00
C145   C     0.67438   0.15838   0.26210   0.00000  Uiso   1.00
C146   C     0.75654   0.20063   0.42152   0.00000  Uiso   1.00
C147   C     0.84798   0.32224   0.23787   0.00000  Uiso   1.00
C148   C     0.81859   0.01203   0.26198   0.00000  Uiso   1.00
C149   C     0.82263   0.05611   0.25893   0.00000  Uiso   1.00
C150   C     0.84366   0.27771   0.24126   0.00000  Uiso   1.00
C151   C     0.85468   0.14563   0.14386   0.00000  Uiso   1.00
C152   C     0.81187   0.18739   0.35641   0.00000  Uiso   1.00
C153   C     0.79757   0.18980   0.40018   0.00000  Uiso   1.00
C154   C     0.86515   0.13547   0.10086   0.00000  Uiso   1.00
C155   C     0.74058   0.19562   0.46184   0.00000  Uiso   1.00
C156   C     0.94834   0.08490   0.01601   0.00000  Uiso   1.00
C157   C     0.82315   0.17574   0.42019   0.00000  Uiso   1.00
C158   C     0.69098   0.19464   0.20011   0.00000  Uiso   1.00
C159   C     0.92707   0.09994   0.10295   0.00000  Uiso   1.00
C160   C     0.74769   0.13367   0.07853   0.00000  Uiso   1.00
C161   C     0.80592   0.16639   0.46002   0.00000  Uiso   1.00
C162   C     0.76454   0.17780   0.48132   0.00000  Uiso   1.00
C163   C     0.82890   0.14652   0.47932   0.00000  Uiso   1.00
C164   C     0.81466   0.14573   0.02097   0.00000  Uiso   1.00
C165   C     0.77094   0.15205   0.04069   0.00000  Uiso   1.00
C166   C     0.74695   0.16935   0.02103   0.00000  Uiso   1.00
F167   F     0.70552   0.17602   0.04017   0.00000  Uiso   1.00
F168   F     0.97961   0.14221   0.29467   0.00000  Uiso   1.00
F169   F     0.88203   0.00650   0.21009   0.00000  Uiso   1.00
F170   F     0.81275   0.17796   0.10079   0.00000  Uiso   1.00
F171   F     0.91800   0.08328   0.45421   0.00000  Uiso   1.00
F172   F     0.70078   0.20679   0.48124   0.00000  Uiso   1.00
F173   F     0.73107   0.21480   0.40320   0.00000  Uiso   1.00
F174   F     0.86556   0.17394   0.40103   0.00000  Uiso   1.00
H175   H     0.79102   0.33194   0.28414   0.00000  Uiso   1.00
H176   H     0.87023   0.11596   0.42642   0.00000  Uiso   1.00
H177   H     0.95202   0.05405   0.02204   0.00000  Uiso   1.00
H178   H     0.67794   0.20454   0.17845   0.00000  Uiso   1.00
H179   H     0.91355   0.09607   0.13425   0.00000  Uiso   1.00
H180   H     0.76007   0.10840   0.08720   0.00000  Uiso   1.00
O181   O     0.83333   0.16667   0.25000   0.00000  Uiso   1.00
O182   O     0.82360   0.12393   0.16625   0.00000  Uiso   1.00
O183   O     0.79354   0.20646   0.33749   0.00000  Uiso   1.00
O184   O     0.87755   0.17493   0.15877   0.00000  Uiso   1.00
O185   O     0.83865   0.16135   0.33749   0.00000  Uiso   1.00
O186   O     0.97747   0.10371   0.49214   0.00000  Uiso   1.00
O187   O     0.72998   0.20045   0.19465   0.00000  Uiso   1.00
O188   O     0.96476   0.09443   0.08776   0.00000  Uiso   1.00
O189   O     0.71482   0.14654   0.10052   0.00000  Uiso   1.00
O190   O     0.84515   0.08101   0.27820   0.00000  Uiso   1.00
O191   O     0.81247   0.26136   0.26767   0.00000  Uiso   1.00
O192   O     0.74119   0.13251   0.23607   0.00000  Uiso   1.00
O193   O     0.93452   0.19179   0.21805   0.00000  Uiso   1.00
O194   O     0.73656   0.18960   0.27820   0.00000  Uiso   1.00
O195   O     0.92106   0.15277   0.26767   0.00000  Uiso   1.00
O196   O     0.80467   0.06903   0.23607   0.00000  Uiso   1.00
O197   O     0.87104   0.25527   0.21805   0.00000  Uiso   1.00
Zn198  Zn    0.85910   0.14090   0.28277   0.00000  Uiso   1.00
Zn199  Zn    0.80125   0.12378   0.22257   0.00000  Uiso   1.00
Zn200  Zn    0.87833   0.19664   0.21188   0.00000  Uiso   1.00
Zn201  Zn    0.79465   0.20535   0.28277   0.00000  Uiso   1.00
C202   C     0.05254   0.49292   0.25927   0.00000  Uiso   1.00
C203   C     0.19673   0.45726   0.45803   0.00000  Uiso   1.00
C204   C     0.22111   0.44079   0.47709   0.00000  Uiso   1.00
C205   C     0.28127   0.50663   0.24081   0.00000  Uiso   1.00
C206   C     0.21426   0.44940   0.01845   0.00000  Uiso   1.00
C207   C     0.17749   0.46958   0.04057   0.00000  Uiso   1.00
C208   C     0.24256   0.43818   0.03832   0.00000  Uiso   1.00
C209   C     0.23345   0.44641   0.08013   0.00000  Uiso   1.00
C210   C     0.17293   0.48242   0.08096   0.00000  Uiso   1.00
C211   C     0.32768   0.50823   0.23541   0.00000  Uiso   1.00
C212   C     0.00771   0.49172   0.26210   0.00000  Uiso   1.00
C213   C     0.08987   0.53396   0.42152   0.00000  Uiso   1.00
C214   C     0.18131   0.65558   0.23787   0.00000  Uiso   1.00
C215   C     0.15192   0.34537   0.26198   0.00000  Uiso   1.00
C216   C     0.15597   0.38944   0.25893   0.00000  Uiso   1.00
C217   C     0.17699   0.61105   0.24126   0.00000  Uiso   1.00
C218   C     0.18801   0.47897   0.14386   0.00000  Uiso   1.00
C219   C     0.14520   0.52073   0.35641   0.00000  Uiso   1.00
C220   C     0.13090   0.52313   0.40018   0.00000  Uiso   1.00
C221   C     0.19848   0.46880   0.10086   0.00000  Uiso   1.00
C222   C     0.07391   0.52896   0.46184   0.00000  Uiso   1.00
C223   C     0.28167   0.41823   0.01601   0.00000  Uiso   1.00
C224   C     0.15648   0.50907   0.42019   0.00000  Uiso   1.00
C225   C     0.02431   0.52798   0.20011   0.00000  Uiso   1.00
C226   C     0.26041   0.43327   0.10295   0.00000  Uiso   1.00
C227   C     0.08102   0.46701   0.07853   0.00000  Uiso   1.00
C228   C     0.13925   0.49972   0.46002   0.00000  Uiso   1.00
C229   C     0.09788   0.51114   0.48132   0.00000  Uiso   1.00
C230   C     0.16223   0.47985   0.47932   0.00000  Uiso   1.00
C231   C     0.14799   0.47906   0.02097   0.00000  Uiso   1.00
C232   C     0.10428   0.48538   0.04069   0.00000  Uiso   1.00
C233   C     0.08029   0.50268   0.02103   0.00000  Uiso   1.00
F234   F     0.03885   0.50936   0.04017   0.00000  Uiso   1.00
F235   F     0.31294   0.47555   0.29467   0.00000  Uiso   1.00
F236   F     0.21537   0.33984   0.21009   0.00000  Uiso   1.00
F237   F     0.14608   0.51129   0.10079   0.00000  Uiso   1.00
F238   F     0.25134   0.41662   0.45421   0.00000  Uiso   1.00
F239   F     0.03411   0.54012   0.48124   0.00000  Uiso   1.00
F240   F     0.06441   0.54813   0.40320   0.00000  Uiso   1.00
F241   F     0.19890   0.50727   0.40103   0.00000  Uiso   1.00
H242   H     0.12435   0.66528   0.28414   0.00000  Uiso   1.00
H243   H     0.20357   0.44930   0.42642   0.00000  Uiso   1.00
H244   H     0.28535   0.38739   0.02204   0.00000  Uiso   1.00
H245   H     0.01128   0.53787   0.17845   0.00000  Uiso   1.00
H246   H     0.24688   0.42941   0.13425   0.00000  Uiso   1.00
H247   H     0.09340   0.44173   0.08720   0.00000  Uiso   1.00
O248   O     0.16667   0.50000   0.25000   0.00000  Uiso   1.00
O249   O     0.15693   0.45726   0.16625   0.00000  Uiso   1.00
O250   O     0.12687   0.53979   0.33749   0.00000  Uiso   1.00
O251   O     0.21088   0.50826   0.15877   0.00000  Uiso   1.00
O252   O     0.17198   0.49468   0.33749   0.00000  Uiso   1.00
O253   O     0.31081   0.43704   0.49214   0.00000  Uiso   1.00
O254   O     0.06332   0.53378   0.19465   0.00000  Uiso   1.00
O255   O     0.29810   0.42776   0.08776   0.00000  Uiso   1.00
O256   O     0.04815   0.47988   0.10052   0.00000  Uiso   1.00
O257   O     0.17849   0.41434   0.27820   0.00000  Uiso   1.00
O258   O     0.14581   0.59469   0.26767   0.00000  Uiso   1.00
O259   O     0.07452   0.46584   0.23607   0.00000  Uiso   1.00
O260   O     0.26785   0.52512   0.21805   0.00000  Uiso   1.00
O261   O     0.06990   0.52293   0.27820   0.00000  Uiso   1.00
O262   O     0.25440   0.48610   0.26767   0.00000  Uiso   1.00
O263   O     0.13800   0.40236   0.23607   0.00000  Uiso   1.00
O264   O     0.20437   0.58860   0.21805   0.00000  Uiso   1.00
Zn265  Zn    0.19244   0.47423   0.28277   0.00000  Uiso   1.00
Zn266  Zn    0.13459   0.45711   0.22257   0.00000  Uiso   1.00
Zn267  Zn    0.21166   0.52997   0.21188   0.00000  Uiso   1.00
Zn268  Zn    0.12798   0.53868   0.28277   0.00000  Uiso   1.00
C269   C     0.38587   0.49292   0.25927   0.00000  Uiso   1.00
C270   C     0.53006   0.45726   0.45803   0.00000  Uiso   1.00
C271   C     0.55444   0.44079   0.47709   0.00000  Uiso   1.00
C272   C     0.61460   0.50663   0.24081   0.00000  Uiso   1.00
C273   C     0.54759   0.44940   0.01845   0.00000  Uiso   1.00
C274   C     0.51082   0.46958   0.04057   0.00000  Uiso   1.00
C275   C     0.57590   0.43818   0.03832   0.00000  Uiso   1.00
C276   C     0.56678   0.44641   0.08013   0.00000  Uiso   1.00
C277   C     0.50627   0.48242   0.08096   0.00000  Uiso   1.00
C278   C     0.66102   0.50823   0.23541   0.00000  Uiso   1.00
C279   C     0.34105   0.49172   0.26210   0.00000  Uiso   1.00
C280   C     0.42321   0.53396   0.42152   0.00000  Uiso   1.00
C281   C     0.51465   0.65558   0.23787   0.00000  Uiso   1.00
C282   C     0.48526   0.34537   0.26198   0.00000  Uiso   1.00
C283   C     0.48930   0.38944   0.25893   0.00000  Uiso   1.00
C284   C     0.51032   0.61105   0.24126   0.00000  Uiso   1.00
C285   C     0.52135   0.47897   0.14386   0.00000  Uiso   1.00
C286   C     0.47854   0.52073   0.35641   0.00000  Uiso   1.00
C287   C     0.46424   0.52313   0.40018   0.00000  Uiso   1.00
C288   C     0.53181   0.46880   0.10086   0.00000  Uiso   1.00
C289   C     0.40724   0.52896   0.46184   0.00000  Uiso   1.00
C290   C     0.61501   0.41823   0.01601   0.00000  Uiso   1.00
C291   C     0.48982   0.50907   0.42019   0.00000  Uiso   1.00
C292   C     0.35764   0.52798   0.20011   0.00000  Uiso   1.00
C293   C     0.59374   0.43327   0.10295   0.00000  Uiso   1.00
C294   C     0.41436   0.46701   0.07853   0.00000  Uiso   1.00
C295   C     0.47259   0.49972   0.46002   0.00000  Uiso   1.00
C296   C     0.43121   0.51114   0.48132   0.00000  Uiso   1.00
C297   C     0.49556   0.47985   0.47932   0.00000  Uiso   1.00
C298   C     0.48132   0.47906   0.02097   0.00000  Uiso   1.00
C299   C     0.43761   0.48538   0.04069   0.00000  Uiso   1.00
C300   C     0.41362   0.50268   0.02103   0.00000  Uiso   1.00
F301   F     0.37219   0.50936   0.04017   0.00000  Uiso   1.00
F302   F     0.64627   0.47555   0.29467   0.00000  Uiso   1.00
F303   F     0.54870   0.33984   0.21009   0.00000  Uiso   1.00
F304   F     0.47942   0.51129   0.10079   0.00000  Uiso   1.00
F305   F     0.58467   0.41662   0.45421   0.00000  Uiso   1.00
F306   F     0.36744   0.54012   0.48124   0.00000  Uiso   1.00
F307   F     0.39774   0.54813   0.40320   0.00000  Uiso   1.00
F308   F     0.53223   0.50727   0.40103   0.00000  Uiso   1.00
H309   H     0.45769   0.66528   0.28414   0.00000  Uiso   1.00
H310   H     0.53690   0.44930   0.42642   0.00000  Uiso   1.00
H311   H     0.61869   0.38739   0.02204   0.00000  Uiso   1.00
H312   H     0.34461   0.53787   0.17845   0.00000  Uiso   1.00
H313   H     0.58022   0.42941   0.13425   0.00000  Uiso   1.00
H314   H     0.42674   0.44173   0.08720   0.00000  Uiso   1.00
O315   O     0.50000   0.50000   0.25000   0.00000  Uiso   1.00
O316   O     0.49027   0.45726   0.16625   0.00000  Uiso   1.00
O317   O     0.46020   0.53979   0.33749   0.00000  Uiso   1.00
O318   O     0.54421   0.50826   0.15877   0.00000  Uiso   1.00
O319   O     0.50532   0.49468   0.33749   0.00000  Uiso   1.00
O320   O     0.64414   0.43704   0.49214   0.00000  Uiso   1.00
O321   O     0.39665   0.53378   0.19465   0.00000  Uiso   1.00
O322   O     0.63143   0.42776   0.08776   0.00000  Uiso   1.00
O323   O     0.38149   0.47988   0.10052   0.00000  Uiso   1.00
O324   O     0.51182   0.41434   0.27820   0.00000  Uiso   1.00
O325   O     0.47914   0.59469   0.26767   0.00000  Uiso   1.00
O326   O     0.40785   0.46584   0.23607   0.00000  Uiso   1.00
O327   O     0.60119   0.52512   0.21805   0.00000  Uiso   1.00
O328   O     0.40323   0.52293   0.27820   0.00000  Uiso   1.00
O329   O     0.58773   0.48610   0.26767   0.00000  Uiso   1.00
O330   O     0.47133   0.40236   0.23607   0.00000  Uiso   1.00
O331   O     0.53771   0.58860   0.21805   0.00000  Uiso   1.00
Zn332  Zn    0.52577   0.47423   0.28277   0.00000  Uiso   1.00
Zn333  Zn    0.46792   0.45711   0.22257   0.00000  Uiso   1.00
Zn334  Zn    0.54500   0.52997   0.21188   0.00000  Uiso   1.00
Zn335  Zn    0.46131   0.53868   0.28277   0.00000  Uiso   1.00
C336   C     0.71921   0.49292   0.25927   0.00000  Uiso   1.00
C337   C     0.86339   0.45726   0.45803   0.00000  Uiso   1.00
C338   C     0.88778   0.44079   0.47709   0.00000  Uiso   1.00
C339   C     0.94793   0.50663   0.24081   0.00000  Uiso   1.00
C340   C     0.88092   0.44940   0.01845   0.00000  Uiso   1.00
C341   C     0.84415   0.46958   0.04057   0.00000  Uiso   1.00
C342   C     0.90923   0.43818   0.03832   0.00000  Uiso   1.00
C343   C     0.90012   0.44641   0.08013   0.00000  Uiso   1.00
C344   C     0.83960   0.48242   0.08096   0.00000  Uiso   1.00
C345   C     0.99435   0.50823   0.23541   0.00000  Uiso   1.00
C346   C     0.67438   0.49172   0.26210   0.00000  Uiso   1.00
C347   C     0.75654   0.53396   0.42152   0.00000  Uiso   1.00
C348   C     0.84798   0.65558   0.23787   0.00000  Uiso   1.00
C349   C     0.81859   0.34537   0.26198   0.00000  Uiso   1.00
C350   C     0.82263   0.38944   0.25893   0.00000  Uiso   1.00
C351   C     0.84366   0.61105   0.24126   0.00000  Uiso   1.00
C352   C     0.85468   0.47897   0.14386   0.00000  Uiso   1.00
C353   C     0.81187   0.52073   0.35641   0.00000  Uiso   1.00
C354   C     0.79757   0.52313   0.40018   0.00000  Uiso   1.00
C355   C     0.86515   0.46880   0.10086   0.00000  Uiso   1.00
C356   C     0.74058   0.52896   0.46184   0.00000  Uiso   1.00
C357   C     0.94834   0.41823   0.01601   0.00000  Uiso   1.00
C358   C     0.82315   0.50907   0.42019   0.00000  Uiso   1.00
C359   C     0.69098   0.52798   0.20011   0.00000  Uiso   1.00
C360   C     0.92707   0.43327   0.10295   0.00000  Uiso   1.00
C361   C     0.74769   0.46701   0.07853   0.00000  Uiso   1.00
C362   C     0.80592   0.49972   0.46002   0.00000  Uiso   1.00
C363   C     0.76454   0.51114   0.48132   0.00000  Uiso   1.00
C364   C     0.82890   0.47985   0.47932   0.00000  Uiso   1.00
C365   C     0.81466   0.47906   0.02097   0.00000  Uiso   1.00
C366   C     0.77094   0.48538   0.04069   0.00000  Uiso   1.00
C367   C     0.74695   0.50268   0.02103   0.00000  Uiso   1.00
F368   F     0.70552   0.50936   0.04017   0.00000  Uiso   1.00
F369   F     0.97961   0.47555   0.29467   0.00000  Uiso   1.00
F370   F     0.88203   0.33984   0.21009   0.00000  Uiso   1.00
F371   F     0.81275   0.51129   0.10079   0.00000  Uiso   1.00
F372   F     0.91800   0.41662   0.45421   0.00000  Uiso   1.00
F373   F     0.70078   0.54012   0.48124   0.00000  Uiso   1.00
F374   F     0.73107   0.54813   0.40320   0.00000  Uiso   1.00
F375   F     0.86556   0.50727   0.40103   0.00000  Uiso   1.00
H376   H     0.79102   0.66528   0.28414   0.00000  Uiso   1.00
H377   H     0.87023   0.44930   0.42642   0.00000  Uiso   1.00
H378   H     0.95202   0.38739   0.02204   0.00000  Uiso   1.00
H379   H     0.67794   0.53787   0.17845   0.00000  Uiso   1.00
H380   H     0.91355   0.42941   0.13425   0.00000  Uiso   1.00
H381   H     0.76007   0.44173   0.08720   0.00000  Uiso   1.00
O382   O     0.83333   0.50000   0.25000   0.00000  Uiso   1.00
O383   O     0.82360   0.45726   0.16625   0.00000  Uiso   1.00
O384   O     0.79354   0.53979   0.33749   0.00000  Uiso   1.00
O385   O     0.87755   0.50826   0.15877   0.00000  Uiso   1.00
O386   O     0.83865   0.49468   0.33749   0.00000  Uiso   1.00
O387   O     0.97747   0.43704   0.49214   0.00000  Uiso   1.00
O388   O     0.72998   0.53378   0.19465   0.00000  Uiso   1.00
O389   O     0.96476   0.42776   0.08776   0.00000  Uiso   1.00
O390   O     0.71482   0.47988   0.10052   0.00000  Uiso   1.00
O391   O     0.84515   0.41434   0.27820   0.00000  Uiso   1.00
O392   O     0.81247   0.59469   0.26767   0.00000  Uiso   1.00
O393   O     0.74119   0.46584   0.23607   0.00000  Uiso   1.00
O394   O     0.93452   0.52512   0.21805   0.00000  Uiso   1.00
O395   O     0.73656   0.52293   0.27820   0.00000  Uiso   1.00
O396   O     0.92106   0.48610   0.26767   0.00000  Uiso   1.00
O397   O     0.80467   0.40236   0.23607   0.00000  Uiso   1.00
O398   O     0.87104   0.58860   0.21805   0.00000  Uiso   1.00
Zn399  Zn    0.85910   0.47423   0.28277   0.00000  Uiso   1.00
Zn400  Zn    0.80125   0.45711   0.22257   0.00000  Uiso   1.00
Zn401  Zn    0.87833   0.52997   0.21188   0.00000  Uiso   1.00
Zn402  Zn    0.79465   0.53868   0.28277   0.00000  Uiso   1.00
C403   C     0.05254   0.82625   0.25927   0.00000  Uiso   1.00
C404   C     0.19673   0.79060   0.45803   0.00000  Uiso   1.00
C405   C     0.22111   0.77413   0.47709   0.00000  Uiso   1.00
C406   C     0.28127   0.83997   0.24081   0.00000  Uiso   1.00
C407   C     0.21426   0.78273   0.01845   0.00000  Uiso   1.00
C408   C     0.17749   0.80291   0.04057   0.00000  Uiso   1.00
C409   C     0.24256   0.77152   0.03832   0.00000  Uiso   1.00
C410   C     0.23345   0.77975   0.08013   0.00000  Uiso   1.00
C411   C     0.17293   0.81575   0.08096   0.00000  Uiso   1.00
C412   C     0.32768   0.84156   0.23541   0.00000  Uiso   1.00
C413   C     0.00771   0.82505   0.26210   0.00000  Uiso   1.00
C414   C     0.08987   0.86729   0.42152   0.00000  Uiso   1.00
C415   C     0.18131   0.98891   0.23787   0.00000  Uiso   1.00
C416   C     0.15192   0.67870   0.26198   0.00000  Uiso   1.00
C417   C     0.15597   0.72277   0.25893   0.00000  Uiso   1.00
C418   C     0.17699   0.94438   0.24126   0.00000  Uiso   1.00
C419   C     0.18801   0.81230   0.14386   0.00000  Uiso   1.00
C420   C     0.14520   0.85406   0.35641   0.00000  Uiso   1.00
C421   C     0.13090   0.85646   0.40018   0.00000  Uiso   1.00
C422   C     0.19848   0.80213   0.10086   0.00000  Uiso   1.00
C423   C     0.07391   0.86229   0.46184   0.00000  Uiso   1.00
C424   C     0.28167   0.75157   0.01601   0.00000  Uiso   1.00
C425   C     0.15648   0.84241   0.42019   0.00000  Uiso   1.00
C426   C     0.02431   0.86131   0.20011   0.00000  Uiso   1.00
C427   C     0.26041   0.76661   0.10295   0.00000  Uiso   1.00
C428   C     0.08102   0.80034   0.07853   0.00000  Uiso   1.00
C429   C     0.13925   0.83306   0.46002   0.00000  Uiso   1.00
C430   C     0.09788   0.84447   0.48132   0.00000  Uiso   1.00
C431   C     0.16223   0.81319   0.47932   0.00000  Uiso   1.00
C432   C     0.14799   0.81240   0.02097   0.00000  Uiso   1.00
C433   C     0.10428   0.81871   0.04069   0.00000  Uiso   1.00
C434   C     0.08029   0.83601   0.02103   0.00000  Uiso   1.00
F435   F     0.03885   0.84269   0.04017   0.00000  Uiso   1.00
F436   F     0.31294   0.80888   0.29467   0.00000  Uiso   1.00
F437   F     0.21537   0.67317   0.21009   0.00000  Uiso   1.00
F438   F     0.14608   0.84462   0.10079   0.00000  Uiso   1.00
F439   F     0.25134   0.74995   0.45421   0.00000  Uiso   1.00
F440   F     0.03411   0.87346   0.48124   0.00000  Uiso   1.00
F441   F     0.06441   0.88147   0.40320   0.00000  Uiso   1.00
F442   F     0.19890   0.84061   0.40103   0.00000  Uiso   1.00
H443   H     0.12435   0.99861   0.28414   0.00000  Uiso   1.00
H444   H     0.20357   0.78263   0.42642   0.00000  Uiso   1.00
H445   H     0.28535   0.72072   0.02204   0.00000  Uiso   1.00
H446   H     0.01128   0.87120   0.17845   0.00000  Uiso   1.00
H447   H     0.24688   0.76274   0.13425   0.00000  Uiso   1.00
H448   H     0.09340   0.77507   0.08720   0.00000  Uiso   1.00
O449   O     0.16667   0.83333   0.25000   0.00000  Uiso   1.00
O450   O     0.15693   0.79060   0.16625   0.00000  Uiso   1.00
O451   O     0.12687   0.87313   0.33749   0.00000  Uiso   1.00
O452   O     0.21088   0.84159   0.15877   0.00000  Uiso   1.00
O453   O     0.17198   0.82802   0.33749   0.00000  Uiso   1.00
O454   O     0.31081   0.77038   0.49214   0.00000  Uiso   1.00
O455   O     0.06332   0.86711   0.19465   0.00000  Uiso   1.00
O456   O     0.29810   0.76110   0.08776   0.00000  Uiso   1.00
O457   O     0.04815   0.81321   0.10052   0.00000  Uiso   1.00
O458   O     0.17849   0.74768   0.27820   0.00000  Uiso   1.00
O459   O     0.14581   0.92803   0.26767   0.00000  Uiso   1.00
O460   O     0.07452   0.79917   0.23607   0.00000  Uiso   1.00
O461   O     0.26785   0.85845   0.21805   0.00000  Uiso   1.00
O462   O     0.06990   0.85627   0.27820   0.00000  Uiso   1.00
O463   O     0.25440   0.81944   0.26767   0.00000  Uiso   1.00
O464   O     0.13800   0.73570   0.23607   0.00000  Uiso   1.00
O465   O     0.20437   0.92193   0.21805   0.00000  Uiso   1.00
Zn466  Zn    0.19244   0.80756   0.28277   0.00000  Uiso   1.00
Zn467  Zn    0.13459   0.79044   0.22257   0.00000  Uiso   1.00
Zn468  Zn    0.21166   0.86331   0.21188   0.00000  Uiso   1.00
Zn469  Zn    0.12798   0.87202   0.28277   0.00000  Uiso   1.00
C470   C     0.38587   0.82625   0.25927   0.00000  Uiso   1.00
C471   C     0.53006   0.79060   0.45803   0.00000  Uiso   1.00
C472   C     0.55444   0.77413   0.47709   0.00000  Uiso   1.00
C473   C     0.61460   0.83997   0.24081   0.00000  Uiso   1.00
C474   C     0.54759   0.78273   0.01845   0.00000  Uiso   1.00
C475   C     0.51082   0.80291   0.04057   0.00000  Uiso   1.00
C476   C     0.57590   0.77152   0.03832   0.00000  Uiso   1.00
C477   C     0.56678   0.77975   0.08013   0.00000  Uiso   1.00
C478   C     0.50627   0.81575   0.08096   0.00000  Uiso   1.00
C479   C     0.66102   0.84156   0.23541   0.00000  Uiso   1.00
C480   C     0.34105   0.82505   0.26210   0.00000  Uiso   1.00
C481   C     0.42321   0.86729   0.42152   0.00000  Uiso   1.00
C482   C     0.51465   0.98891   0.23787   0.00000  Uiso   1.00
C483   C     0.48526   0.67870   0.26198   0.00000  Uiso   1.00
C484   C     0.48930   0.72277   0.25893   0.00000  Uiso   1.00
C485   C     0.51032   0.94438   0.24126   0.00000  Uiso   1.00
C486   C     0.52135   0.81230   0.14386   0.00000  Uiso   1.00
C487   C     0.47854   0.85406   0.35641   0.00000  Uiso   1.00
C488   C     0.46424   0.85646   0.40018   0.00000  Uiso   1.00
C489   C     0.53181   0.80213   0.10086   0.00000  Uiso   1.00
C490   C     0.40724   0.86229   0.46184   0.00000  Uiso   1.00
C491   C     0.61501   0.75157   0.01601   0.00000  Uiso   1.00
C492   C     0.48982   0.84241   0.42019   0.00000  Uiso   1.00
C493   C     0.35764   0.86131   0.20011   0.00000  Uiso   1.00
C494   C     0.59374   0.76661   0.10295   0.00000  Uiso   1.00
C495   C     0.41436   0.80034   0.07853   0.00000  Uiso   1.00
C496   C     0.47259   0.83306   0.46002   0.00000  Uiso   1.00
C497   C     0.43121   0.84447   0.48132   0.00000  Uiso   1.00
C498   C     0.49556   0.81319   0.47932   0.00000  Uiso   1.00
C499   C     0.48132   0.81240   0.02097   0.00000  Uiso   1.00
C500   C     0.43761   0.81871   0.04069   0.00000  Uiso   1.00
C501   C     0.41362   0.83601   0.02103   0.00000  Uiso   1.00
F502   F     0.37219   0.84269   0.04017   0.00000  Uiso   1.00
F503   F     0.64627   0.80888   0.29467   0.00000  Uiso   1.00
F504   F     0.54870   0.67317   0.21009   0.00000  Uiso   1.00
F505   F     0.47942   0.84462   0.10079   0.00000  Uiso   1.00
F506   F     0.58467   0.74995   0.45421   0.00000  Uiso   1.00
F507   F     0.36744   0.87346   0.48124   0.00000  Uiso   1.00
F508   F     0.39774   0.88147   0.40320   0.00000  Uiso   1.00
F509   F     0.53223   0.84061   0.40103   0.00000  Uiso   1.00
H510   H     0.45769   0.99861   0.28414   0.00000  Uiso   1.00
H511   H     0.53690   0.78263   0.42642   0.00000  Uiso   1.00
H512   H     0.61869   0.72072   0.02204   0.00000  Uiso   1.00
H513   H     0.34461   0.87120   0.17845   0.00000  Uiso   1.00
H514   H     0.58022   0.76274   0.13425   0.00000  Uiso   1.00
H515   H     0.42674   0.77507   0.08720   0.00000  Uiso   1.00
O516   O     0.50000   0.83333   0.25000   0.00000  Uiso   1.00
O517   O     0.49027   0.79060   0.16625   0.00000  Uiso   1.00
O518   O     0.46020   0.87313   0.33749   0.00000  Uiso   1.00
O519   O     0.54421   0.84159   0.15877   0.00000  Uiso   1.00
O520   O     0.50532   0.82802   0.33749   0.00000  Uiso   1.00
O521   O     0.64414   0.77038   0.49214   0.00000  Uiso   1.00
O522   O     0.39665   0.86711   0.19465   0.00000  Uiso   1.00
O523   O     0.63143   0.76110   0.08776   0.00000  Uiso   1.00
O524   O     0.38149   0.81321   0.10052   0.00000  Uiso   1.00
O525   O     0.51182   0.74768   0.27820   0.00000  Uiso   1.00
O526   O     0.47914   0.92803   0.26767   0.00000  Uiso   1.00
O527   O     0.40785   0.79917   0.23607   0.00000  Uiso   1.00
O528   O     0.60119   0.85845   0.21805   0.00000  Uiso   1.00
O529   O     0.40323   0.85627   0.27820   0.00000  Uiso   1.00
O530   O     0.58773   0.81944   0.26767   0.00000  Uiso   1.00
O531   O     0.47133   0.73570   0.23607   0.00000  Uiso   1.00
O532   O     0.53771   0.92193   0.21805   0.00000  Uiso   1.00
Zn533  Zn    0.52577   0.80756   0.28277   0.00000  Uiso   1.00
Zn534  Zn    0.46792   0.79044   0.22257   0.00000  Uiso   1.00
Zn535  Zn    0.54500   0.86331   0.21188   0.00000  Uiso   1.00
Zn536  Zn    0.46131   0.87202   0.28277   0.00000  Uiso   1.00
C537   C     0.71921   0.82625   0.25927   0.00000  Uiso   1.00
C538   C     0.86339   0.79060   0.45803   0.00000  Uiso   1.00
C539   C     0.88778   0.77413   0.47709   0.00000  Uiso   1.00
C540   C     0.94793   0.83997   0.24081   0.00000  Uiso   1.00
C541   C     0.88092   0.78273   0.01845   0.00000  Uiso   1.00
C542   C     0.84415   0.80291   0.04057   0.00000  Uiso   1.00
C543   C     0.90923   0.77152   0.03832   0.00000  Uiso   1.00
C544   C     0.90012   0.77975   0.08013   0.00000  Uiso   1.00
C545   C     0.83960   0.81575   0.08096   0.00000  Uiso   1.00
C546   C     0.99435   0.84156   0.23541   0.00000  Uiso   1.00
C547   C     0.67438   0.82505   0.26210   0.00000  Uiso   1.00
C548   C     0.75654   0.86729   0.42152   0.00000  Uiso   1.00
C549   C     0.84798   0.98891   0.23787   0.00000  Uiso   1.00
C550   C     0.81859   0.67870   0.26198   0.00000  Uiso   1.00
C551   C     0.82263   0.72277   0.25893   0.00000  Uiso   1.00
C552   C     0.84366   0.94438   0.24126   0.00000  Uiso   1.00
C553   C     0.85468   0.81230   0.14386   0.00000  Uiso   1.00
C554   C     0.81187   0.85406   0.35641   0.00000  Uiso   1.00
C555   C     0.79757   0.85646   0.40018   0.00000  Uiso   1.00
C556   C     0.86515   0.80213   0.10086   0.00000  Uiso   1.00
C557   C     0.74058   0.86229   0.46184   0.00000  Uiso   1.00
C558   C     0.94834   0.75157   0.01601   0.00000  Uiso   1.00
C559   C     0.82315   0.84241   0.42019   0.00000  Uiso   1.00
C560   C     0.69098   0.86131   0.20011   0.00000  Uiso   1.00
C561   C     0.92707   0.76661   0.10295   0.00000  Uiso   1.00
C562   C     0.74769   0.80034   0.07853   0.00000  Uiso   1.00
C563   C     0.80592   0.83306   0.46002   0.00000  Uiso   1.00
C564   C     0.76454   0.84447   0.48132   0.00000  Uiso   1.00
C565   C     0.82890   0.81319   0.47932   0.00000  Uiso   1.00
C566   C     0.81466   0.81240   0.02097   0.00000  Uiso   1.00
C567   C     0.77094   0.81871   0.04069   0.00000  Uiso   1.00
C568   C     0.74695   0.83601   0.02103   0.00000  Uiso   1.00
F569   F     0.70552   0.84269   0.04017   0.00000  Uiso   1.00
F570   F     0.97961   0.80888   0.29467   0.00000  Uiso   1.00
F571   F     0.88203   0.67317   0.21009   0.00000  Uiso   1.00
F572   F     0.81275   0.84462   0.10079   0.00000  Uiso   1.00
F573   F     0.91800   0.74995   0.45421   0.00000  Uiso   1.00
F574   F     0.70078   0.87346   0.48124   0.00000  Uiso   1.00
F575   F     0.73107   0.88147   0.40320   0.00000  Uiso   1.00
F576   F     0.86556   0.84061   0.40103   0.00000  Uiso   1.00
H577   H     0.79102   0.99861   0.28414   0.00000  Uiso   1.00
H578   H     0.87023   0.78263   0.42642   0.00000  Uiso   1.00
H579   H     0.95202   0.72072   0.02204   0.00000  Uiso   1.00
H580   H     0.67794   0.87120   0.17845   0.00000  Uiso   1.00
H581   H     0.91355   0.76274   0.13425   0.00000  Uiso   1.00
H582   H     0.76007   0.77507   0.08720   0.00000  Uiso   1.00
O583   O     0.83333   0.83333   0.25000   0.00000  Uiso   1.00
O584   O     0.82360   0.79060   0.16625   0.00000  Uiso   1.00
O585   O     0.79354   0.87313   0.33749   0.00000  Uiso   1.00
O586   O     0.87755   0.84159   0.15877   0.00000  Uiso   1.00
O587   O     0.83865   0.82802   0.33749   0.00000  Uiso   1.00
O588   O     0.97747   0.77038   0.49214   0.00000  Uiso   1.00
O589   O     0.72998   0.86711   0.19465   0.00000  Uiso   1.00
O590   O     0.96476   0.76110   0.08776   0.00000  Uiso   1.00
O591   O     0.71482   0.81321   0.10052   0.00000  Uiso   1.00
O592   O     0.84515   0.74768   0.27820   0.00000  Uiso   1.00
O593   O     0.81247   0.92803   0.26767   0.00000  Uiso   1.00
O594   O     0.74119   0.79917   0.23607   0.00000  Uiso   1.00
O595   O     0.93452   0.85845   0.21805   0.00000  Uiso   1.00
O596   O     0.73656   0.85627   0.27820   0.00000  Uiso   1.00
O597   O     0.92106   0.81944   0.26767   0.00000  Uiso   1.00
O598   O     0.80467   0.73570   0.23607   0.00000  Uiso   1.00
O599   O     0.87104   0.92193   0.21805   0.00000  Uiso   1.00
Zn600  Zn    0.85910   0.80756   0.28277   0.00000  Uiso   1.00
Zn601  Zn    0.80125   0.79044   0.22257   0.00000  Uiso   1.00
Zn602  Zn    0.87833   0.86331   0.21188   0.00000  Uiso   1.00
Zn603  Zn    0.79465   0.87202   0.28277   0.00000  Uiso   1.00
C604   C     0.05254   0.15959   0.75927   0.00000  Uiso   1.00
C605   C     0.19673   0.12393   0.95803   0.00000  Uiso   1.00
C606   C     0.22111   0.10746   0.97709   0.00000  Uiso   1.00
C607   C     0.28127   0.17330   0.74081   0.00000  Uiso   1.00
C608   C     0.21426   0.11607   0.51845   0.00000  Uiso   1.00
C609   C     0.17749   0.13624   0.54057   0.00000  Uiso   1.00
C610   C     0.24256   0.10485   0.53832   0.00000  Uiso   1.00
C611   C     0.23345   0.11308   0.58013   0.00000  Uiso   1.00
C612   C     0.17293   0.14909   0.58096   0.00000  Uiso   1.00
C613   C     0.32768   0.17489   0.73541   0.00000  Uiso   1.00
C614   C     0.00771   0.15838   0.76210   0.00000  Uiso   1.00
C615   C     0.08987   0.20063   0.92152   0.00000  Uiso   1.00
C616   C     0.18131   0.32224   0.73787   0.00000  Uiso   1.00
C617   C     0.15192   0.01203   0.76198   0.00000  Uiso   1.00
C618   C     0.15597   0.05611   0.75893   0.00000  Uiso   1.00
C619   C     0.17699   0.27771   0.74126   0.00000  Uiso   1.00
C620   C     0.18801   0.14563   0.64386   0.00000  Uiso   1.00
C621   C     0.14520   0.18739   0.85641   0.00000  Uiso   1.00
C622   C     0.13090   0.18980   0.90018   0.00000  Uiso   1.00
C623   C     0.19848   0.13547   0.60086   0.00000  Uiso   1.00
C624   C     0.07391   0.19562   0.96184   0.00000  Uiso   1.00
C625   C     0.28167   0.08490   0.51601   0.00000  Uiso   1.00
C626   C     0.15648   0.17574   0.92019   0.00000  Uiso   1.00
C627   C     0.02431   0.19464   0.70011   0.00000  Uiso   1.00
C628   C     0.26041   0.09994   0.60295   0.00000  Uiso   1.00
C629   C     0.08102   0.13367   0.57853   0.00000  Uiso   1.00
C630   C     0.13925   0.16639   0.96002   0.00000  Uiso   1.00
C631   C     0.09788   0.17780   0.98132   0.00000  Uiso   1.00
C632   C     0.16223   0.14652   0.97932   0.00000  Uiso   1.00
C633   C     0.14799   0.14573   0.52097   0.00000  Uiso   1.00
C634   C     0.10428   0.15205   0.54069   0.00000  Uiso   1.00
C635   C     0.08029   0.16935   0.52103   0.00000  Uiso   1.00
F636   F     0.03885   0.17602   0.54017   0.00000  Uiso   1.00
F637   F     0.31294   0.14221   0.79467   0.00000  Uiso   1.00
F638   F     0.21537   0.00650   0.71009   0.00000  Uiso   1.00
F639   F     0.14608   0.17796   0.60079   0.00000  Uiso   1.00
F640   F     0.25134   0.08328   0.95421   0.00000  Uiso   1.00
F641   F     0.03411   0.20679   0.98124   0.00000  Uiso   1.00
F642   F     0.06441   0.21480   0.90320   0.00000  Uiso   1.00
F643   F     0.19890   0.17394   0.90103   0.00000  Uiso   1.00
H644   H     0.12435   0.33194   0.78414   0.00000  Uiso   1.00
H645   H     0.20357   0.11596   0.92642   0.00000  Uiso   1.00
H646   H     0.28535   0.05405   0.52204   0.00000  Uiso   1.00
H647   H     0.01128   0.20454   0.67845   0.00000  Uiso   1.00
H648   H     0.24688   0.09607   0.63425   0.00000  Uiso   1.00
H649   H     0.09340   0.10840   0.58720   0.00000  Uiso   1.00
O650   O     0.16667   0.16667   0.75000   0.00000  Uiso   1.00
O651   O     0.15693   0.12393   0.66625   0.00000  Uiso   1.00
O652   O     0.12687   0.20646   0.83749   0.00000  Uiso   1.00
O653   O     0.21088   0.17493   0.65877   0.00000  Uiso   1.00
O654   O     0.17198   0.16135   0.83749   0.00000  Uiso   1.00
O655   O     0.31081   0.10371   0.99214   0.00000  Uiso   1.00
O656   O     0.06332   0.20045   0.69465   0.00000  Uiso   1.00
O657   O     0.29810   0.09443   0.58776   0.00000  Uiso   1.00
O658   O     0.04815   0.14654   0.60052   0.00000  Uiso   1.00
O659   O     0.17849   0.08101   0.77820   0.00000  Uiso   1.00
O660   O     0.14581   0.26136   0.76767   0.00000  Uiso   1.00
O661   O     0.07452   0.13251   0.73607   0.00000  Uiso   1.00
O662   O     0.26785   0.19179   0.71805   0.00000  Uiso   1.00
O663   O     0.06990   0.18960   0.77820   0.00000  Uiso   1.00
O664   O     0.25440   0.15277   0.76767   0.00000  Uiso   1.00
O665   O     0.13800   0.06903   0.73607   0.00000  Uiso   1.00
O666   O     0.20437   0.25527   0.71805   0.00000  Uiso   1.00
Zn667  Zn    0.19244   0.14090   0.78277   0.00000  Uiso   1.00
Zn668  Zn    0.13459   0.12378   0.72257   0.00000  Uiso   1.00
Zn669  Zn    0.21166   0.19664   0.71188   0.00000  Uiso   1.00
Zn670  Zn    0.12798   0.20535   0.78277   0.00000  Uiso   1.00
C671   C     0.38587   0.15959   0.75927   0.00000  Uiso   1.00
C672   C     0.53006   0.12393   0.95803   0.00000  Uiso   1.00
C673   C     0.55444   0.10746   0.97709   0.00000  Uiso   1.00
C674   C     0.61460   0.17330   0.74081   0.00000  Uiso   1.00
C675   C     0.54759   0.11607   0.51845   0.00000  Uiso   1.00
C676   C     0.51082   0.13624   0.54057   0.00000  Uiso   1.00
C677   C     0.57590   0.10485   0.53832   0.00000  Uiso   1.00
C678   C     0.56678   0.11308   0.58013   0.00000  Uiso   1.00
C679   C     0.50627   0.14909   0.58096   0.00000  Uiso   1.00
C680   C     0.66102   0.17489   0.73541   0.00000  Uiso   1.00
C681   C     0.34105   0.15838   0.76210   0.00000  Uiso   1.00
C682   C     0.42321   0.20063   0.92152   0.00000  Uiso   1.00
C683   C     0.51465   0.32224   0.73787   0.00000  Uiso   1.00
C684   C     0.48526   0.01203   0.76198   0.00000  Uiso   1.00
C685   C     0.48930   0.05611   0.75893   0.00000  Uiso   1.00
C686   C     0.51032   0.27771   0.74126   0.00000  Uiso   1.00
C687   C     0.52135   0.14563   0.64386   0.00000  Uiso   1.00
C688   C     0.47854   0.18739   0.85641   0.00000  Uiso   1.00
C689   C     0.46424   0.18980   0.90018   0.00000  Uiso   1.00
C690   C     0.53181   0.13547   0.60086   0.00000  Uiso   1.00
C691   C     0.40724   0.19562   0.96184   0.00000  Uiso   1.00
C692   C     0.61501   0.08490   0.51601   0.00000  Uiso   1.00
C693   C     0.48982   0.17574   0.92019   0.00000  Uiso   1.00
C694   C     0.35764   0.19464   0.70011   0.00000  Uiso   1.00
C695   C     0.59374   0.09994   0.60295   0.00000  Uiso   1.00
C696   C     0.41436   0.13367   0.57853   0.00000  Uiso   1.00
C697   C     0.47259   0.16639   0.96002   0.00000  Uiso   1.00
C698   C     0.43121   0.17780   0.98132   0.00000  Uiso   1.00
C699   C     0.49556   0.14652   0.97932   0.00000  Uiso   1.00
C700   C     0.48132   0.14573   0.52097   0.00000  Uiso   1.00
C701   C     0.43761   0.15205   0.54069   0.00000  Uiso   1.00
C702   C     0.41362   0.16935   0.52103   0.00000  Uiso   1.00
F703   F     0.37219   0.17602   0.54017   0.00000  Uiso   1.00
F704   F     0.64627   0.14221   0.79467   0.00000  Uiso   1.00
F705   F     0.54870   0.00650   0.71009   0.00000  Uiso   1.00
F706   F     0.47942   0.17796   0.60079   0.00000  Uiso   1.00
F707   F     0.58467   0.08328   0.95421   0.00000  Uiso   1.00
F708   F     0.36744   0.20679   0.98124   0.00000  Uiso   1.00
F709   F     0.39774   0.21480   0.90320   0.00000  Uiso   1.00
F710   F     0.53223   0.17394   0.90103   0.00000  Uiso   1.00
H711   H     0.45769   0.33194   0.78414   0.00000  Uiso   1.00
H712   H     0.53690   0.11596   0.92642   0.00000  Uiso   1.00
H713   H     0.61869   0.05405   0.52204   0.00000  Uiso   1.00
H714   H     0.34461   0.20454   0.67845   0.00000  Uiso   1.00
H715   H     0.58022   0.09607   0.63425   0.00000  Uiso   1.00
H716   H     0.42674   0.10840   0.58720   0.00000  Uiso   1.00
O717   O     0.50000   0.16667   0.75000   0.00000  Uiso   1.00
O718   O     0.49027   0.12393   0.66625   0.00000  Uiso   1.00
O719   O     0.46020   0.20646   0.83749   0.00000  Uiso   1.00
O720   O     0.54421   0.17493   0.65877   0.00000  Uiso   1.00
O721   O     0.50532   0.16135   0.83749   0.00000  Uiso   1.00
O722   O     0.64414   0.10371   0.99214   0.00000  Uiso   1.00
O723   O     0.39665   0.20045   0.69465   0.00000  Uiso   1.00
O724   O     0.63143   0.09443   0.58776   0.00000  Uiso   1.00
O725   O     0.38149   0.14654   0.60052   0.00000  Uiso   1.00
O726   O     0.51182   0.08101   0.77820   0.00000  Uiso   1.00
O727   O     0.47914   0.26136   0.76767   0.00000  Uiso   1.00
O728   O     0.40785   0.13251   0.73607   0.00000  Uiso   1.00
O729   O     0.60119   0.19179   0.71805   0.00000  Uiso   1.00
O730   O     0.40323   0.18960   0.77820   0.00000  Uiso   1.00
O731   O     0.58773   0.15277   0.76767   0.00000  Uiso   1.00
O732   O     0.47133   0.06903   0.73607   0.00000  Uiso   1.00
O733   O     0.53771   0.25527   0.71805   0.00000  Uiso   1.00
Zn734  Zn    0.52577   0.14090   0.78277   0.00000  Uiso   1.00
Zn735  Zn    0.46792   0.12378   0.72257   0.00000  Uiso   1.00
Zn736  Zn    0.54500   0.19664   0.71188   0.00000  Uiso   1.00
Zn737  Zn    0.46131   0.20535   0.78277   0.00000  Uiso   1.00
C738   C     0.71921   0.15959   0.75927   0.00000  Uiso   1.00
C739   C     0.86339   0.12393   0.95803   0.00000  Uiso   1.00
C740   C     0.88778   0.10746   0.97709   0.00000  Uiso   1.00
C741   C     0.94793   0.17330   0.74081   0.00000  Uiso   1.00
C742   C     0.88092   0.11607   0.51845   0.00000  Uiso   1.00
C743   C     0.84415   0.13624   0.54057   0.00000  Uiso   1.00
C744   C     0.90923   0.10485   0.53832   0.00000  Uiso   1.00
C745   C     0.90012   0.11308   0.58013   0.00000  Uiso   1.00
C746   C     0.83960   0.14909   0.58096   0.00000  Uiso   1.00
C747   C     0.99435   0.17489   0.73541   0.00000  Uiso   1.00
C748   C     0.67438   0.15838   0.76210   0.00000  Uiso   1.00
C749   C     0.75654   0.20063   0.92152   0.00000  Uiso   1.00
C750   C     0.84798   0.32224   0.73787   0.00000  Uiso   1.00
C751   C     0.81859   0.01203   0.76198   0.00000  Uiso   1.00
C752   C     0.82263   0.05611   0.75893   0.00000  Uiso   1.00
C753   C     0.84366   0.27771   0.74126   0.00000  Uiso   1.00
C754   C     0.85468   0.14563   0.64386   0.00000  Uiso   1.00
C755   C     0.81187   0.18739   0.85641   0.00000  Uiso   1.00
C756   C     0.79757   0.18980   0.90018   0.00000  Uiso   1.00
C757   C     0.86515   0.13547   0.60086   0.00000  Uiso   1.00
C758   C     0.74058   0.19562   0.96184   0.00000  Uiso   1.00
C759   C     0.94834   0.08490   0.51601   0.00000  Uiso   1.00
C760   C     0.82315   0.17574   0.92019   0.00000  Uiso   1.00
C761   C     0.69098   0.19464   0.70011   0.00000  Uiso   1.00
C762   C     0.92707   0.09994   0.60295   0.00000  Uiso   1.00
C763   C     0.74769   0.13367   0.57853   0.00000  Uiso   1.00
C764   C     0.80592   0.16639   0.96002   0.00000  Uiso   1.00
C765   C     0.76454   0.17780   0.98132   0.00000  Uiso   1.00
C766   C     0.82890   0.14652   0.97932   0.00000  Uiso   1.00
C767   C     0.81466   0.14573   0.52097   0.00000  Uiso   1.00
C768   C     0.77094   0.15205   0.54069   0.00000  Uiso   1.00
C769   C     0.74695   0.16935   0.52103   0.00000  Uiso   1.00
F770   F     0.70552   0.17602   0.54017   0.00000  Uiso   1.00
F771   F     0.97961   0.14221   0.79467   0.00000  Uiso   1.00
F772   F     0.88203   0.00650   0.71009   0.00000  Uiso   1.00
F773   F     0.81275   0.17796   0.60079   0.00000  Uiso   1.00
F774   F     0.91800   0.08328   0.95421   0.00000  Uiso   1.00
F775   F     0.70078   0.20679   0.98124   0.00000  Uiso   1.00
F776   F     0.73107   0.21480   0.90320   0.00000  Uiso   1.00
F777   F     0.86556   0.17394   0.90103   0.00000  Uiso   1.00
H778   H     0.79102   0.33194   0.78414   0.00000  Uiso   1.00
H779   H     0.87023   0.11596   0.92642   0.00000  Uiso   1.00
H780   H     0.95202   0.05405   0.52204   0.00000  Uiso   1.00
H781   H     0.67794   0.20454   0.67845   0.00000  Uiso   1.00
H782   H     0.91355   0.09607   0.63425   0.00000  Uiso   1.00
H783   H     0.76007   0.10840   0.58720   0.00000  Uiso   1.00
O784   O     0.83333   0.16667   0.75000   0.00000  Uiso   1.00
O785   O     0.82360   0.12393   0.66625   0.00000  Uiso   1.00
O786   O     0.79354   0.20646   0.83749   0.00000  Uiso   1.00
O787   O     0.87755   0.17493   0.65877   0.00000  Uiso   1.00
O788   O     0.83865   0.16135   0.83749   0.00000  Uiso   1.00
O789   O     0.97747   0.10371   0.99214   0.00000  Uiso   1.00
O790   O     0.72998   0.20045   0.69465   0.00000  Uiso   1.00
O791   O     0.96476   0.09443   0.58776   0.00000  Uiso   1.00
O792   O     0.71482   0.14654   0.60052   0.00000  Uiso   1.00
O793   O     0.84515   0.08101   0.77820   0.00000  Uiso   1.00
O794   O     0.81247   0.26136   0.76767   0.00000  Uiso   1.00
O795   O     0.74119   0.13251   0.73607   0.00000  Uiso   1.00
O796   O     0.93452   0.19179   0.71805   0.00000  Uiso   1.00
O797   O     0.73656   0.18960   0.77820   0.00000  Uiso   1.00
O798   O     0.92106   0.15277   0.76767   0.00000  Uiso   1.00
O799   O     0.80467   0.06903   0.73607   0.00000  Uiso   1.00
O800   O     0.87104   0.25527   0.71805   0.00000  Uiso   1.00
Zn801  Zn    0.85910   0.14090   0.78277   0.00000  Uiso   1.00
Zn802  Zn    0.80125   0.12378   0.72257   0.00000  Uiso   1.00
Zn803  Zn    0.87833   0.19664   0.71188   0.00000  Uiso   1.00
Zn804  Zn    0.79465   0.20535   0.78277   0.00000  Uiso   1.00
C805   C     0.05254   0.49292   0.75927   0.00000  Uiso   1.00
C806   C     0.19673   0.45726   0.95803   0.00000  Uiso   1.00
C807   C     0.22111   0.44079   0.97709   0.00000  Uiso   1.00
C808   C     0.28127   0.50663   0.74081   0.00000  Uiso   1.00
C809   C     0.21426   0.44940   0.51845   0.00000  Uiso   1.00
C810   C     0.17749   0.46958   0.54057   0.00000  Uiso   1.00
C811   C     0.24256   0.43818   0.53832   0.00000  Uiso   1.00
C812   C     0.23345   0.44641   0.58013   0.00000  Uiso   1.00
C813   C     0.17293   0.48242   0.58096   0.00000  Uiso   1.00
C814   C     0.32768   0.50823   0.73541   0.00000  Uiso   1.00
C815   C     0.00771   0.49172   0.76210   0.00000  Uiso   1.00
C816   C     0.08987   0.53396   0.92152   0.00000  Uiso   1.00
C817   C     0.18131   0.65558   0.73787   0.00000  Uiso   1.00
C818   C     0.15192   0.34537   0.76198   0.00000  Uiso   1.00
C819   C     0.15597   0.38944   0.75893   0.00000  Uiso   1.00
C820   C     0.17699   0.61105   0.74126   0.00000  Uiso   1.00
C821   C     0.18801   0.47897   0.64386   0.00000  Uiso   1.00
C822   C     0.14520   0.52073   0.85641   0.00000  Uiso   1.00
C823   C     0.13090   0.52313   0.90018   0.00000  Uiso   1.00
C824   C     0.19848   0.46880   0.60086   0.00000  Uiso   1.00
C825   C     0.07391   0.52896   0.96184   0.00000  Uiso   1.00
C826   C     0.28167   0.41823   0.51601   0.00000  Uiso   1.00
C827   C     0.15648   0.50907   0.92019   0.00000  Uiso   1.00
C828   C     0.02431   0.52798   0.70011   0.00000  Uiso   1.00
C829   C     0.26041   0.43327   0.60295   0.00000  Uiso   1.00
C830   C     0.08102   0.46701   0.57853   0.00000  Uiso   1.00
C831   C     0.13925   0.49972   0.96002   0.00000  Uiso   1.00
C832   C     0.09788   0.51114   0.98132   0.00000  Uiso   1.00
C833   C     0.16223   0.47985   0.97932   0.00000  Uiso   1.00
C834   C     0.14799   0.47906   0.52097   0.00000  Uiso   1.00
C835   C     0.10428   0.48538   0.54069   0.00000  Uiso   1.00
C836   C     0.08029   0.50268   0.52103   0.00000  Uiso   1.00
F837   F     0.03885   0.50936   0.54017   0.00000  Uiso   1.00
F838   F     0.31294   0.47555   0.79467   0.00000  Uiso   1.00
F839   F     0.21537   0.33984   0.71009   0.00000  Uiso   1.00
F840   F     0.14608   0.51129   0.60079   0.00000  Uiso   1.00
F841   F     0.25134   0.41662   0.95421   0.00000  Uiso   1.00
F842   F     0.03411   0.54012   0.98124   0.00000  Uiso   1.00
F843   F     0.06441   0.54813   0.90320   0.00000  Uiso   1.00
F844   F     0.19890   0.50727   0.90103   0.00000  Uiso   1.00
H845   H     0.12435   0.66528   0.78414   0.00000  Uiso   1.00
H846   H     0.20357   0.44930   0.92642   0.00000  Uiso   1.00
H847   H     0.28535   0.38739   0.52204   0.00000  Uiso   1.00
H848   H     0.01128   0.53787   0.67845   0.00000  Uiso   1.00
H849   H     0.24688   0.42941   0.63425   0.00000  Uiso   1.00
H850   H     0.09340   0.44173   0.58720   0.00000  Uiso   1.00
O851   O     0.16667   0.50000   0.75000   0.00000  Uiso   1.00
O852   O     0.15693   0.45726   0.66625   0.00000  Uiso   1.00
O853   O     0.12687   0.53979   0.83749   0.00000  Uiso   1.00
O854   O     0.21088   0.50826   0.65877   0.00000  Uiso   1.00
O855   O     0.17198   0.49468   0.83749   0.00000  Uiso   1.00
O856   O     0.31081   0.43704   0.99214   0.00000  Uiso   1.00
O857   O     0.06332   0.53378   0.69465   0.00000  Uiso   1.00
O858   O     0.29810   0.42776   0.58776   0.00000  Uiso   1.00
O859   O     0.04815   0.47988   0.60052   0.00000  Uiso   1.00
O860   O     0.17849   0.41434   0.77820   0.00000  Uiso   1.00
O861   O     0.14581   0.59469   0.76767   0.00000  Uiso   1.00
O862   O     0.07452   0.46584   0.73607   0.00000  Uiso   1.00
O863   O     0.26785   0.52512   0.71805   0.00000  Uiso   1.00
O864   O     0.06990   0.52293   0.77820   0.00000  Uiso   1.00
O865   O     0.25440   0.48610   0.76767   0.00000  Uiso   1.00
O866   O     0.13800   0.40236   0.73607   0.00000  Uiso   1.00
O867   O     0.20437   0.58860   0.71805   0.00000  Uiso   1.00
Zn868  Zn    0.19244   0.47423   0.78277   0.00000  Uiso   1.00
Zn869  Zn    0.13459   0.45711   0.72257   0.00000  Uiso   1.00
Zn870  Zn    0.21166   0.52997   0.71188   0.00000  Uiso   1.00
Zn871  Zn    0.12798   0.53868   0.78277   0.00000  Uiso   1.00
C872   C     0.38587   0.49292   0.75927   0.00000  Uiso   1.00
C873   C     0.53006   0.45726   0.95803   0.00000  Uiso   1.00
C874   C     0.55444   0.44079   0.97709   0.00000  Uiso   1.00
C875   C     0.61460   0.50663   0.74081   0.00000  Uiso   1.00
C876   C     0.54759   0.44940   0.51845   0.00000  Uiso   1.00
C877   C     0.51082   0.46958   0.54057   0.00000  Uiso   1.00
C878   C     0.57590   0.43818   0.53832   0.00000  Uiso   1.00
C879   C     0.56678   0.44641   0.58013   0.00000  Uiso   1.00
C880   C     0.50627   0.48242   0.58096   0.00000  Uiso   1.00
C881   C     0.66102   0.50823   0.73541   0.00000  Uiso   1.00
C882   C     0.34105   0.49172   0.76210   0.00000  Uiso   1.00
C883   C     0.42321   0.53396   0.92152   0.00000  Uiso   1.00
C884   C     0.51465   0.65558   0.73787   0.00000  Uiso   1.00
C885   C     0.48526   0.34537   0.76198   0.00000  Uiso   1.00
C886   C     0.48930   0.38944   0.75893   0.00000  Uiso   1.00
C887   C     0.51032   0.61105   0.74126   0.00000  Uiso   1.00
C888   C     0.52135   0.47897   0.64386   0.00000  Uiso   1.00
C889   C     0.47854   0.52073   0.85641   0.00000  Uiso   1.00
C890   C     0.46424   0.52313   0.90018   0.00000  Uiso   1.00
C891   C     0.53181   0.46880   0.60086   0.00000  Uiso   1.00
C892   C     0.40724   0.52896   0.96184   0.00000  Uiso   1.00
C893   C     0.61501   0.41823   0.51601   0.00000  Uiso   1.00
C894   C     0.48982   0.50907   0.92019   0.00000  Uiso   1.00
C895   C     0.35764   0.52798   0.70011   0.00000  Uiso   1.00
C896   C     0.59374   0.43327   0.60295   0.00000  Uiso   1.00
C897   C     0.41436   0.46701   0.57853   0.00000  Uiso   1.00
C898   C     0.47259   0.49972   0.96002   0.00000  Uiso   1.00
C899   C     0.43121   0.51114   0.98132   0.00000  Uiso   1.00
C900   C     0.49556   0.47985   0.97932   0.00000  Uiso   1.00
C901   C     0.48132   0.47906   0.52097   0.00000  Uiso   1.00
C902   C     0.43761   0.48538   0.54069   0.00000  Uiso   1.00
C903   C     0.41362   0.50268   0.52103   0.00000  Uiso   1.00
F904   F     0.37219   0.50936   0.54017   0.00000  Uiso   1.00
F905   F     0.64627   0.47555   0.79467   0.00000  Uiso   1.00
F906   F     0.54870   0.33984   0.71009   0.00000  Uiso   1.00
F907   F     0.47942   0.51129   0.60079   0.00000  Uiso   1.00
F908   F     0.58467   0.41662   0.95421   0.00000  Uiso   1.00
F909   F     0.36744   0.54012   0.98124   0.00000  Uiso   1.00
F910   F     0.39774   0.54813   0.90320   0.00000  Uiso   1.00
F911   F     0.53223   0.50727   0.90103   0.00000  Uiso   1.00
H912   H     0.45769   0.66528   0.78414   0.00000  Uiso   1.00
H913   H     0.53690   0.44930   0.92642   0.00000  Uiso   1.00
H914   H     0.61869   0.38739   0.52204   0.00000  Uiso   1.00
H915   H     0.34461   0.53787   0.67845   0.00000  Uiso   1.00
H916   H     0.58022   0.42941   0.63425   0.00000  Uiso   1.00
H917   H     0.42674   0.44173   0.58720   0.00000  Uiso   1.00
O918   O     0.50000   0.50000   0.75000   0.00000  Uiso   1.00
O919   O     0.49027   0.45726   0.66625   0.00000  Uiso   1.00
O920   O     0.46020   0.53979   0.83749   0.00000  Uiso   1.00
O921   O     0.54421   0.50826   0.65877   0.00000  Uiso   1.00
O922   O     0.50532   0.49468   0.83749   0.00000  Uiso   1.00
O923   O     0.64414   0.43704   0.99214   0.00000  Uiso   1.00
O924   O     0.39665   0.53378   0.69465   0.00000  Uiso   1.00
O925   O     0.63143   0.42776   0.58776   0.00000  Uiso   1.00
O926   O     0.38149   0.47988   0.60052   0.00000  Uiso   1.00
O927   O     0.51182   0.41434   0.77820   0.00000  Uiso   1.00
O928   O     0.47914   0.59469   0.76767   0.00000  Uiso   1.00
O929   O     0.40785   0.46584   0.73607   0.00000  Uiso   1.00
O930   O     0.60119   0.52512   0.71805   0.00000  Uiso   1.00
O931   O     0.40323   0.52293   0.77820   0.00000  Uiso   1.00
O932   O     0.58773   0.48610   0.76767   0.00000  Uiso   1.00
O933   O     0.47133   0.40236   0.73607   0.00000  Uiso   1.00
O934   O     0.53771   0.58860   0.71805   0.00000  Uiso   1.00
Zn935  Zn    0.52577   0.47423   0.78277   0.00000  Uiso   1.00
Zn936  Zn    0.46792   0.45711   0.72257   0.00000  Uiso   1.00
Zn937  Zn    0.54500   0.52997   0.71188   0.00000  Uiso   1.00
Zn938  Zn    0.46131   0.53868   0.78277   0.00000  Uiso   1.00
C939   C     0.71921   0.49292   0.75927   0.00000  Uiso   1.00
C940   C     0.86339   0.45726   0.95803   0.00000  Uiso   1.00
C941   C     0.88778   0.44079   0.97709   0.00000  Uiso   1.00
C942   C     0.94793   0.50663   0.74081   0.00000  Uiso   1.00
C943   C     0.88092   0.44940   0.51845   0.00000  Uiso   1.00
C944   C     0.84415   0.46958   0.54057   0.00000  Uiso   1.00
C945   C     0.90923   0.43818   0.53832   0.00000  Uiso   1.00
C946   C     0.90012   0.44641   0.58013   0.00000  Uiso   1.00
C947   C     0.83960   0.48242   0.58096   0.00000  Uiso   1.00
C948   C     0.99435   0.50823   0.73541   0.00000  Uiso   1.00
C949   C     0.67438   0.49172   0.76210   0.00000  Uiso   1.00
C950   C     0.75654   0.53396   0.92152   0.00000  Uiso   1.00
C951   C     0.84798   0.65558   0.73787   0.00000  Uiso   1.00
C952   C     0.81859   0.34537   0.76198   0.00000  Uiso   1.00
C953   C     0.82263   0.38944   0.75893   0.00000  Uiso   1.00
C954   C     0.84366   0.61105   0.74126   0.00000  Uiso   1.00
C955   C     0.85468   0.47897   0.64386   0.00000  Uiso   1.00
C956   C     0.81187   0.52073   0.85641   0.00000  Uiso   1.00
C957   C     0.79757   0.52313   0.90018   0.00000  Uiso   1.00
C958   C     0.86515   0.46880   0.60086   0.00000  Uiso   1.00
C959   C     0.74058   0.52896   0.96184   0.00000  Uiso   1.00
C960   C     0.94834   0.41823   0.51601   0.00000  Uiso   1.00
C961   C     0.82315   0.50907   0.92019   0.00000  Uiso   1.00
C962   C     0.69098   0.52798   0.70011   0.00000  Uiso   1.00
C963   C     0.92707   0.43327   0.60295   0.00000  Uiso   1.00
C964   C     0.74769   0.46701   0.57853   0.00000  Uiso   1.00
C965   C     0.80592   0.49972   0.96002   0.00000  Uiso   1.00
C966   C     0.76454   0.51114   0.98132   0.00000  Uiso   1.00
C967   C     0.82890   0.47985   0.97932   0.00000  Uiso   1.00
C968   C     0.81466   0.47906   0.52097   0.00000  Uiso   1.00
C969   C     0.77094   0.48538   0.54069   0.00000  Uiso   1.00
C970   C     0.74695   0.50268   0.52103   0.00000  Uiso   1.00
F971   F     0.70552   0.50936   0.54017   0.00000  Uiso   1.00
F972   F     0.97961   0.47555   0.79467   0.00000  Uiso   1.00
F973   F     0.88203   0.33984   0.71009   0.00000  Uiso   1.00
F974   F     0.81275   0.51129   0.60079   0.00000  Uiso   1.00
F975   F     0.91800   0.41662   0.95421   0.00000  Uiso   1.00
F976   F     0.70078   0.54012   0.98124   0.00000  Uiso   1.00
F977   F     0.73107   0.54813   0.90320   0.00000  Uiso   1.00
F978   F     0.86556   0.50727   0.90103   0.00000  Uiso   1.00
H979   H     0.79102   0.66528   0.78414   0.00000  Uiso   1.00
H980   H     0.87023   0.44930   0.92642   0.00000  Uiso   1.00
H981   H     0.95202   0.38739   0.52204   0.00000  Uiso   1.00
H982   H     0.67794   0.53787   0.67845   0.00000  Uiso   1.00
H983   H     0.91355   0.42941   0.63425   0.00000  Uiso   1.00
H984   H     0.76007   0.44173   0.58720   0.00000  Uiso   1.00
O985   O     0.83333   0.50000   0.75000   0.00000  Uiso   1.00
O986   O     0.82360   0.45726   0.66625   0.00000  Uiso   1.00
O987   O     0.79354   0.53979   0.83749   0.00000  Uiso   1.00
O988   O     0.87755   0.50826   0.65877   0.00000  Uiso   1.00
O989   O     0.83865   0.49468   0.83749   0.00000  Uiso   1.00
O990   O     0.97747   0.43704   0.99214   0.00000  Uiso   1.00
O991   O     0.72998   0.53378   0.69465   0.00000  Uiso   1.00
O992   O     0.96476   0.42776   0.58776   0.00000  Uiso   1.00
O993   O     0.71482   0.47988   0.60052   0.00000  Uiso   1.00
O994   O     0.84515   0.41434   0.77820   0.00000  Uiso   1.00
O995   O     0.81247   0.59469   0.76767   0.00000  Uiso   1.00
O996   O     0.74119   0.46584   0.73607   0.00000  Uiso   1.00
O997   O     0.93452   0.52512   0.71805   0.00000  Uiso   1.00
O998   O     0.73656   0.52293   0.77820   0.00000  Uiso   1.00
O999   O     0.92106   0.48610   0.76767   0.00000  Uiso   1.00
O1000  O     0.80467   0.40236   0.73607   0.00000  Uiso   1.00
O1001  O     0.87104   0.58860   0.71805   0.00000  Uiso   1.00
Zn1002 Zn    0.85910   0.47423   0.78277   0.00000  Uiso   1.00
Zn1003 Zn    0.80125   0.45711   0.72257   0.00000  Uiso   1.00
Zn1004 Zn    0.87833   0.52997   0.71188   0.00000  Uiso   1.00
Zn1005 Zn    0.79465   0.53868   0.78277   0.00000  Uiso   1.00
C1006  C     0.05254   0.82625   0.75927   0.00000  Uiso   1.00
C1007  C     0.19673   0.79060   0.95803   0.00000  Uiso   1.00
C1008  C     0.22111   0.77413   0.97709   0.00000  Uiso   1.00
C1009  C     0.28127   0.83997   0.74081   0.00000  Uiso   1.00
C1010  C     0.21426   0.78273   0.51845   0.00000  Uiso   1.00
C1011  C     0.17749   0.80291   0.54057   0.00000  Uiso   1.00
C1012  C     0.24256   0.77152   0.53832   0.00000  Uiso   1.00
C1013  C     0.23345   0.77975   0.58013   0.00000  Uiso   1.00
C1014  C     0.17293   0.81575   0.58096   0.00000  Uiso   1.00
C1015  C     0.32768   0.84156   0.73541   0.00000  Uiso   1.00
C1016  C     0.00771   0.82505   0.76210   0.00000  Uiso   1.00
C1017  C     0.08987   0.86729   0.92152   0.00000  Uiso   1.00
C1018  C     0.18131   0.98891   0.73787   0.00000  Uiso   1.00
C1019  C     0.15192   0.67870   0.76198   0.00000  Uiso   1.00
C1020  C     0.15597   0.72277   0.75893   0.00000  Uiso   1.00
C1021  C     0.17699   0.94438   0.74126   0.00000  Uiso   1.00
C1022  C     0.18801   0.81230   0.64386   0.00000  Uiso   1.00
C1023  C     0.14520   0.85406   0.85641   0.00000  Uiso   1.00
C1024  C     0.13090   0.85646   0.90018   0.00000  Uiso   1.00
C1025  C     0.19848   0.80213   0.60086   0.00000  Uiso   1.00
C1026  C     0.07391   0.86229   0.96184   0.00000  Uiso   1.00
C1027  C     0.28167   0.75157   0.51601   0.00000  Uiso   1.00
C1028  C     0.15648   0.84241   0.92019   0.00000  Uiso   1.00
C1029  C     0.02431   0.86131   0.70011   0.00000  Uiso   1.00
C1030  C     0.26041   0.76661   0.60295   0.00000  Uiso   1.00
C1031  C     0.08102   0.80034   0.57853   0.00000  Uiso   1.00
C1032  C     0.13925   0.83306   0.96002   0.00000  Uiso   1.00
C1033  C     0.09788   0.84447   0.98132   0.00000  Uiso   1.00
C1034  C     0.16223   0.81319   0.97932   0.00000  Uiso   1.00
C1035  C     0.14799   0.81240   0.52097   0.00000  Uiso   1.00
C1036  C     0.10428   0.81871   0.54069   0.00000  Uiso   1.00
C1037  C     0.08029   0.83601   0.52103   0.00000  Uiso   1.00
F1038  F     0.03885   0.84269   0.54017   0.00000  Uiso   1.00
F1039  F     0.31294   0.80888   0.79467   0.00000  Uiso   1.00
F1040  F     0.21537   0.67317   0.71009   0.00000  Uiso   1.00
F1041  F     0.14608   0.84462   0.60079   0.00000  Uiso   1.00
F1042  F     0.25134   0.74995   0.95421   0.00000  Uiso   1.00
F1043  F     0.03411   0.87346   0.98124   0.00000  Uiso   1.00
F1044  F     0.06441   0.88147   0.90320   0.00000  Uiso   1.00
F1045  F     0.19890   0.84061   0.90103   0.00000  Uiso   1.00
H1046  H     0.12435   0.99861   0.78414   0.00000  Uiso   1.00
H1047  H     0.20357   0.78263   0.92642   0.00000  Uiso   1.00
H1048  H     0.28535   0.72072   0.52204   0.00000  Uiso   1.00
H1049  H     0.01128   0.87120   0.67845   0.00000  Uiso   1.00
H1050  H     0.24688   0.76274   0.63425   0.00000  Uiso   1.00
H1051  H     0.09340   0.77507   0.58720   0.00000  Uiso   1.00
O1052  O     0.16667   0.83333   0.75000   0.00000  Uiso   1.00
O1053  O     0.15693   0.79060   0.66625   0.00000  Uiso   1.00
O1054  O     0.12687   0.87313   0.83749   0.00000  Uiso   1.00
O1055  O     0.21088   0.84159   0.65877   0.00000  Uiso   1.00
O1056  O     0.17198   0.82802   0.83749   0.00000  Uiso   1.00
O1057  O     0.31081   0.77038   0.99214   0.00000  Uiso   1.00
O1058  O     0.06332   0.86711   0.69465   0.00000  Uiso   1.00
O1059  O     0.29810   0.76110   0.58776   0.00000  Uiso   1.00
O1060  O     0.04815   0.81321   0.60052   0.00000  Uiso   1.00
O1061  O     0.17849   0.74768   0.77820   0.00000  Uiso   1.00
O1062  O     0.14581   0.92803   0.76767   0.00000  Uiso   1.00
O1063  O     0.07452   0.79917   0.73607   0.00000  Uiso   1.00
O1064  O     0.26785   0.85845   0.71805   0.00000  Uiso   1.00
O1065  O     0.06990   0.85627   0.77820   0.00000  Uiso   1.00
O1066  O     0.25440   0.81944   0.76767   0.00000  Uiso   1.00
O1067  O     0.13800   0.73570   0.73607   0.00000  Uiso   1.00
O1068  O     0.20437   0.92193   0.71805   0.00000  Uiso   1.00
Zn1069 Zn    0.19244   0.80756   0.78277   0.00000  Uiso   1.00
Zn1070 Zn    0.13459   0.79044   0.72257   0.00000  Uiso   1.00
Zn1071 Zn    0.21166   0.86331   0.71188   0.00000  Uiso   1.00
Zn1072 Zn    0.12798   0.87202   0.78277   0.00000  Uiso   1.00
C1073  C     0.38587   0.82625   0.75927   0.00000  Uiso   1.00
C1074  C     0.53006   0.79060   0.95803   0.00000  Uiso   1.00
C1075  C     0.55444   0.77413   0.97709   0.00000  Uiso   1.00
C1076  C     0.61460   0.83997   0.74081   0.00000  Uiso   1.00
C1077  C     0.54759   0.78273   0.51845   0.00000  Uiso   1.00
C1078  C     0.51082   0.80291   0.54057   0.00000  Uiso   1.00
C1079  C     0.57590   0.77152   0.53832   0.00000  Uiso   1.00
C1080  C     0.56678   0.77975   0.58013   0.00000  Uiso   1.00
C1081  C     0.50627   0.81575   0.58096   0.00000  Uiso   1.00
C1082  C     0.66102   0.84156   0.73541   0.00000  Uiso   1.00
C1083  C     0.34105   0.82505   0.76210   0.00000  Uiso   1.00
C1084  C     0.42321   0.86729   0.92152   0.00000  Uiso   1.00
C1085  C     0.51465   0.98891   0.73787   0.00000  Uiso   1.00
C1086  C     0.48526   0.67870   0.76198   0.00000  Uiso   1.00
C1087  C     0.48930   0.72277   0.75893   0.00000  Uiso   1.00
C1088  C     0.51032   0.94438   0.74126   0.00000  Uiso   1.00
C1089  C     0.52135   0.81230   0.64386   0.00000  Uiso   1.00
C1090  C     0.47854   0.85406   0.85641   0.00000  Uiso   1.00
C1091  C     0.46424   0.85646   0.90018   0.00000  Uiso   1.00
C1092  C     0.53181   0.80213   0.60086   0.00000  Uiso   1.00
C1093  C     0.40724   0.86229   0.96184   0.00000  Uiso   1.00
C1094  C     0.61501   0.75157   0.51601   0.00000  Uiso   1.00
C1095  C     0.48982   0.84241   0.92019   0.00000  Uiso   1.00
C1096  C     0.35764   0.86131   0.70011   0.00000  Uiso   1.00
C1097  C     0.59374   0.76661   0.60295   0.00000  Uiso   1.00
C1098  C     0.41436   0.80034   0.57853   0.00000  Uiso   1.00
C1099  C     0.47259   0.83306   0.96002   0.00000  Uiso   1.00
C1100  C     0.43121   0.84447   0.98132   0.00000  Uiso   1.00
C1101  C     0.49556   0.81319   0.97932   0.00000  Uiso   1.00
C1102  C     0.48132   0.81240   0.52097   0.00000  Uiso   1.00
C1103  C     0.43761   0.81871   0.54069   0.00000  Uiso   1.00
C1104  C     0.41362   0.83601   0.52103   0.00000  Uiso   1.00
F1105  F     0.37219   0.84269   0.54017   0.00000  Uiso   1.00
F1106  F     0.64627   0.80888   0.79467   0.00000  Uiso   1.00
F1107  F     0.54870   0.67317   0.71009   0.00000  Uiso   1.00
F1108  F     0.47942   0.84462   0.60079   0.00000  Uiso   1.00
F1109  F     0.58467   0.74995   0.95421   0.00000  Uiso   1.00
F1110  F     0.36744   0.87346   0.98124   0.00000  Uiso   1.00
F1111  F     0.39774   0.88147   0.90320   0.00000  Uiso   1.00
F1112  F     0.53223   0.84061   0.90103   0.00000  Uiso   1.00
H1113  H     0.45769   0.99861   0.78414   0.00000  Uiso   1.00
H1114  H     0.53690   0.78263   0.92642   0.00000  Uiso   1.00
H1115  H     0.61869   0.72072   0.52204   0.00000  Uiso   1.00
H1116  H     0.34461   0.87120   0.67845   0.00000  Uiso   1.00
H1117  H     0.58022   0.76274   0.63425   0.00000  Uiso   1.00
H1118  H     0.42674   0.77507   0.58720   0.00000  Uiso   1.00
O1119  O     0.50000   0.83333   0.75000   0.00000  Uiso   1.00
O1120  O     0.49027   0.79060   0.66625   0.00000  Uiso   1.00
O1121  O     0.46020   0.87313   0.83749   0.00000  Uiso   1.00
O1122  O     0.54421   0.84159   0.65877   0.00000  Uiso   1.00
O1123  O     0.50532   0.82802   0.83749   0.00000  Uiso   1.00
O1124  O     0.64414   0.77038   0.99214   0.00000  Uiso   1.00
O1125  O     0.39665   0.86711   0.69465   0.00000  Uiso   1.00
O1126  O     0.63143   0.76110   0.58776   0.00000  Uiso   1.00
O1127  O     0.38149   0.81321   0.60052   0.00000  Uiso   1.00
O1128  O     0.51182   0.74768   0.77820   0.00000  Uiso   1.00
O1129  O     0.47914   0.92803   0.76767   0.00000  Uiso   1.00
O1130  O     0.40785   0.79917   0.73607   0.00000  Uiso   1.00
O1131  O     0.60119   0.85845   0.71805   0.00000  Uiso   1.00
O1132  O     0.40323   0.85627   0.77820   0.00000  Uiso   1.00
O1133  O     0.58773   0.81944   0.76767   0.00000  Uiso   1.00
O1134  O     0.47133   0.73570   0.73607   0.00000  Uiso   1.00
O1135  O     0.53771   0.92193   0.71805   0.00000  Uiso   1.00
Zn1136 Zn    0.52577   0.80756   0.78277   0.00000  Uiso   1.00
Zn1137 Zn    0.46792   0.79044   0.72257   0.00000  Uiso   1.00
Zn1138 Zn    0.54500   0.86331   0.71188   0.00000  Uiso   1.00
Zn1139 Zn    0.46131   0.87202   0.78277   0.00000  Uiso   1.00
C1140  C     0.71921   0.82625   0.75927   0.00000  Uiso   1.00
C1141  C     0.86339   0.79060   0.95803   0.00000  Uiso   1.00
C1142  C     0.88778   0.77413   0.97709   0.00000  Uiso   1.00
C1143  C     0.94793   0.83997   0.74081   0.00000  Uiso   1.00
C1144  C     0.88092   0.78273   0.51845   0.00000  Uiso   1.00
C1145  C     0.84415   0.80291   0.54057   0.00000  Uiso   1.00
C1146  C     0.90923   0.77152   0.53832   0.00000  Uiso   1.00
C1147  C     0.90012   0.77975   0.58013   0.00000  Uiso   1.00
C1148  C     0.83960   0.81575   0.58096   0.00000  Uiso   1.00
C1149  C     0.99435   0.84156   0.73541   0.00000  Uiso   1.00
C1150  C     0.67438   0.82505   0.76210   0.00000  Uiso   1.00
C1151  C     0.75654   0.86729   0.92152   0.00000  Uiso   1.00
C1152  C     0.84798   0.98891   0.73787   0.00000  Uiso   1.00
C1153  C     0.81859   0.67870   0.76198   0.00000  Uiso   1.00
C1154  C     0.82263   0.72277   0.75893   0.00000  Uiso   1.00
C1155  C     0.84366   0.94438   0.74126   0.00000  Uiso   1.00
C1156  C     0.85468   0.81230   0.64386   0.00000  Uiso   1.00
C1157  C     0.81187   0.85406   0.85641   0.00000  Uiso   1.00
C1158  C     0.79757   0.85646   0.90018   0.00000  Uiso   1.00
C1159  C     0.86515   0.80213   0.60086   0.00000  Uiso   1.00
C1160  C     0.74058   0.86229   0.96184   0.00000  Uiso   1.00
C1161  C     0.94834   0.75157   0.51601   0.00000  Uiso   1.00
C1162  C     0.82315   0.84241   0.92019   0.00000  Uiso   1.00
C1163  C     0.69098   0.86131   0.70011   0.00000  Uiso   1.00
C1164  C     0.92707   0.76661   0.60295   0.00000  Uiso   1.00
C1165  C     0.74769   0.80034   0.57853   0.00000  Uiso   1.00
C1166  C     0.80592   0.83306   0.96002   0.00000  Uiso   1.00
C1167  C     0.76454   0.84447   0.98132   0.00000  Uiso   1.00
C1168  C     0.82890   0.81319   0.97932   0.00000  Uiso   1.00
C1169  C     0.81466   0.81240   0.52097   0.00000  Uiso   1.00
C1170  C     0.77094   0.81871   0.54069   0.00000  Uiso   1.00
C1171  C     0.74695   0.83601   0.52103   0.00000  Uiso   1.00
F1172  F     0.70552   0.84269   0.54017   0.00000  Uiso   1.00
F1173  F     0.97961   0.80888   0.79467   0.00000  Uiso   1.00
F1174  F     0.88203   0.67317   0.71009   0.00000  Uiso   1.00
F1175  F     0.81275   0.84462   0.60079   0.00000  Uiso   1.00
F1176  F     0.91800   0.74995   0.95421   0.00000  Uiso   1.00
F1177  F     0.70078   0.87346   0.98124   0.00000  Uiso   1.00
F1178  F     0.73107   0.88147   0.90320   0.00000  Uiso   1.00
F1179  F     0.86556   0.84061   0.90103   0.00000  Uiso   1.00
H1180  H     0.79102   0.99861   0.78414   0.00000  Uiso   1.00
H1181  H     0.87023   0.78263   0.92642   0.00000  Uiso   1.00
H1182  H     0.95202   0.72072   0.52204   0.00000  Uiso   1.00
H1183  H     0.67794   0.87120   0.67845   0.00000  Uiso   1.00
H1184  H     0.91355   0.76274   0.63425   0.00000  Uiso   1.00
H1185  H     0.76007   0.77507   0.58720   0.00000  Uiso   1.00
O1186  O     0.83333   0.83333   0.75000   0.00000  Uiso   1.00
O1187  O     0.82360   0.79060   0.66625   0.00000  Uiso   1.00
O1188  O     0.79354   0.87313   0.83749   0.00000  Uiso   1.00
O1189  O     0.87755   0.84159   0.65877   0.00000  Uiso   1.00
O1190  O     0.83865   0.82802   0.83749   0.00000  Uiso   1.00
O1191  O     0.97747   0.77038   0.99214   0.00000  Uiso   1.00
O1192  O     0.72998   0.86711   0.69465   0.00000  Uiso   1.00
O1193  O     0.96476   0.76110   0.58776   0.00000  Uiso   1.00
O1194  O     0.71482   0.81321   0.60052   0.00000  Uiso   1.00
O1195  O     0.84515   0.74768   0.77820   0.00000  Uiso   1.00
O1196  O     0.81247   0.92803   0.76767   0.00000  Uiso   1.00
O1197  O     0.74119   0.79917   0.73607   0.00000  Uiso   1.00
O1198  O     0.93452   0.85845   0.71805   0.00000  Uiso   1.00
O1199  O     0.73656   0.85627   0.77820   0.00000  Uiso   1.00
O1200  O     0.92106   0.81944   0.76767   0.00000  Uiso   1.00
O1201  O     0.80467   0.73570   0.73607   0.00000  Uiso   1.00
O1202  O     0.87104   0.92193   0.71805   0.00000  Uiso   1.00
Zn1203 Zn    0.85910   0.80756   0.78277   0.00000  Uiso   1.00
Zn1204 Zn    0.80125   0.79044   0.72257   0.00000  Uiso   1.00
Zn1205 Zn    0.87833   0.86331   0.71188   0.00000  Uiso   1.00
Zn1206 Zn    0.79465   0.87202   0.78277   0.00000  Uiso   1.00
loop_
_geom_bond_atom_site_label_1
_geom_bond_atom_site_label_2
_geom_bond_distance
_geom_bond_site_symmetry_2
_ccdc_geom_bond_type
C1     C11     1.434   .     S
C1     O58     1.270   .     A
C1     O60     1.266   .     A
C2     C3      1.387   .     A
C2     H42     1.079   .     S
C2     C29     1.406   .     A
C3     F37     1.357   .     S
C3     C608    1.412   .     S
C4     O59     1.275   .     A
C4     C10     1.466   .     S
C4     O61     1.278   .     A
C5     C6      1.426   .     A
C5     C7      1.429   .     A
C5     C606    1.412   1_554 S
C6     C9      1.407   .     A
C6     C30     1.432   .     A
C7     C22     1.482   .     S
C7     C8      1.420   .     A
C8     C25     1.497   .     S
C8     C20     1.410   .     A
C9     F36     1.361   .     S
C9     C20     1.391   .     A
C10    C78     1.352   .     S
C10    C91     1.500   .     S
C11    C144    1.352   1_455 S
C11    F168    1.361   1_455 S
C12    F39     1.358   .     S
C12    C21     1.395   .     A
C12    C19     1.403   .     A
C13    C16     1.452   .     S
C13    C215    1.334   .     S
C13    F236    1.362   .     S
C14    C15     1.436   .     S
C14    C415    1.334   1_545 S
C14    H443    1.086   1_545 S
C15    O62     1.276   .     A
C15    O56     1.276   .     A
C16    O63     1.269   .     A
C16    O57     1.270   .     A
C17    O50     1.275   .     A
C17    O48     1.275   .     A
C17    C20     1.464   .     S
C18    O49     1.287   .     A
C18    O51     1.287   .     A
C18    C19     1.479   .     S
C19    C23     1.402   .     A
C21    C28     1.411   .     A
C21    F38     1.358   .     S
C22    H43     1.085   .     S
C22    O655    1.221   1_554 S
C23    C27     1.416   .     A
C23    F40     1.359   .     S
C24    H44     1.085   .     S
C24    O53     1.221   .     D
C24    C144    1.500   1_455 S
C25    H45     1.085   .     S
C25    O54     1.221   .     D
C26    O55     1.221   .     D
C26    H46     1.085   .     S
C26    C31     1.490   .     S
C27    C29     1.422   .     A
C27    C28     1.418   .     A
C28    C635    1.405   .     S
C29    C633    1.415   .     S
C30    C31     1.426   .     A
C30    C632    1.415   1_554 S
C31    C32     1.407   .     A
C32    F33     1.360   .     S
C32    C631    1.405   1_554 S
F34    C78     1.361   .     S
F35    C415    1.362   1_545 S
H41    C215    1.086   .     S
O47    Zn64    1.955   .     S
O47    Zn66    1.925   .     S
O47    Zn67    1.936   .     S
O47    Zn65    1.943   .     S
O48    Zn65    1.916   .     S
O49    Zn67    1.926   .     S
O50    Zn66    1.925   .     S
O51    Zn64    1.917   .     S
O52    C625    1.221   .     S
O56    Zn64    1.928   .     S
O57    Zn67    1.926   .     S
O58    Zn65    1.935   .     S
O59    Zn66    1.944   .     S
O60    Zn67    1.938   .     S
O61    Zn64    1.929   .     S
O62    Zn65    1.934   .     S
O63    Zn66    1.932   .     S
C68    C78     1.434   .     S
C68    O125    1.270   .     A
C68    O127    1.266   .     A
C69    C70     1.387   .     A
C69    H109    1.079   .     S
C69    C96     1.406   .     A
C70    F104    1.357   .     S
C70    C675    1.412   .     S
C71    O126    1.275   .     A
C71    C77     1.466   .     S
C71    O128    1.278   .     A
C72    C73     1.426   .     A
C72    C74     1.429   .     A
C72    C673    1.412   1_554 S
C73    C76     1.407   .     A
C73    C97     1.432   .     A
C74    C89     1.482   .     S
C74    C75     1.420   .     A
C75    C92     1.497   .     S
C75    C87     1.410   .     A
C76    F103    1.361   .     S
C76    C87     1.391   .     A
C77    C145    1.352   .     S
C77    C158    1.500   .     S
C79    F106    1.358   .     S
C79    C88     1.395   .     A
C79    C86     1.403   .     A
C80    C83     1.452   .     S
C80    C282    1.334   .     S
C80    F303    1.362   .     S
C81    C82     1.436   .     S
C81    C482    1.334   1_545 S
C81    H510    1.086   1_545 S
C82    O129    1.276   .     A
C82    O123    1.276   .     A
C83    O130    1.269   .     A
C83    O124    1.270   .     A
C84    O117    1.275   .     A
C84    O115    1.275   .     A
C84    C87     1.464   .     S
C85    O116    1.287   .     A
C85    O118    1.287   .     A
C85    C86     1.479   .     S
C86    C90     1.402   .     A
C88    C95     1.411   .     A
C88    F105    1.358   .     S
C89    H110    1.085   .     S
C89    O722    1.221   1_554 S
C90    C94     1.416   .     A
C90    F107    1.359   .     S
C91    H111    1.085   .     S
C91    O120    1.221   .     D
C92    H112    1.085   .     S
C92    O121    1.221   .     D
C93    O122    1.221   .     D
C93    H113    1.085   .     S
C93    C98     1.490   .     S
C94    C96     1.422   .     A
C94    C95     1.418   .     A
C95    C702    1.405   .     S
C96    C700    1.415   .     S
C97    C98     1.426   .     A
C97    C699    1.415   1_554 S
C98    C99     1.407   .     A
C99    F100    1.360   .     S
C99    C698    1.405   1_554 S
F101   C145    1.361   .     S
F102   C482    1.362   1_545 S
H108   C282    1.086   .     S
O114   Zn131   1.955   .     S
O114   Zn133   1.925   .     S
O114   Zn134   1.936   .     S
O114   Zn132   1.943   .     S
O115   Zn132   1.916   .     S
O116   Zn134   1.926   .     S
O117   Zn133   1.925   .     S
O118   Zn131   1.917   .     S
O119   C692    1.221   .     S
O123   Zn131   1.928   .     S
O124   Zn134   1.926   .     S
O125   Zn132   1.935   .     S
O126   Zn133   1.944   .     S
O127   Zn134   1.938   .     S
O128   Zn131   1.929   .     S
O129   Zn132   1.934   .     S
O130   Zn133   1.932   .     S
C135   C145    1.434   .     S
C135   O192    1.270   .     A
C135   O194    1.266   .     A
C136   C137    1.387   .     A
C136   H176    1.079   .     S
C136   C163    1.406   .     A
C137   F171    1.357   .     S
C137   C742    1.412   .     S
C138   O193    1.275   .     A
C138   C144    1.466   .     S
C138   O195    1.278   .     A
C139   C140    1.426   .     A
C139   C141    1.429   .     A
C139   C740    1.412   1_554 S
C140   C143    1.407   .     A
C140   C164    1.432   .     A
C141   C156    1.482   .     S
C141   C142    1.420   .     A
C142   C159    1.497   .     S
C142   C154    1.410   .     A
C143   F170    1.361   .     S
C143   C154    1.391   .     A
C144   C11     1.352   1_655 S
C144   C24     1.500   1_655 S
C146   F173    1.358   .     S
C146   C155    1.395   .     A
C146   C153    1.403   .     A
C147   C150    1.452   .     S
C147   C349    1.334   .     S
C147   F370    1.362   .     S
C148   C149    1.436   .     S
C148   C549    1.334   1_545 S
C148   H577    1.086   1_545 S
C149   O196    1.276   .     A
C149   O190    1.276   .     A
C150   O197    1.269   .     A
C150   O191    1.270   .     A
C151   O184    1.275   .     A
C151   O182    1.275   .     A
C151   C154    1.464   .     S
C152   O183    1.287   .     A
C152   O185    1.287   .     A
C152   C153    1.479   .     S
C153   C157    1.402   .     A
C155   C162    1.411   .     A
C155   F172    1.358   .     S
C156   H177    1.085   .     S
C156   O789    1.221   1_554 S
C157   C161    1.416   .     A
C157   F174    1.359   .     S
C158   H178    1.085   .     S
C158   O187    1.221   .     D
C159   H179    1.085   .     S
C159   O188    1.221   .     D
C160   O189    1.221   .     D
C160   H180    1.085   .     S
C160   C165    1.490   .     S
C161   C163    1.422   .     A
C161   C162    1.418   .     A
C162   C769    1.405   .     S
C163   C767    1.415   .     S
C164   C165    1.426   .     A
C164   C766    1.415   1_554 S
C165   C166    1.407   .     A
C166   F167    1.360   .     S
C166   C765    1.405   1_554 S
F168   C11     1.361   1_655 S
F169   C549    1.362   1_545 S
H175   C349    1.086   .     S
O181   Zn198   1.955   .     S
O181   Zn200   1.925   .     S
O181   Zn201   1.936   .     S
O181   Zn199   1.943   .     S
O182   Zn199   1.916   .     S
O183   Zn201   1.926   .     S
O184   Zn200   1.925   .     S
O185   Zn198   1.917   .     S
O186   C759    1.221   .     S
O190   Zn198   1.928   .     S
O191   Zn201   1.926   .     S
O192   Zn199   1.935   .     S
O193   Zn200   1.944   .     S
O194   Zn201   1.938   .     S
O195   Zn198   1.929   .     S
O196   Zn199   1.934   .     S
O197   Zn200   1.932   .     S
C202   C212    1.434   .     S
C202   O259    1.270   .     A
C202   O261    1.266   .     A
C203   C204    1.387   .     A
C203   H243    1.079   .     S
C203   C230    1.406   .     A
C204   F238    1.357   .     S
C204   C809    1.412   .     S
C205   O260    1.275   .     A
C205   C211    1.466   .     S
C205   O262    1.278   .     A
C206   C207    1.426   .     A
C206   C208    1.429   .     A
C206   C807    1.412   1_554 S
C207   C210    1.407   .     A
C207   C231    1.432   .     A
C208   C223    1.482   .     S
C208   C209    1.420   .     A
C209   C226    1.497   .     S
C209   C221    1.410   .     A
C210   F237    1.361   .     S
C210   C221    1.391   .     A
C211   C279    1.352   .     S
C211   C292    1.500   .     S
C212   C345    1.352   1_455 S
C212   F369    1.361   1_455 S
C213   F240    1.358   .     S
C213   C222    1.395   .     A
C213   C220    1.403   .     A
C214   C217    1.452   .     S
C214   C416    1.334   .     S
C214   F437    1.362   .     S
C215   C216    1.436   .     S
C216   O263    1.276   .     A
C216   O257    1.276   .     A
C217   O264    1.269   .     A
C217   O258    1.270   .     A
C218   O251    1.275   .     A
C218   O249    1.275   .     A
C218   C221    1.464   .     S
C219   O250    1.287   .     A
C219   O252    1.287   .     A
C219   C220    1.479   .     S
C220   C224    1.402   .     A
C222   C229    1.411   .     A
C222   F239    1.358   .     S
C223   H244    1.085   .     S
C223   O856    1.221   1_554 S
C224   C228    1.416   .     A
C224   F241    1.359   .     S
C225   H245    1.085   .     S
C225   O254    1.221   .     D
C225   C345    1.500   1_455 S
C226   H246    1.085   .     S
C226   O255    1.221   .     D
C227   O256    1.221   .     D
C227   H247    1.085   .     S
C227   C232    1.490   .     S
C228   C230    1.422   .     A
C228   C229    1.418   .     A
C229   C836    1.405   .     S
C230   C834    1.415   .     S
C231   C232    1.426   .     A
C231   C833    1.415   1_554 S
C232   C233    1.407   .     A
C233   F234    1.360   .     S
C233   C832    1.405   1_554 S
F235   C279    1.361   .     S
H242   C416    1.086   .     S
O248   Zn265   1.955   .     S
O248   Zn267   1.925   .     S
O248   Zn268   1.936   .     S
O248   Zn266   1.943   .     S
O249   Zn266   1.916   .     S
O250   Zn268   1.926   .     S
O251   Zn267   1.925   .     S
O252   Zn265   1.917   .     S
O253   C826    1.221   .     S
O257   Zn265   1.928   .     S
O258   Zn268   1.926   .     S
O259   Zn266   1.935   .     S
O260   Zn267   1.944   .     S
O261   Zn268   1.938   .     S
O262   Zn265   1.929   .     S
O263   Zn266   1.934   .     S
O264   Zn267   1.932   .     S
C269   C279    1.434   .     S
C269   O326    1.270   .     A
C269   O328    1.266   .     A
C270   C271    1.387   .     A
C270   H310    1.079   .     S
C270   C297    1.406   .     A
C271   F305    1.357   .     S
C271   C876    1.412   .     S
C272   O327    1.275   .     A
C272   C278    1.466   .     S
C272   O329    1.278   .     A
C273   C274    1.426   .     A
C273   C275    1.429   .     A
C273   C874    1.412   1_554 S
C274   C277    1.407   .     A
C274   C298    1.432   .     A
C275   C290    1.482   .     S
C275   C276    1.420   .     A
C276   C293    1.497   .     S
C276   C288    1.410   .     A
C277   F304    1.361   .     S
C277   C288    1.391   .     A
C278   C346    1.352   .     S
C278   C359    1.500   .     S
C280   F307    1.358   .     S
C280   C289    1.395   .     A
C280   C287    1.403   .     A
C281   C284    1.452   .     S
C281   C483    1.334   .     S
C281   F504    1.362   .     S
C282   C283    1.436   .     S
C283   O330    1.276   .     A
C283   O324    1.276   .     A
C284   O331    1.269   .     A
C284   O325    1.270   .     A
C285   O318    1.275   .     A
C285   O316    1.275   .     A
C285   C288    1.464   .     S
C286   O317    1.287   .     A
C286   O319    1.287   .     A
C286   C287    1.479   .     S
C287   C291    1.402   .     A
C289   C296    1.411   .     A
C289   F306    1.358   .     S
C290   H311    1.085   .     S
C290   O923    1.221   1_554 S
C291   C295    1.416   .     A
C291   F308    1.359   .     S
C292   H312    1.085   .     S
C292   O321    1.221   .     D
C293   H313    1.085   .     S
C293   O322    1.221   .     D
C294   O323    1.221   .     D
C294   H314    1.085   .     S
C294   C299    1.490   .     S
C295   C297    1.422   .     A
C295   C296    1.418   .     A
C296   C903    1.405   .     S
C297   C901    1.415   .     S
C298   C299    1.426   .     A
C298   C900    1.415   1_554 S
C299   C300    1.407   .     A
C300   F301    1.360   .     S
C300   C899    1.405   1_554 S
F302   C346    1.361   .     S
H309   C483    1.086   .     S
O315   Zn332   1.955   .     S
O315   Zn334   1.925   .     S
O315   Zn335   1.936   .     S
O315   Zn333   1.943   .     S
O316   Zn333   1.916   .     S
O317   Zn335   1.926   .     S
O318   Zn334   1.925   .     S
O319   Zn332   1.917   .     S
O320   C893    1.221   .     S
O324   Zn332   1.928   .     S
O325   Zn335   1.926   .     S
O326   Zn333   1.935   .     S
O327   Zn334   1.944   .     S
O328   Zn335   1.938   .     S
O329   Zn332   1.929   .     S
O330   Zn333   1.934   .     S
O331   Zn334   1.932   .     S
C336   C346    1.434   .     S
C336   O393    1.270   .     A
C336   O395    1.266   .     A
C337   C338    1.387   .     A
C337   H377    1.079   .     S
C337   C364    1.406   .     A
C338   F372    1.357   .     S
C338   C943    1.412   .     S
C339   O394    1.275   .     A
C339   C345    1.466   .     S
C339   O396    1.278   .     A
C340   C341    1.426   .     A
C340   C342    1.429   .     A
C340   C941    1.412   1_554 S
C341   C344    1.407   .     A
C341   C365    1.432   .     A
C342   C357    1.482   .     S
C342   C343    1.420   .     A
C343   C360    1.497   .     S
C343   C355    1.410   .     A
C344   F371    1.361   .     S
C344   C355    1.391   .     A
C345   C212    1.352   1_655 S
C345   C225    1.500   1_655 S
C347   F374    1.358   .     S
C347   C356    1.395   .     A
C347   C354    1.403   .     A
C348   C351    1.452   .     S
C348   C550    1.334   .     S
C348   F571    1.362   .     S
C349   C350    1.436   .     S
C350   O397    1.276   .     A
C350   O391    1.276   .     A
C351   O398    1.269   .     A
C351   O392    1.270   .     A
C352   O385    1.275   .     A
C352   O383    1.275   .     A
C352   C355    1.464   .     S
C353   O384    1.287   .     A
C353   O386    1.287   .     A
C353   C354    1.479   .     S
C354   C358    1.402   .     A
C356   C363    1.411   .     A
C356   F373    1.358   .     S
C357   H378    1.085   .     S
C357   O990    1.221   1_554 S
C358   C362    1.416   .     A
C358   F375    1.359   .     S
C359   H379    1.085   .     S
C359   O388    1.221   .     D
C360   H380    1.085   .     S
C360   O389    1.221   .     D
C361   O390    1.221   .     D
C361   H381    1.085   .     S
C361   C366    1.490   .     S
C362   C364    1.422   .     A
C362   C363    1.418   .     A
C363   C970    1.405   .     S
C364   C968    1.415   .     S
C365   C366    1.426   .     A
C365   C967    1.415   1_554 S
C366   C367    1.407   .     A
C367   F368    1.360   .     S
C367   C966    1.405   1_554 S
F369   C212    1.361   1_655 S
H376   C550    1.086   .     S
O382   Zn399   1.955   .     S
O382   Zn401   1.925   .     S
O382   Zn402   1.936   .     S
O382   Zn400   1.943   .     S
O383   Zn400   1.916   .     S
O384   Zn402   1.926   .     S
O385   Zn401   1.925   .     S
O386   Zn399   1.917   .     S
O387   C960    1.221   .     S
O391   Zn399   1.928   .     S
O392   Zn402   1.926   .     S
O393   Zn400   1.935   .     S
O394   Zn401   1.944   .     S
O395   Zn402   1.938   .     S
O396   Zn399   1.929   .     S
O397   Zn400   1.934   .     S
O398   Zn401   1.932   .     S
C403   C413    1.434   .     S
C403   O460    1.270   .     A
C403   O462    1.266   .     A
C404   C405    1.387   .     A
C404   H444    1.079   .     S
C404   C431    1.406   .     A
C405   F439    1.357   .     S
C405   C1010   1.412   .     S
C406   O461    1.275   .     A
C406   C412    1.466   .     S
C406   O463    1.278   .     A
C407   C408    1.426   .     A
C407   C409    1.429   .     A
C407   C1008   1.412   1_554 S
C408   C411    1.407   .     A
C408   C432    1.432   .     A
C409   C424    1.482   .     S
C409   C410    1.420   .     A
C410   C427    1.497   .     S
C410   C422    1.410   .     A
C411   F438    1.361   .     S
C411   C422    1.391   .     A
C412   C480    1.352   .     S
C412   C493    1.500   .     S
C413   C546    1.352   1_455 S
C413   F570    1.361   1_455 S
C414   F441    1.358   .     S
C414   C423    1.395   .     A
C414   C421    1.403   .     A
C415   C418    1.452   .     S
C415   C14     1.334   1_565 S
C415   F35     1.362   1_565 S
C416   C417    1.436   .     S
C417   O464    1.276   .     A
C417   O458    1.276   .     A
C418   O465    1.269   .     A
C418   O459    1.270   .     A
C419   O452    1.275   .     A
C419   O450    1.275   .     A
C419   C422    1.464   .     S
C420   O451    1.287   .     A
C420   O453    1.287   .     A
C420   C421    1.479   .     S
C421   C425    1.402   .     A
C423   C430    1.411   .     A
C423   F440    1.358   .     S
C424   H445    1.085   .     S
C424   O1057   1.221   1_554 S
C425   C429    1.416   .     A
C425   F442    1.359   .     S
C426   H446    1.085   .     S
C426   O455    1.221   .     D
C426   C546    1.500   1_455 S
C427   H447    1.085   .     S
C427   O456    1.221   .     D
C428   O457    1.221   .     D
C428   H448    1.085   .     S
C428   C433    1.490   .     S
C429   C431    1.422   .     A
C429   C430    1.418   .     A
C430   C1037   1.405   .     S
C431   C1035   1.415   .     S
C432   C433    1.426   .     A
C432   C1034   1.415   1_554 S
C433   C434    1.407   .     A
C434   F435    1.360   .     S
C434   C1033   1.405   1_554 S
F436   C480    1.361   .     S
H443   C14     1.086   1_565 S
O449   Zn466   1.955   .     S
O449   Zn468   1.925   .     S
O449   Zn469   1.936   .     S
O449   Zn467   1.943   .     S
O450   Zn467   1.916   .     S
O451   Zn469   1.926   .     S
O452   Zn468   1.925   .     S
O453   Zn466   1.917   .     S
O454   C1027   1.221   .     S
O458   Zn466   1.928   .     S
O459   Zn469   1.926   .     S
O460   Zn467   1.935   .     S
O461   Zn468   1.944   .     S
O462   Zn469   1.938   .     S
O463   Zn466   1.929   .     S
O464   Zn467   1.934   .     S
O465   Zn468   1.932   .     S
C470   C480    1.434   .     S
C470   O527    1.270   .     A
C470   O529    1.266   .     A
C471   C472    1.387   .     A
C471   H511    1.079   .     S
C471   C498    1.406   .     A
C472   F506    1.357   .     S
C472   C1077   1.412   .     S
C473   O528    1.275   .     A
C473   C479    1.466   .     S
C473   O530    1.278   .     A
C474   C475    1.426   .     A
C474   C476    1.429   .     A
C474   C1075   1.412   1_554 S
C475   C478    1.407   .     A
C475   C499    1.432   .     A
C476   C491    1.482   .     S
C476   C477    1.420   .     A
C477   C494    1.497   .     S
C477   C489    1.410   .     A
C478   F505    1.361   .     S
C478   C489    1.391   .     A
C479   C547    1.352   .     S
C479   C560    1.500   .     S
C481   F508    1.358   .     S
C481   C490    1.395   .     A
C481   C488    1.403   .     A
C482   C485    1.452   .     S
C482   C81     1.334   1_565 S
C482   F102    1.362   1_565 S
C483   C484    1.436   .     S
C484   O531    1.276   .     A
C484   O525    1.276   .     A
C485   O532    1.269   .     A
C485   O526    1.270   .     A
C486   O519    1.275   .     A
C486   O517    1.275   .     A
C486   C489    1.464   .     S
C487   O518    1.287   .     A
C487   O520    1.287   .     A
C487   C488    1.479   .     S
C488   C492    1.402   .     A
C490   C497    1.411   .     A
C490   F507    1.358   .     S
C491   H512    1.085   .     S
C491   O1124   1.221   1_554 S
C492   C496    1.416   .     A
C492   F509    1.359   .     S
C493   H513    1.085   .     S
C493   O522    1.221   .     D
C494   H514    1.085   .     S
C494   O523    1.221   .     D
C495   O524    1.221   .     D
C495   H515    1.085   .     S
C495   C500    1.490   .     S
C496   C498    1.422   .     A
C496   C497    1.418   .     A
C497   C1104   1.405   .     S
C498   C1102   1.415   .     S
C499   C500    1.426   .     A
C499   C1101   1.415   1_554 S
C500   C501    1.407   .     A
C501   F502    1.360   .     S
C501   C1100   1.405   1_554 S
F503   C547    1.361   .     S
H510   C81     1.086   1_565 S
O516   Zn533   1.955   .     S
O516   Zn535   1.925   .     S
O516   Zn536   1.936   .     S
O516   Zn534   1.943   .     S
O517   Zn534   1.916   .     S
O518   Zn536   1.926   .     S
O519   Zn535   1.925   .     S
O520   Zn533   1.917   .     S
O521   C1094   1.221   .     S
O525   Zn533   1.928   .     S
O526   Zn536   1.926   .     S
O527   Zn534   1.935   .     S
O528   Zn535   1.944   .     S
O529   Zn536   1.938   .     S
O530   Zn533   1.929   .     S
O531   Zn534   1.934   .     S
O532   Zn535   1.932   .     S
C537   C547    1.434   .     S
C537   O594    1.270   .     A
C537   O596    1.266   .     A
C538   C539    1.387   .     A
C538   H578    1.079   .     S
C538   C565    1.406   .     A
C539   F573    1.357   .     S
C539   C1144   1.412   .     S
C540   O595    1.275   .     A
C540   C546    1.466   .     S
C540   O597    1.278   .     A
C541   C542    1.426   .     A
C541   C543    1.429   .     A
C541   C1142   1.412   1_554 S
C542   C545    1.407   .     A
C542   C566    1.432   .     A
C543   C558    1.482   .     S
C543   C544    1.420   .     A
C544   C561    1.497   .     S
C544   C556    1.410   .     A
C545   F572    1.361   .     S
C545   C556    1.391   .     A
C546   C413    1.352   1_655 S
C546   C426    1.500   1_655 S
C548   F575    1.358   .     S
C548   C557    1.395   .     A
C548   C555    1.403   .     A
C549   C552    1.452   .     S
C549   C148    1.334   1_565 S
C549   F169    1.362   1_565 S
C550   C551    1.436   .     S
C551   O598    1.276   .     A
C551   O592    1.276   .     A
C552   O599    1.269   .     A
C552   O593    1.270   .     A
C553   O586    1.275   .     A
C553   O584    1.275   .     A
C553   C556    1.464   .     S
C554   O585    1.287   .     A
C554   O587    1.287   .     A
C554   C555    1.479   .     S
C555   C559    1.402   .     A
C557   C564    1.411   .     A
C557   F574    1.358   .     S
C558   H579    1.085   .     S
C558   O1191   1.221   1_554 S
C559   C563    1.416   .     A
C559   F576    1.359   .     S
C560   H580    1.085   .     S
C560   O589    1.221   .     D
C561   H581    1.085   .     S
C561   O590    1.221   .     D
C562   O591    1.221   .     D
C562   H582    1.085   .     S
C562   C567    1.490   .     S
C563   C565    1.422   .     A
C563   C564    1.418   .     A
C564   C1171   1.405   .     S
C565   C1169   1.415   .     S
C566   C567    1.426   .     A
C566   C1168   1.415   1_554 S
C567   C568    1.407   .     A
C568   F569    1.360   .     S
C568   C1167   1.405   1_554 S
F570   C413    1.361   1_655 S
H577   C148    1.086   1_565 S
O583   Zn600   1.955   .     S
O583   Zn602   1.925   .     S
O583   Zn603   1.936   .     S
O583   Zn601   1.943   .     S
O584   Zn601   1.916   .     S
O585   Zn603   1.926   .     S
O586   Zn602   1.925   .     S
O587   Zn600   1.917   .     S
O588   C1161   1.221   .     S
O592   Zn600   1.928   .     S
O593   Zn603   1.926   .     S
O594   Zn601   1.935   .     S
O595   Zn602   1.944   .     S
O596   Zn603   1.938   .     S
O597   Zn600   1.929   .     S
O598   Zn601   1.934   .     S
O599   Zn602   1.932   .     S
C604   C614    1.434   .     S
C604   O661    1.270   .     A
C604   O663    1.266   .     A
C605   C606    1.387   .     A
C605   H645    1.079   .     S
C605   C632    1.406   .     A
C606   F640    1.357   .     S
C606   C5      1.412   1_556 S
C607   O662    1.275   .     A
C607   C613    1.466   .     S
C607   O664    1.278   .     A
C608   C609    1.426   .     A
C608   C610    1.429   .     A
C609   C612    1.407   .     A
C609   C633    1.432   .     A
C610   C625    1.482   .     S
C610   C611    1.420   .     A
C611   C628    1.497   .     S
C611   C623    1.410   .     A
C612   F639    1.361   .     S
C612   C623    1.391   .     A
C613   C681    1.352   .     S
C613   C694    1.500   .     S
C614   C747    1.352   1_455 S
C614   F771    1.361   1_455 S
C615   F642    1.358   .     S
C615   C624    1.395   .     A
C615   C622    1.403   .     A
C616   C619    1.452   .     S
C616   C818    1.334   .     S
C616   F839    1.362   .     S
C617   C618    1.436   .     S
C617   C1018   1.334   1_545 S
C617   H1046   1.086   1_545 S
C618   O665    1.276   .     A
C618   O659    1.276   .     A
C619   O666    1.269   .     A
C619   O660    1.270   .     A
C620   O653    1.275   .     A
C620   O651    1.275   .     A
C620   C623    1.464   .     S
C621   O652    1.287   .     A
C621   O654    1.287   .     A
C621   C622    1.479   .     S
C622   C626    1.402   .     A
C624   C631    1.411   .     A
C624   F641    1.358   .     S
C625   H646    1.085   .     S
C626   C630    1.416   .     A
C626   F643    1.359   .     S
C627   H647    1.085   .     S
C627   O656    1.221   .     D
C627   C747    1.500   1_455 S
C628   H648    1.085   .     S
C628   O657    1.221   .     D
C629   O658    1.221   .     D
C629   H649    1.085   .     S
C629   C634    1.490   .     S
C630   C632    1.422   .     A
C630   C631    1.418   .     A
C631   C32     1.405   1_556 S
C632   C30     1.415   1_556 S
C633   C634    1.426   .     A
C634   C635    1.407   .     A
C635   F636    1.360   .     S
F637   C681    1.361   .     S
F638   C1018   1.362   1_545 S
H644   C818    1.086   .     S
O650   Zn667   1.955   .     S
O650   Zn669   1.925   .     S
O650   Zn670   1.936   .     S
O650   Zn668   1.943   .     S
O651   Zn668   1.916   .     S
O652   Zn670   1.926   .     S
O653   Zn669   1.925   .     S
O654   Zn667   1.917   .     S
O655   C22     1.221   1_556 S
O659   Zn667   1.928   .     S
O660   Zn670   1.926   .     S
O661   Zn668   1.935   .     S
O662   Zn669   1.944   .     S
O663   Zn670   1.938   .     S
O664   Zn667   1.929   .     S
O665   Zn668   1.934   .     S
O666   Zn669   1.932   .     S
C671   C681    1.434   .     S
C671   O728    1.270   .     A
C671   O730    1.266   .     A
C672   C673    1.387   .     A
C672   H712    1.079   .     S
C672   C699    1.406   .     A
C673   F707    1.357   .     S
C673   C72     1.412   1_556 S
C674   O729    1.275   .     A
C674   C680    1.466   .     S
C674   O731    1.278   .     A
C675   C676    1.426   .     A
C675   C677    1.429   .     A
C676   C679    1.407   .     A
C676   C700    1.432   .     A
C677   C692    1.482   .     S
C677   C678    1.420   .     A
C678   C695    1.497   .     S
C678   C690    1.410   .     A
C679   F706    1.361   .     S
C679   C690    1.391   .     A
C680   C748    1.352   .     S
C680   C761    1.500   .     S
C682   F709    1.358   .     S
C682   C691    1.395   .     A
C682   C689    1.403   .     A
C683   C686    1.452   .     S
C683   C885    1.334   .     S
C683   F906    1.362   .     S
C684   C685    1.436   .     S
C684   C1085   1.334   1_545 S
C684   H1113   1.086   1_545 S
C685   O732    1.276   .     A
C685   O726    1.276   .     A
C686   O733    1.269   .     A
C686   O727    1.270   .     A
C687   O720    1.275   .     A
C687   O718    1.275   .     A
C687   C690    1.464   .     S
C688   O719    1.287   .     A
C688   O721    1.287   .     A
C688   C689    1.479   .     S
C689   C693    1.402   .     A
C691   C698    1.411   .     A
C691   F708    1.358   .     S
C692   H713    1.085   .     S
C693   C697    1.416   .     A
C693   F710    1.359   .     S
C694   H714    1.085   .     S
C694   O723    1.221   .     D
C695   H715    1.085   .     S
C695   O724    1.221   .     D
C696   O725    1.221   .     D
C696   H716    1.085   .     S
C696   C701    1.490   .     S
C697   C699    1.422   .     A
C697   C698    1.418   .     A
C698   C99     1.405   1_556 S
C699   C97     1.415   1_556 S
C700   C701    1.426   .     A
C701   C702    1.407   .     A
C702   F703    1.360   .     S
F704   C748    1.361   .     S
F705   C1085   1.362   1_545 S
H711   C885    1.086   .     S
O717   Zn734   1.955   .     S
O717   Zn736   1.925   .     S
O717   Zn737   1.936   .     S
O717   Zn735   1.943   .     S
O718   Zn735   1.916   .     S
O719   Zn737   1.926   .     S
O720   Zn736   1.925   .     S
O721   Zn734   1.917   .     S
O722   C89     1.221   1_556 S
O726   Zn734   1.928   .     S
O727   Zn737   1.926   .     S
O728   Zn735   1.935   .     S
O729   Zn736   1.944   .     S
O730   Zn737   1.938   .     S
O731   Zn734   1.929   .     S
O732   Zn735   1.934   .     S
O733   Zn736   1.932   .     S
C738   C748    1.434   .     S
C738   O795    1.270   .     A
C738   O797    1.266   .     A
C739   C740    1.387   .     A
C739   H779    1.079   .     S
C739   C766    1.406   .     A
C740   F774    1.357   .     S
C740   C139    1.412   1_556 S
C741   O796    1.275   .     A
C741   C747    1.466   .     S
C741   O798    1.278   .     A
C742   C743    1.426   .     A
C742   C744    1.429   .     A
C743   C746    1.407   .     A
C743   C767    1.432   .     A
C744   C759    1.482   .     S
C744   C745    1.420   .     A
C745   C762    1.497   .     S
C745   C757    1.410   .     A
C746   F773    1.361   .     S
C746   C757    1.391   .     A
C747   C614    1.352   1_655 S
C747   C627    1.500   1_655 S
C749   F776    1.358   .     S
C749   C758    1.395   .     A
C749   C756    1.403   .     A
C750   C753    1.452   .     S
C750   C952    1.334   .     S
C750   F973    1.362   .     S
C751   C752    1.436   .     S
C751   C1152   1.334   1_545 S
C751   H1180   1.086   1_545 S
C752   O799    1.276   .     A
C752   O793    1.276   .     A
C753   O800    1.269   .     A
C753   O794    1.270   .     A
C754   O787    1.275   .     A
C754   O785    1.275   .     A
C754   C757    1.464   .     S
C755   O786    1.287   .     A
C755   O788    1.287   .     A
C755   C756    1.479   .     S
C756   C760    1.402   .     A
C758   C765    1.411   .     A
C758   F775    1.358   .     S
C759   H780    1.085   .     S
C760   C764    1.416   .     A
C760   F777    1.359   .     S
C761   H781    1.085   .     S
C761   O790    1.221   .     D
C762   H782    1.085   .     S
C762   O791    1.221   .     D
C763   O792    1.221   .     D
C763   H783    1.085   .     S
C763   C768    1.490   .     S
C764   C766    1.422   .     A
C764   C765    1.418   .     A
C765   C166    1.405   1_556 S
C766   C164    1.415   1_556 S
C767   C768    1.426   .     A
C768   C769    1.407   .     A
C769   F770    1.360   .     S
F771   C614    1.361   1_655 S
F772   C1152   1.362   1_545 S
H778   C952    1.086   .     S
O784   Zn801   1.955   .     S
O784   Zn803   1.925   .     S
O784   Zn804   1.936   .     S
O784   Zn802   1.943   .     S
O785   Zn802   1.916   .     S
O786   Zn804   1.926   .     S
O787   Zn803   1.925   .     S
O788   Zn801   1.917   .     S
O789   C156    1.221   1_556 S
O793   Zn801   1.928   .     S
O794   Zn804   1.926   .     S
O795   Zn802   1.935   .     S
O796   Zn803   1.944   .     S
O797   Zn804   1.938   .     S
O798   Zn801   1.929   .     S
O799   Zn802   1.934   .     S
O800   Zn803   1.932   .     S
C805   C815    1.434   .     S
C805   O862    1.270   .     A
C805   O864    1.266   .     A
C806   C807    1.387   .     A
C806   H846    1.079   .     S
C806   C833    1.406   .     A
C807   F841    1.357   .     S
C807   C206    1.412   1_556 S
C808   O863    1.275   .     A
C808   C814    1.466   .     S
C808   O865    1.278   .     A
C809   C810    1.426   .     A
C809   C811    1.429   .     A
C810   C813    1.407   .     A
C810   C834    1.432   .     A
C811   C826    1.482   .     S
C811   C812    1.420   .     A
C812   C829    1.497   .     S
C812   C824    1.410   .     A
C813   F840    1.361   .     S
C813   C824    1.391   .     A
C814   C882    1.352   .     S
C814   C895    1.500   .     S
C815   C948    1.352   1_455 S
C815   F972    1.361   1_455 S
C816   F843    1.358   .     S
C816   C825    1.395   .     A
C816   C823    1.403   .     A
C817   C820    1.452   .     S
C817   C1019   1.334   .     S
C817   F1040   1.362   .     S
C818   C819    1.436   .     S
C819   O866    1.276   .     A
C819   O860    1.276   .     A
C820   O867    1.269   .     A
C820   O861    1.270   .     A
C821   O854    1.275   .     A
C821   O852    1.275   .     A
C821   C824    1.464   .     S
C822   O853    1.287   .     A
C822   O855    1.287   .     A
C822   C823    1.479   .     S
C823   C827    1.402   .     A
C825   C832    1.411   .     A
C825   F842    1.358   .     S
C826   H847    1.085   .     S
C827   C831    1.416   .     A
C827   F844    1.359   .     S
C828   H848    1.085   .     S
C828   O857    1.221   .     D
C828   C948    1.500   1_455 S
C829   H849    1.085   .     S
C829   O858    1.221   .     D
C830   O859    1.221   .     D
C830   H850    1.085   .     S
C830   C835    1.490   .     S
C831   C833    1.422   .     A
C831   C832    1.418   .     A
C832   C233    1.405   1_556 S
C833   C231    1.415   1_556 S
C834   C835    1.426   .     A
C835   C836    1.407   .     A
C836   F837    1.360   .     S
F838   C882    1.361   .     S
H845   C1019   1.086   .     S
O851   Zn868   1.955   .     S
O851   Zn870   1.925   .     S
O851   Zn871   1.936   .     S
O851   Zn869   1.943   .     S
O852   Zn869   1.916   .     S
O853   Zn871   1.926   .     S
O854   Zn870   1.925   .     S
O855   Zn868   1.917   .     S
O856   C223    1.221   1_556 S
O860   Zn868   1.928   .     S
O861   Zn871   1.926   .     S
O862   Zn869   1.935   .     S
O863   Zn870   1.944   .     S
O864   Zn871   1.938   .     S
O865   Zn868   1.929   .     S
O866   Zn869   1.934   .     S
O867   Zn870   1.932   .     S
C872   C882    1.434   .     S
C872   O929    1.270   .     A
C872   O931    1.266   .     A
C873   C874    1.387   .     A
C873   H913    1.079   .     S
C873   C900    1.406   .     A
C874   F908    1.357   .     S
C874   C273    1.412   1_556 S
C875   O930    1.275   .     A
C875   C881    1.466   .     S
C875   O932    1.278   .     A
C876   C877    1.426   .     A
C876   C878    1.429   .     A
C877   C880    1.407   .     A
C877   C901    1.432   .     A
C878   C893    1.482   .     S
C878   C879    1.420   .     A
C879   C896    1.497   .     S
C879   C891    1.410   .     A
C880   F907    1.361   .     S
C880   C891    1.391   .     A
C881   C949    1.352   .     S
C881   C962    1.500   .     S
C883   F910    1.358   .     S
C883   C892    1.395   .     A
C883   C890    1.403   .     A
C884   C887    1.452   .     S
C884   C1086   1.334   .     S
C884   F1107   1.362   .     S
C885   C886    1.436   .     S
C886   O933    1.276   .     A
C886   O927    1.276   .     A
C887   O934    1.269   .     A
C887   O928    1.270   .     A
C888   O921    1.275   .     A
C888   O919    1.275   .     A
C888   C891    1.464   .     S
C889   O920    1.287   .     A
C889   O922    1.287   .     A
C889   C890    1.479   .     S
C890   C894    1.402   .     A
C892   C899    1.411   .     A
C892   F909    1.358   .     S
C893   H914    1.085   .     S
C894   C898    1.416   .     A
C894   F911    1.359   .     S
C895   H915    1.085   .     S
C895   O924    1.221   .     D
C896   H916    1.085   .     S
C896   O925    1.221   .     D
C897   O926    1.221   .     D
C897   H917    1.085   .     S
C897   C902    1.490   .     S
C898   C900    1.422   .     A
C898   C899    1.418   .     A
C899   C300    1.405   1_556 S
C900   C298    1.415   1_556 S
C901   C902    1.426   .     A
C902   C903    1.407   .     A
C903   F904    1.360   .     S
F905   C949    1.361   .     S
H912   C1086   1.086   .     S
O918   Zn935   1.955   .     S
O918   Zn937   1.925   .     S
O918   Zn938   1.936   .     S
O918   Zn936   1.943   .     S
O919   Zn936   1.916   .     S
O920   Zn938   1.926   .     S
O921   Zn937   1.925   .     S
O922   Zn935   1.917   .     S
O923   C290    1.221   1_556 S
O927   Zn935   1.928   .     S
O928   Zn938   1.926   .     S
O929   Zn936   1.935   .     S
O930   Zn937   1.944   .     S
O931   Zn938   1.938   .     S
O932   Zn935   1.929   .     S
O933   Zn936   1.934   .     S
O934   Zn937   1.932   .     S
C939   C949    1.434   .     S
C939   O996    1.270   .     A
C939   O998    1.266   .     A
C940   C941    1.387   .     A
C940   H980    1.079   .     S
C940   C967    1.406   .     A
C941   F975    1.357   .     S
C941   C340    1.412   1_556 S
C942   O997    1.275   .     A
C942   C948    1.466   .     S
C942   O999    1.278   .     A
C943   C944    1.426   .     A
C943   C945    1.429   .     A
C944   C947    1.407   .     A
C944   C968    1.432   .     A
C945   C960    1.482   .     S
C945   C946    1.420   .     A
C946   C963    1.497   .     S
C946   C958    1.410   .     A
C947   F974    1.361   .     S
C947   C958    1.391   .     A
C948   C815    1.352   1_655 S
C948   C828    1.500   1_655 S
C950   F977    1.358   .     S
C950   C959    1.395   .     A
C950   C957    1.403   .     A
C951   C954    1.452   .     S
C951   C1153   1.334   .     S
C951   F1174   1.362   .     S
C952   C953    1.436   .     S
C953   O1000   1.276   .     A
C953   O994    1.276   .     A
C954   O1001   1.269   .     A
C954   O995    1.270   .     A
C955   O988    1.275   .     A
C955   O986    1.275   .     A
C955   C958    1.464   .     S
C956   O987    1.287   .     A
C956   O989    1.287   .     A
C956   C957    1.479   .     S
C957   C961    1.402   .     A
C959   C966    1.411   .     A
C959   F976    1.358   .     S
C960   H981    1.085   .     S
C961   C965    1.416   .     A
C961   F978    1.359   .     S
C962   H982    1.085   .     S
C962   O991    1.221   .     D
C963   H983    1.085   .     S
C963   O992    1.221   .     D
C964   O993    1.221   .     D
C964   H984    1.085   .     S
C964   C969    1.490   .     S
C965   C967    1.422   .     A
C965   C966    1.418   .     A
C966   C367    1.405   1_556 S
C967   C365    1.415   1_556 S
C968   C969    1.426   .     A
C969   C970    1.407   .     A
C970   F971    1.360   .     S
F972   C815    1.361   1_655 S
H979   C1153   1.086   .     S
O985   Zn1002  1.955   .     S
O985   Zn1004  1.925   .     S
O985   Zn1005  1.936   .     S
O985   Zn1003  1.943   .     S
O986   Zn1003  1.916   .     S
O987   Zn1005  1.926   .     S
O988   Zn1004  1.925   .     S
O989   Zn1002  1.917   .     S
O990   C357    1.221   1_556 S
O994   Zn1002  1.928   .     S
O995   Zn1005  1.926   .     S
O996   Zn1003  1.935   .     S
O997   Zn1004  1.944   .     S
O998   Zn1005  1.938   .     S
O999   Zn1002  1.929   .     S
O1000  Zn1003  1.934   .     S
O1001  Zn1004  1.932   .     S
C1006  C1016   1.434   .     S
C1006  O1063   1.270   .     A
C1006  O1065   1.266   .     A
C1007  C1008   1.387   .     A
C1007  H1047   1.079   .     S
C1007  C1034   1.406   .     A
C1008  F1042   1.357   .     S
C1008  C407    1.412   1_556 S
C1009  O1064   1.275   .     A
C1009  C1015   1.466   .     S
C1009  O1066   1.278   .     A
C1010  C1011   1.426   .     A
C1010  C1012   1.429   .     A
C1011  C1014   1.407   .     A
C1011  C1035   1.432   .     A
C1012  C1027   1.482   .     S
C1012  C1013   1.420   .     A
C1013  C1030   1.497   .     S
C1013  C1025   1.410   .     A
C1014  F1041   1.361   .     S
C1014  C1025   1.391   .     A
C1015  C1083   1.352   .     S
C1015  C1096   1.500   .     S
C1016  C1149   1.352   1_455 S
C1016  F1173   1.361   1_455 S
C1017  F1044   1.358   .     S
C1017  C1026   1.395   .     A
C1017  C1024   1.403   .     A
C1018  C1021   1.452   .     S
C1018  C617    1.334   1_565 S
C1018  F638    1.362   1_565 S
C1019  C1020   1.436   .     S
C1020  O1067   1.276   .     A
C1020  O1061   1.276   .     A
C1021  O1068   1.269   .     A
C1021  O1062   1.270   .     A
C1022  O1055   1.275   .     A
C1022  O1053   1.275   .     A
C1022  C1025   1.464   .     S
C1023  O1054   1.287   .     A
C1023  O1056   1.287   .     A
C1023  C1024   1.479   .     S
C1024  C1028   1.402   .     A
C1026  C1033   1.411   .     A
C1026  F1043   1.358   .     S
C1027  H1048   1.085   .     S
C1028  C1032   1.416   .     A
C1028  F1045   1.359   .     S
C1029  H1049   1.085   .     S
C1029  O1058   1.221   .     D
C1029  C1149   1.500   1_455 S
C1030  H1050   1.085   .     S
C1030  O1059   1.221   .     D
C1031  O1060   1.221   .     D
C1031  H1051   1.085   .     S
C1031  C1036   1.490   .     S
C1032  C1034   1.422   .     A
C1032  C1033   1.418   .     A
C1033  C434    1.405   1_556 S
C1034  C432    1.415   1_556 S
C1035  C1036   1.426   .     A
C1036  C1037   1.407   .     A
C1037  F1038   1.360   .     S
F1039  C1083   1.361   .     S
H1046  C617    1.086   1_565 S
O1052  Zn1069  1.955   .     S
O1052  Zn1071  1.925   .     S
O1052  Zn1072  1.936   .     S
O1052  Zn1070  1.943   .     S
O1053  Zn1070  1.916   .     S
O1054  Zn1072  1.926   .     S
O1055  Zn1071  1.925   .     S
O1056  Zn1069  1.917   .     S
O1057  C424    1.221   1_556 S
O1061  Zn1069  1.928   .     S
O1062  Zn1072  1.926   .     S
O1063  Zn1070  1.935   .     S
O1064  Zn1071  1.944   .     S
O1065  Zn1072  1.938   .     S
O1066  Zn1069  1.929   .     S
O1067  Zn1070  1.934   .     S
O1068  Zn1071  1.932   .     S
C1073  C1083   1.434   .     S
C1073  O1130   1.270   .     A
C1073  O1132   1.266   .     A
C1074  C1075   1.387   .     A
C1074  H1114   1.079   .     S
C1074  C1101   1.406   .     A
C1075  F1109   1.357   .     S
C1075  C474    1.412   1_556 S
C1076  O1131   1.275   .     A
C1076  C1082   1.466   .     S
C1076  O1133   1.278   .     A
C1077  C1078   1.426   .     A
C1077  C1079   1.429   .     A
C1078  C1081   1.407   .     A
C1078  C1102   1.432   .     A
C1079  C1094   1.482   .     S
C1079  C1080   1.420   .     A
C1080  C1097   1.497   .     S
C1080  C1092   1.410   .     A
C1081  F1108   1.361   .     S
C1081  C1092   1.391   .     A
C1082  C1150   1.352   .     S
C1082  C1163   1.500   .     S
C1084  F1111   1.358   .     S
C1084  C1093   1.395   .     A
C1084  C1091   1.403   .     A
C1085  C1088   1.452   .     S
C1085  C684    1.334   1_565 S
C1085  F705    1.362   1_565 S
C1086  C1087   1.436   .     S
C1087  O1134   1.276   .     A
C1087  O1128   1.276   .     A
C1088  O1135   1.269   .     A
C1088  O1129   1.270   .     A
C1089  O1122   1.275   .     A
C1089  O1120   1.275   .     A
C1089  C1092   1.464   .     S
C1090  O1121   1.287   .     A
C1090  O1123   1.287   .     A
C1090  C1091   1.479   .     S
C1091  C1095   1.402   .     A
C1093  C1100   1.411   .     A
C1093  F1110   1.358   .     S
C1094  H1115   1.085   .     S
C1095  C1099   1.416   .     A
C1095  F1112   1.359   .     S
C1096  H1116   1.085   .     S
C1096  O1125   1.221   .     D
C1097  H1117   1.085   .     S
C1097  O1126   1.221   .     D
C1098  O1127   1.221   .     D
C1098  H1118   1.085   .     S
C1098  C1103   1.490   .     S
C1099  C1101   1.422   .     A
C1099  C1100   1.418   .     A
C1100  C501    1.405   1_556 S
C1101  C499    1.415   1_556 S
C1102  C1103   1.426   .     A
C1103  C1104   1.407   .     A
C1104  F1105   1.360   .     S
F1106  C1150   1.361   .     S
H1113  C684    1.086   1_565 S
O1119  Zn1136  1.955   .     S
O1119  Zn1138  1.925   .     S
O1119  Zn1139  1.936   .     S
O1119  Zn1137  1.943   .     S
O1120  Zn1137  1.916   .     S
O1121  Zn1139  1.926   .     S
O1122  Zn1138  1.925   .     S
O1123  Zn1136  1.917   .     S
O1124  C491    1.221   1_556 S
O1128  Zn1136  1.928   .     S
O1129  Zn1139  1.926   .     S
O1130  Zn1137  1.935   .     S
O1131  Zn1138  1.944   .     S
O1132  Zn1139  1.938   .     S
O1133  Zn1136  1.929   .     S
O1134  Zn1137  1.934   .     S
O1135  Zn1138  1.932   .     S
C1140  C1150   1.434   .     S
C1140  O1197   1.270   .     A
C1140  O1199   1.266   .     A
C1141  C1142   1.387   .     A
C1141  H1181   1.079   .     S
C1141  C1168   1.406   .     A
C1142  F1176   1.357   .     S
C1142  C541    1.412   1_556 S
C1143  O1198   1.275   .     A
C1143  C1149   1.466   .     S
C1143  O1200   1.278   .     A
C1144  C1145   1.426   .     A
C1144  C1146   1.429   .     A
C1145  C1148   1.407   .     A
C1145  C1169   1.432   .     A
C1146  C1161   1.482   .     S
C1146  C1147   1.420   .     A
C1147  C1164   1.497   .     S
C1147  C1159   1.410   .     A
C1148  F1175   1.361   .     S
C1148  C1159   1.391   .     A
C1149  C1016   1.352   1_655 S
C1149  C1029   1.500   1_655 S
C1151  F1178   1.358   .     S
C1151  C1160   1.395   .     A
C1151  C1158   1.403   .     A
C1152  C1155   1.452   .     S
C1152  C751    1.334   1_565 S
C1152  F772    1.362   1_565 S
C1153  C1154   1.436   .     S
C1154  O1201   1.276   .     A
C1154  O1195   1.276   .     A
C1155  O1202   1.269   .     A
C1155  O1196   1.270   .     A
C1156  O1189   1.275   .     A
C1156  O1187   1.275   .     A
C1156  C1159   1.464   .     S
C1157  O1188   1.287   .     A
C1157  O1190   1.287   .     A
C1157  C1158   1.479   .     S
C1158  C1162   1.402   .     A
C1160  C1167   1.411   .     A
C1160  F1177   1.358   .     S
C1161  H1182   1.085   .     S
C1162  C1166   1.416   .     A
C1162  F1179   1.359   .     S
C1163  H1183   1.085   .     S
C1163  O1192   1.221   .     D
C1164  H1184   1.085   .     S
C1164  O1193   1.221   .     D
C1165  O1194   1.221   .     D
C1165  H1185   1.085   .     S
C1165  C1170   1.490   .     S
C1166  C1168   1.422   .     A
C1166  C1167   1.418   .     A
C1167  C568    1.405   1_556 S
C1168  C566    1.415   1_556 S
C1169  C1170   1.426   .     A
C1170  C1171   1.407   .     A
C1171  F1172   1.360   .     S
F1173  C1016   1.361   1_655 S
H1180  C751    1.086   1_565 S
O1186  Zn1203  1.955   .     S
O1186  Zn1205  1.925   .     S
O1186  Zn1206  1.936   .     S
O1186  Zn1204  1.943   .     S
O1187  Zn1204  1.916   .     S
O1188  Zn1206  1.926   .     S
O1189  Zn1205  1.925   .     S
O1190  Zn1203  1.917   .     S
O1191  C558    1.221   1_556 S
O1195  Zn1203  1.928   .     S
O1196  Zn1206  1.926   .     S
O1197  Zn1204  1.935   .     S
O1198  Zn1205  1.944   .     S
O1199  Zn1206  1.938   .     S
O1200  Zn1203  1.929   .     S
O1201  Zn1204  1.934   .     S
O1202  Zn1205  1.932   .     S
