data_str_m1_o10_o18_pcu_sym.72
_audit_creation_date              2020-01-03
_audit_creation_method            'Materials Studio'
_symmetry_space_group_name_H-M    'P1'
_symmetry_Int_Tables_number       1
_symmetry_cell_setting            triclinic
loop_
_symmetry_equiv_pos_as_xyz
  x,y,z
_cell_length_a                    32.7254
_cell_length_b                    32.5368
_cell_length_c                    35.6238
_cell_angle_alpha                 97.8529
_cell_angle_beta                  73.2853
_cell_angle_gamma                 98.5388
loop_
_atom_site_label
_atom_site_type_symbol
_atom_site_fract_x
_atom_site_fract_y
_atom_site_fract_z
_atom_site_U_iso_or_equiv
_atom_site_adp_type
_atom_site_occupancy
C1     C     0.05291   0.16026   0.25825   0.00000  Uiso   1.00
C2     C     0.19762   0.12711   0.45958   0.00000  Uiso   1.00
C3     C     0.22076   0.11015   0.47945   0.00000  Uiso   1.00
C4     C     0.28093   0.17336   0.24142   0.00000  Uiso   1.00
C5     C     0.21157   0.11675   0.02041   0.00000  Uiso   1.00
C6     C     0.17576   0.13823   0.04194   0.00000  Uiso   1.00
C7     C     0.23815   0.10336   0.04034   0.00000  Uiso   1.00
C8     C     0.23028   0.11275   0.08094   0.00000  Uiso   1.00
C9     C     0.17086   0.14960   0.08240   0.00000  Uiso   1.00
C10    C     0.32653   0.17509   0.23843   0.00000  Uiso   1.00
C11    C     0.00769   0.15681   0.26315   0.00000  Uiso   1.00
C12    C     0.09452   0.20799   0.42100   0.00000  Uiso   1.00
C13    C     0.18158   0.32227   0.23769   0.00000  Uiso   1.00
C14    C     0.15224   0.01208   0.26182   0.00000  Uiso   1.00
C15    C     0.15543   0.05625   0.25942   0.00000  Uiso   1.00
C16    C     0.17702   0.27767   0.24126   0.00000  Uiso   1.00
C17    C     0.18814   0.14532   0.14410   0.00000  Uiso   1.00
C18    C     0.14537   0.18742   0.35618   0.00000  Uiso   1.00
C19    C     0.13234   0.19115   0.39950   0.00000  Uiso   1.00
C20    C     0.19704   0.13614   0.10169   0.00000  Uiso   1.00
C21    C     0.07952   0.20571   0.46151   0.00000  Uiso   1.00
C22    C     0.31433   0.13442   0.29577   0.00000  Uiso   1.00
C23    C     0.15578   0.17354   0.41916   0.00000  Uiso   1.00
C24    C     0.21776   0.00715   0.20807   0.00000  Uiso   1.00
C25    C     0.08207   0.15177   0.07996   0.00000  Uiso   1.00
C26    C     0.14044   0.16936   0.45983   0.00000  Uiso   1.00
C27    C     0.10185   0.18613   0.48097   0.00000  Uiso   1.00
C28    C     0.16249   0.14935   0.48000   0.00000  Uiso   1.00
C29    C     0.14816   0.15049   0.02183   0.00000  Uiso   1.00
C30    C     0.10662   0.16302   0.04127   0.00000  Uiso   1.00
C31    C     0.08484   0.18163   0.02096   0.00000  Uiso   1.00
Cl32   Cl    0.28213   0.07539   0.01579   0.00000  Uiso   1.00
H33    H     0.05363   0.19173   0.03631   0.00000  Uiso   1.00
H34    H     0.20738   0.12102   0.42797   0.00000  Uiso   1.00
H35    H     0.01596   0.19179   0.21519   0.00000  Uiso   1.00
H36    H     0.12502   0.33179   0.28382   0.00000  Uiso   1.00
H37    H     0.14838   0.17083   0.09931   0.00000  Uiso   1.00
H38    H     0.25039   0.10221   0.09629   0.00000  Uiso   1.00
H39    H     0.24717   0.09329   0.46209   0.00000  Uiso   1.00
H40    H     0.04980   0.21832   0.47751   0.00000  Uiso   1.00
H41    H     0.07582   0.22169   0.40638   0.00000  Uiso   1.00
H42    H     0.18600   0.16334   0.40186   0.00000  Uiso   1.00
N43    N     0.29318   0.11654   0.32187   0.00000  Uiso   1.00
N44    N     0.24658   0.02169   0.18449   0.00000  Uiso   1.00
N45    N     0.06220   0.14274   0.11086   0.00000  Uiso   1.00
O46    O     0.16667   0.16667   0.25000   0.00000  Uiso   1.00
O47    O     0.15693   0.12393   0.16625   0.00000  Uiso   1.00
O48    O     0.12687   0.20646   0.33749   0.00000  Uiso   1.00
O49    O     0.21088   0.17493   0.15877   0.00000  Uiso   1.00
O50    O     0.17198   0.16135   0.33749   0.00000  Uiso   1.00
O51    O     0.17849   0.08101   0.27821   0.00000  Uiso   1.00
O52    O     0.14581   0.26136   0.26767   0.00000  Uiso   1.00
O53    O     0.07452   0.13251   0.23607   0.00000  Uiso   1.00
O54    O     0.26785   0.19179   0.21806   0.00000  Uiso   1.00
O55    O     0.06990   0.18960   0.27820   0.00000  Uiso   1.00
O56    O     0.25440   0.15277   0.26768   0.00000  Uiso   1.00
O57    O     0.13800   0.06903   0.23607   0.00000  Uiso   1.00
O58    O     0.20437   0.25527   0.21806   0.00000  Uiso   1.00
Zn59   Zn    0.19244   0.14090   0.28278   0.00000  Uiso   1.00
Zn60   Zn    0.13459   0.12378   0.22258   0.00000  Uiso   1.00
Zn61   Zn    0.21166   0.19664   0.21188   0.00000  Uiso   1.00
Zn62   Zn    0.12798   0.20535   0.28277   0.00000  Uiso   1.00
C63    C     0.38625   0.16026   0.25825   0.00000  Uiso   1.00
C64    C     0.53096   0.12711   0.45958   0.00000  Uiso   1.00
C65    C     0.55409   0.11015   0.47945   0.00000  Uiso   1.00
C66    C     0.61427   0.17336   0.24142   0.00000  Uiso   1.00
C67    C     0.54490   0.11675   0.02041   0.00000  Uiso   1.00
C68    C     0.50910   0.13823   0.04194   0.00000  Uiso   1.00
C69    C     0.57148   0.10336   0.04034   0.00000  Uiso   1.00
C70    C     0.56362   0.11275   0.08094   0.00000  Uiso   1.00
C71    C     0.50420   0.14960   0.08240   0.00000  Uiso   1.00
C72    C     0.65987   0.17509   0.23843   0.00000  Uiso   1.00
C73    C     0.34102   0.15681   0.26315   0.00000  Uiso   1.00
C74    C     0.42786   0.20799   0.42100   0.00000  Uiso   1.00
C75    C     0.51491   0.32227   0.23769   0.00000  Uiso   1.00
C76    C     0.48558   0.01208   0.26182   0.00000  Uiso   1.00
C77    C     0.48876   0.05625   0.25942   0.00000  Uiso   1.00
C78    C     0.51035   0.27767   0.24126   0.00000  Uiso   1.00
C79    C     0.52148   0.14532   0.14410   0.00000  Uiso   1.00
C80    C     0.47870   0.18742   0.35618   0.00000  Uiso   1.00
C81    C     0.46568   0.19115   0.39950   0.00000  Uiso   1.00
C82    C     0.53038   0.13614   0.10169   0.00000  Uiso   1.00
C83    C     0.41286   0.20571   0.46151   0.00000  Uiso   1.00
C84    C     0.64767   0.13442   0.29577   0.00000  Uiso   1.00
C85    C     0.48911   0.17354   0.41916   0.00000  Uiso   1.00
C86    C     0.55109   0.00715   0.20807   0.00000  Uiso   1.00
C87    C     0.41540   0.15177   0.07996   0.00000  Uiso   1.00
C88    C     0.47377   0.16936   0.45983   0.00000  Uiso   1.00
C89    C     0.43519   0.18613   0.48097   0.00000  Uiso   1.00
C90    C     0.49582   0.14935   0.48000   0.00000  Uiso   1.00
C91    C     0.48150   0.15049   0.02183   0.00000  Uiso   1.00
C92    C     0.43996   0.16302   0.04127   0.00000  Uiso   1.00
C93    C     0.41817   0.18163   0.02096   0.00000  Uiso   1.00
Cl94   Cl    0.61546   0.07539   0.01579   0.00000  Uiso   1.00
H95    H     0.38697   0.19173   0.03631   0.00000  Uiso   1.00
H96    H     0.54071   0.12102   0.42797   0.00000  Uiso   1.00
H97    H     0.34929   0.19179   0.21519   0.00000  Uiso   1.00
H98    H     0.45836   0.33179   0.28382   0.00000  Uiso   1.00
H99    H     0.48172   0.17083   0.09931   0.00000  Uiso   1.00
H100   H     0.58373   0.10221   0.09629   0.00000  Uiso   1.00
H101   H     0.58050   0.09329   0.46209   0.00000  Uiso   1.00
H102   H     0.38314   0.21832   0.47751   0.00000  Uiso   1.00
H103   H     0.40915   0.22169   0.40638   0.00000  Uiso   1.00
H104   H     0.51933   0.16334   0.40186   0.00000  Uiso   1.00
N105   N     0.62651   0.11654   0.32187   0.00000  Uiso   1.00
N106   N     0.57991   0.02169   0.18449   0.00000  Uiso   1.00
N107   N     0.39554   0.14274   0.11086   0.00000  Uiso   1.00
O108   O     0.50000   0.16667   0.25000   0.00000  Uiso   1.00
O109   O     0.49027   0.12393   0.16625   0.00000  Uiso   1.00
O110   O     0.46020   0.20646   0.33749   0.00000  Uiso   1.00
O111   O     0.54421   0.17493   0.15877   0.00000  Uiso   1.00
O112   O     0.50532   0.16135   0.33749   0.00000  Uiso   1.00
O113   O     0.51182   0.08101   0.27821   0.00000  Uiso   1.00
O114   O     0.47914   0.26136   0.26767   0.00000  Uiso   1.00
O115   O     0.40785   0.13251   0.23607   0.00000  Uiso   1.00
O116   O     0.60119   0.19179   0.21806   0.00000  Uiso   1.00
O117   O     0.40323   0.18960   0.27820   0.00000  Uiso   1.00
O118   O     0.58773   0.15277   0.26768   0.00000  Uiso   1.00
O119   O     0.47133   0.06903   0.23607   0.00000  Uiso   1.00
O120   O     0.53771   0.25527   0.21806   0.00000  Uiso   1.00
Zn121  Zn    0.52577   0.14090   0.28278   0.00000  Uiso   1.00
Zn122  Zn    0.46792   0.12378   0.22258   0.00000  Uiso   1.00
Zn123  Zn    0.54500   0.19664   0.21188   0.00000  Uiso   1.00
Zn124  Zn    0.46131   0.20535   0.28277   0.00000  Uiso   1.00
C125   C     0.71958   0.16026   0.25825   0.00000  Uiso   1.00
C126   C     0.86429   0.12711   0.45958   0.00000  Uiso   1.00
C127   C     0.88743   0.11015   0.47945   0.00000  Uiso   1.00
C128   C     0.94760   0.17336   0.24142   0.00000  Uiso   1.00
C129   C     0.87824   0.11675   0.02041   0.00000  Uiso   1.00
C130   C     0.84243   0.13823   0.04194   0.00000  Uiso   1.00
C131   C     0.90481   0.10336   0.04034   0.00000  Uiso   1.00
C132   C     0.89695   0.11275   0.08094   0.00000  Uiso   1.00
C133   C     0.83753   0.14960   0.08240   0.00000  Uiso   1.00
C134   C     0.99320   0.17509   0.23843   0.00000  Uiso   1.00
C135   C     0.67435   0.15681   0.26315   0.00000  Uiso   1.00
C136   C     0.76119   0.20799   0.42100   0.00000  Uiso   1.00
C137   C     0.84824   0.32227   0.23769   0.00000  Uiso   1.00
C138   C     0.81891   0.01208   0.26182   0.00000  Uiso   1.00
C139   C     0.82210   0.05625   0.25942   0.00000  Uiso   1.00
C140   C     0.84369   0.27767   0.24126   0.00000  Uiso   1.00
C141   C     0.85481   0.14532   0.14410   0.00000  Uiso   1.00
C142   C     0.81204   0.18742   0.35618   0.00000  Uiso   1.00
C143   C     0.79901   0.19115   0.39950   0.00000  Uiso   1.00
C144   C     0.86371   0.13614   0.10169   0.00000  Uiso   1.00
C145   C     0.74619   0.20571   0.46151   0.00000  Uiso   1.00
C146   C     0.98100   0.13442   0.29577   0.00000  Uiso   1.00
C147   C     0.82245   0.17354   0.41916   0.00000  Uiso   1.00
C148   C     0.88443   0.00715   0.20807   0.00000  Uiso   1.00
C149   C     0.74873   0.15177   0.07996   0.00000  Uiso   1.00
C150   C     0.80710   0.16936   0.45983   0.00000  Uiso   1.00
C151   C     0.76852   0.18613   0.48097   0.00000  Uiso   1.00
C152   C     0.82915   0.14935   0.48000   0.00000  Uiso   1.00
C153   C     0.81483   0.15049   0.02183   0.00000  Uiso   1.00
C154   C     0.77329   0.16302   0.04127   0.00000  Uiso   1.00
C155   C     0.75151   0.18163   0.02096   0.00000  Uiso   1.00
Cl156  Cl    0.94880   0.07539   0.01579   0.00000  Uiso   1.00
H157   H     0.72030   0.19173   0.03631   0.00000  Uiso   1.00
H158   H     0.87404   0.12102   0.42797   0.00000  Uiso   1.00
H159   H     0.68262   0.19179   0.21519   0.00000  Uiso   1.00
H160   H     0.79169   0.33179   0.28382   0.00000  Uiso   1.00
H161   H     0.81505   0.17083   0.09931   0.00000  Uiso   1.00
H162   H     0.91706   0.10221   0.09629   0.00000  Uiso   1.00
H163   H     0.91384   0.09329   0.46209   0.00000  Uiso   1.00
H164   H     0.71647   0.21832   0.47751   0.00000  Uiso   1.00
H165   H     0.74248   0.22169   0.40638   0.00000  Uiso   1.00
H166   H     0.85266   0.16334   0.40186   0.00000  Uiso   1.00
N167   N     0.95984   0.11654   0.32187   0.00000  Uiso   1.00
N168   N     0.91324   0.02169   0.18449   0.00000  Uiso   1.00
N169   N     0.72887   0.14274   0.11086   0.00000  Uiso   1.00
O170   O     0.83333   0.16667   0.25000   0.00000  Uiso   1.00
O171   O     0.82360   0.12393   0.16625   0.00000  Uiso   1.00
O172   O     0.79354   0.20646   0.33749   0.00000  Uiso   1.00
O173   O     0.87755   0.17493   0.15877   0.00000  Uiso   1.00
O174   O     0.83865   0.16135   0.33749   0.00000  Uiso   1.00
O175   O     0.84515   0.08101   0.27821   0.00000  Uiso   1.00
O176   O     0.81247   0.26136   0.26767   0.00000  Uiso   1.00
O177   O     0.74119   0.13251   0.23607   0.00000  Uiso   1.00
O178   O     0.93452   0.19179   0.21806   0.00000  Uiso   1.00
O179   O     0.73656   0.18960   0.27820   0.00000  Uiso   1.00
O180   O     0.92106   0.15277   0.26768   0.00000  Uiso   1.00
O181   O     0.80467   0.06903   0.23607   0.00000  Uiso   1.00
O182   O     0.87104   0.25527   0.21806   0.00000  Uiso   1.00
Zn183  Zn    0.85910   0.14090   0.28278   0.00000  Uiso   1.00
Zn184  Zn    0.80125   0.12378   0.22258   0.00000  Uiso   1.00
Zn185  Zn    0.87833   0.19664   0.21188   0.00000  Uiso   1.00
Zn186  Zn    0.79465   0.20535   0.28277   0.00000  Uiso   1.00
C187   C     0.05291   0.49359   0.25825   0.00000  Uiso   1.00
C188   C     0.19762   0.46044   0.45958   0.00000  Uiso   1.00
C189   C     0.22076   0.44348   0.47945   0.00000  Uiso   1.00
C190   C     0.28093   0.50669   0.24142   0.00000  Uiso   1.00
C191   C     0.21157   0.45008   0.02041   0.00000  Uiso   1.00
C192   C     0.17576   0.47156   0.04194   0.00000  Uiso   1.00
C193   C     0.23815   0.43669   0.04034   0.00000  Uiso   1.00
C194   C     0.23028   0.44608   0.08094   0.00000  Uiso   1.00
C195   C     0.17086   0.48293   0.08240   0.00000  Uiso   1.00
C196   C     0.32653   0.50842   0.23843   0.00000  Uiso   1.00
C197   C     0.00769   0.49014   0.26315   0.00000  Uiso   1.00
C198   C     0.09452   0.54132   0.42100   0.00000  Uiso   1.00
C199   C     0.18158   0.65561   0.23769   0.00000  Uiso   1.00
C200   C     0.15224   0.34541   0.26182   0.00000  Uiso   1.00
C201   C     0.15543   0.38958   0.25942   0.00000  Uiso   1.00
C202   C     0.17702   0.61101   0.24126   0.00000  Uiso   1.00
C203   C     0.18814   0.47865   0.14410   0.00000  Uiso   1.00
C204   C     0.14537   0.52075   0.35618   0.00000  Uiso   1.00
C205   C     0.13234   0.52448   0.39950   0.00000  Uiso   1.00
C206   C     0.19704   0.46947   0.10169   0.00000  Uiso   1.00
C207   C     0.07952   0.53904   0.46151   0.00000  Uiso   1.00
C208   C     0.31433   0.46775   0.29577   0.00000  Uiso   1.00
C209   C     0.15578   0.50688   0.41916   0.00000  Uiso   1.00
C210   C     0.21776   0.34049   0.20807   0.00000  Uiso   1.00
C211   C     0.08207   0.48511   0.07996   0.00000  Uiso   1.00
C212   C     0.14044   0.50270   0.45983   0.00000  Uiso   1.00
C213   C     0.10185   0.51946   0.48097   0.00000  Uiso   1.00
C214   C     0.16249   0.48268   0.48000   0.00000  Uiso   1.00
C215   C     0.14816   0.48383   0.02183   0.00000  Uiso   1.00
C216   C     0.10662   0.49635   0.04127   0.00000  Uiso   1.00
C217   C     0.08484   0.51496   0.02096   0.00000  Uiso   1.00
Cl218  Cl    0.28213   0.40872   0.01579   0.00000  Uiso   1.00
H219   H     0.05363   0.52506   0.03631   0.00000  Uiso   1.00
H220   H     0.20738   0.45435   0.42797   0.00000  Uiso   1.00
H221   H     0.01596   0.52512   0.21519   0.00000  Uiso   1.00
H222   H     0.12502   0.66513   0.28382   0.00000  Uiso   1.00
H223   H     0.14838   0.50416   0.09931   0.00000  Uiso   1.00
H224   H     0.25039   0.43555   0.09629   0.00000  Uiso   1.00
H225   H     0.24717   0.42663   0.46209   0.00000  Uiso   1.00
H226   H     0.04980   0.55165   0.47751   0.00000  Uiso   1.00
H227   H     0.07582   0.55502   0.40638   0.00000  Uiso   1.00
H228   H     0.18600   0.49667   0.40186   0.00000  Uiso   1.00
N229   N     0.29318   0.44987   0.32187   0.00000  Uiso   1.00
N230   N     0.24658   0.35503   0.18449   0.00000  Uiso   1.00
N231   N     0.06220   0.47607   0.11086   0.00000  Uiso   1.00
O232   O     0.16667   0.50000   0.25000   0.00000  Uiso   1.00
O233   O     0.15693   0.45726   0.16625   0.00000  Uiso   1.00
O234   O     0.12687   0.53979   0.33749   0.00000  Uiso   1.00
O235   O     0.21088   0.50826   0.15877   0.00000  Uiso   1.00
O236   O     0.17198   0.49468   0.33749   0.00000  Uiso   1.00
O237   O     0.17849   0.41434   0.27821   0.00000  Uiso   1.00
O238   O     0.14581   0.59469   0.26767   0.00000  Uiso   1.00
O239   O     0.07452   0.46584   0.23607   0.00000  Uiso   1.00
O240   O     0.26785   0.52512   0.21806   0.00000  Uiso   1.00
O241   O     0.06990   0.52293   0.27820   0.00000  Uiso   1.00
O242   O     0.25440   0.48610   0.26768   0.00000  Uiso   1.00
O243   O     0.13800   0.40236   0.23607   0.00000  Uiso   1.00
O244   O     0.20437   0.58860   0.21806   0.00000  Uiso   1.00
Zn245  Zn    0.19244   0.47423   0.28278   0.00000  Uiso   1.00
Zn246  Zn    0.13459   0.45711   0.22258   0.00000  Uiso   1.00
Zn247  Zn    0.21166   0.52997   0.21188   0.00000  Uiso   1.00
Zn248  Zn    0.12798   0.53868   0.28277   0.00000  Uiso   1.00
C249   C     0.38625   0.49359   0.25825   0.00000  Uiso   1.00
C250   C     0.53096   0.46044   0.45958   0.00000  Uiso   1.00
C251   C     0.55409   0.44348   0.47945   0.00000  Uiso   1.00
C252   C     0.61427   0.50669   0.24142   0.00000  Uiso   1.00
C253   C     0.54490   0.45008   0.02041   0.00000  Uiso   1.00
C254   C     0.50910   0.47156   0.04194   0.00000  Uiso   1.00
C255   C     0.57148   0.43669   0.04034   0.00000  Uiso   1.00
C256   C     0.56362   0.44608   0.08094   0.00000  Uiso   1.00
C257   C     0.50420   0.48293   0.08240   0.00000  Uiso   1.00
C258   C     0.65987   0.50842   0.23843   0.00000  Uiso   1.00
C259   C     0.34102   0.49014   0.26315   0.00000  Uiso   1.00
C260   C     0.42786   0.54132   0.42100   0.00000  Uiso   1.00
C261   C     0.51491   0.65561   0.23769   0.00000  Uiso   1.00
C262   C     0.48558   0.34541   0.26182   0.00000  Uiso   1.00
C263   C     0.48876   0.38958   0.25942   0.00000  Uiso   1.00
C264   C     0.51035   0.61101   0.24126   0.00000  Uiso   1.00
C265   C     0.52148   0.47865   0.14410   0.00000  Uiso   1.00
C266   C     0.47870   0.52075   0.35618   0.00000  Uiso   1.00
C267   C     0.46568   0.52448   0.39950   0.00000  Uiso   1.00
C268   C     0.53038   0.46947   0.10169   0.00000  Uiso   1.00
C269   C     0.41286   0.53904   0.46151   0.00000  Uiso   1.00
C270   C     0.64767   0.46775   0.29577   0.00000  Uiso   1.00
C271   C     0.48911   0.50688   0.41916   0.00000  Uiso   1.00
C272   C     0.55109   0.34049   0.20807   0.00000  Uiso   1.00
C273   C     0.41540   0.48511   0.07996   0.00000  Uiso   1.00
C274   C     0.47377   0.50270   0.45983   0.00000  Uiso   1.00
C275   C     0.43519   0.51946   0.48097   0.00000  Uiso   1.00
C276   C     0.49582   0.48268   0.48000   0.00000  Uiso   1.00
C277   C     0.48150   0.48383   0.02183   0.00000  Uiso   1.00
C278   C     0.43996   0.49635   0.04127   0.00000  Uiso   1.00
C279   C     0.41817   0.51496   0.02096   0.00000  Uiso   1.00
Cl280  Cl    0.61546   0.40872   0.01579   0.00000  Uiso   1.00
H281   H     0.38697   0.52506   0.03631   0.00000  Uiso   1.00
H282   H     0.54071   0.45435   0.42797   0.00000  Uiso   1.00
H283   H     0.34929   0.52512   0.21519   0.00000  Uiso   1.00
H284   H     0.45836   0.66513   0.28382   0.00000  Uiso   1.00
H285   H     0.48172   0.50416   0.09931   0.00000  Uiso   1.00
H286   H     0.58373   0.43555   0.09629   0.00000  Uiso   1.00
H287   H     0.58050   0.42663   0.46209   0.00000  Uiso   1.00
H288   H     0.38314   0.55165   0.47751   0.00000  Uiso   1.00
H289   H     0.40915   0.55502   0.40638   0.00000  Uiso   1.00
H290   H     0.51933   0.49667   0.40186   0.00000  Uiso   1.00
N291   N     0.62651   0.44987   0.32187   0.00000  Uiso   1.00
N292   N     0.57991   0.35503   0.18449   0.00000  Uiso   1.00
N293   N     0.39554   0.47607   0.11086   0.00000  Uiso   1.00
O294   O     0.50000   0.50000   0.25000   0.00000  Uiso   1.00
O295   O     0.49027   0.45726   0.16625   0.00000  Uiso   1.00
O296   O     0.46020   0.53979   0.33749   0.00000  Uiso   1.00
O297   O     0.54421   0.50826   0.15877   0.00000  Uiso   1.00
O298   O     0.50532   0.49468   0.33749   0.00000  Uiso   1.00
O299   O     0.51182   0.41434   0.27821   0.00000  Uiso   1.00
O300   O     0.47914   0.59469   0.26767   0.00000  Uiso   1.00
O301   O     0.40785   0.46584   0.23607   0.00000  Uiso   1.00
O302   O     0.60119   0.52512   0.21806   0.00000  Uiso   1.00
O303   O     0.40323   0.52293   0.27820   0.00000  Uiso   1.00
O304   O     0.58773   0.48610   0.26768   0.00000  Uiso   1.00
O305   O     0.47133   0.40236   0.23607   0.00000  Uiso   1.00
O306   O     0.53771   0.58860   0.21806   0.00000  Uiso   1.00
Zn307  Zn    0.52577   0.47423   0.28278   0.00000  Uiso   1.00
Zn308  Zn    0.46792   0.45711   0.22258   0.00000  Uiso   1.00
Zn309  Zn    0.54500   0.52997   0.21188   0.00000  Uiso   1.00
Zn310  Zn    0.46131   0.53868   0.28277   0.00000  Uiso   1.00
C311   C     0.71958   0.49359   0.25825   0.00000  Uiso   1.00
C312   C     0.86429   0.46044   0.45958   0.00000  Uiso   1.00
C313   C     0.88743   0.44348   0.47945   0.00000  Uiso   1.00
C314   C     0.94760   0.50669   0.24142   0.00000  Uiso   1.00
C315   C     0.87824   0.45008   0.02041   0.00000  Uiso   1.00
C316   C     0.84243   0.47156   0.04194   0.00000  Uiso   1.00
C317   C     0.90481   0.43669   0.04034   0.00000  Uiso   1.00
C318   C     0.89695   0.44608   0.08094   0.00000  Uiso   1.00
C319   C     0.83753   0.48293   0.08240   0.00000  Uiso   1.00
C320   C     0.99320   0.50842   0.23843   0.00000  Uiso   1.00
C321   C     0.67435   0.49014   0.26315   0.00000  Uiso   1.00
C322   C     0.76119   0.54132   0.42100   0.00000  Uiso   1.00
C323   C     0.84824   0.65561   0.23769   0.00000  Uiso   1.00
C324   C     0.81891   0.34541   0.26182   0.00000  Uiso   1.00
C325   C     0.82210   0.38958   0.25942   0.00000  Uiso   1.00
C326   C     0.84369   0.61101   0.24126   0.00000  Uiso   1.00
C327   C     0.85481   0.47865   0.14410   0.00000  Uiso   1.00
C328   C     0.81204   0.52075   0.35618   0.00000  Uiso   1.00
C329   C     0.79901   0.52448   0.39950   0.00000  Uiso   1.00
C330   C     0.86371   0.46947   0.10169   0.00000  Uiso   1.00
C331   C     0.74619   0.53904   0.46151   0.00000  Uiso   1.00
C332   C     0.98100   0.46775   0.29577   0.00000  Uiso   1.00
C333   C     0.82245   0.50688   0.41916   0.00000  Uiso   1.00
C334   C     0.88443   0.34049   0.20807   0.00000  Uiso   1.00
C335   C     0.74873   0.48511   0.07996   0.00000  Uiso   1.00
C336   C     0.80710   0.50270   0.45983   0.00000  Uiso   1.00
C337   C     0.76852   0.51946   0.48097   0.00000  Uiso   1.00
C338   C     0.82915   0.48268   0.48000   0.00000  Uiso   1.00
C339   C     0.81483   0.48383   0.02183   0.00000  Uiso   1.00
C340   C     0.77329   0.49635   0.04127   0.00000  Uiso   1.00
C341   C     0.75151   0.51496   0.02096   0.00000  Uiso   1.00
Cl342  Cl    0.94880   0.40872   0.01579   0.00000  Uiso   1.00
H343   H     0.72030   0.52506   0.03631   0.00000  Uiso   1.00
H344   H     0.87404   0.45435   0.42797   0.00000  Uiso   1.00
H345   H     0.68262   0.52512   0.21519   0.00000  Uiso   1.00
H346   H     0.79169   0.66513   0.28382   0.00000  Uiso   1.00
H347   H     0.81505   0.50416   0.09931   0.00000  Uiso   1.00
H348   H     0.91706   0.43555   0.09629   0.00000  Uiso   1.00
H349   H     0.91384   0.42663   0.46209   0.00000  Uiso   1.00
H350   H     0.71647   0.55165   0.47751   0.00000  Uiso   1.00
H351   H     0.74248   0.55502   0.40638   0.00000  Uiso   1.00
H352   H     0.85266   0.49667   0.40186   0.00000  Uiso   1.00
N353   N     0.95984   0.44987   0.32187   0.00000  Uiso   1.00
N354   N     0.91324   0.35503   0.18449   0.00000  Uiso   1.00
N355   N     0.72887   0.47607   0.11086   0.00000  Uiso   1.00
O356   O     0.83333   0.50000   0.25000   0.00000  Uiso   1.00
O357   O     0.82360   0.45726   0.16625   0.00000  Uiso   1.00
O358   O     0.79354   0.53979   0.33749   0.00000  Uiso   1.00
O359   O     0.87755   0.50826   0.15877   0.00000  Uiso   1.00
O360   O     0.83865   0.49468   0.33749   0.00000  Uiso   1.00
O361   O     0.84515   0.41434   0.27821   0.00000  Uiso   1.00
O362   O     0.81247   0.59469   0.26767   0.00000  Uiso   1.00
O363   O     0.74119   0.46584   0.23607   0.00000  Uiso   1.00
O364   O     0.93452   0.52512   0.21806   0.00000  Uiso   1.00
O365   O     0.73656   0.52293   0.27820   0.00000  Uiso   1.00
O366   O     0.92106   0.48610   0.26768   0.00000  Uiso   1.00
O367   O     0.80467   0.40236   0.23607   0.00000  Uiso   1.00
O368   O     0.87104   0.58860   0.21806   0.00000  Uiso   1.00
Zn369  Zn    0.85910   0.47423   0.28278   0.00000  Uiso   1.00
Zn370  Zn    0.80125   0.45711   0.22258   0.00000  Uiso   1.00
Zn371  Zn    0.87833   0.52997   0.21188   0.00000  Uiso   1.00
Zn372  Zn    0.79465   0.53868   0.28277   0.00000  Uiso   1.00
C373   C     0.05291   0.82693   0.25825   0.00000  Uiso   1.00
C374   C     0.19762   0.79378   0.45958   0.00000  Uiso   1.00
C375   C     0.22076   0.77681   0.47945   0.00000  Uiso   1.00
C376   C     0.28093   0.84003   0.24142   0.00000  Uiso   1.00
C377   C     0.21157   0.78342   0.02041   0.00000  Uiso   1.00
C378   C     0.17576   0.80489   0.04194   0.00000  Uiso   1.00
C379   C     0.23815   0.77002   0.04034   0.00000  Uiso   1.00
C380   C     0.23028   0.77941   0.08094   0.00000  Uiso   1.00
C381   C     0.17086   0.81627   0.08240   0.00000  Uiso   1.00
C382   C     0.32653   0.84176   0.23843   0.00000  Uiso   1.00
C383   C     0.00769   0.82347   0.26315   0.00000  Uiso   1.00
C384   C     0.09452   0.87466   0.42100   0.00000  Uiso   1.00
C385   C     0.18158   0.98894   0.23769   0.00000  Uiso   1.00
C386   C     0.15224   0.67875   0.26182   0.00000  Uiso   1.00
C387   C     0.15543   0.72291   0.25942   0.00000  Uiso   1.00
C388   C     0.17702   0.94434   0.24126   0.00000  Uiso   1.00
C389   C     0.18814   0.81198   0.14410   0.00000  Uiso   1.00
C390   C     0.14537   0.85409   0.35618   0.00000  Uiso   1.00
C391   C     0.13234   0.85782   0.39950   0.00000  Uiso   1.00
C392   C     0.19704   0.80280   0.10169   0.00000  Uiso   1.00
C393   C     0.07952   0.87237   0.46151   0.00000  Uiso   1.00
C394   C     0.31433   0.80109   0.29577   0.00000  Uiso   1.00
C395   C     0.15578   0.84021   0.41916   0.00000  Uiso   1.00
C396   C     0.21776   0.67382   0.20807   0.00000  Uiso   1.00
C397   C     0.08207   0.81844   0.07996   0.00000  Uiso   1.00
C398   C     0.14044   0.83603   0.45983   0.00000  Uiso   1.00
C399   C     0.10185   0.85279   0.48097   0.00000  Uiso   1.00
C400   C     0.16249   0.81602   0.48000   0.00000  Uiso   1.00
C401   C     0.14816   0.81716   0.02183   0.00000  Uiso   1.00
C402   C     0.10662   0.82968   0.04127   0.00000  Uiso   1.00
C403   C     0.08484   0.84829   0.02096   0.00000  Uiso   1.00
Cl404  Cl    0.28213   0.74205   0.01579   0.00000  Uiso   1.00
H405   H     0.05363   0.85839   0.03631   0.00000  Uiso   1.00
H406   H     0.20738   0.78768   0.42797   0.00000  Uiso   1.00
H407   H     0.01596   0.85846   0.21519   0.00000  Uiso   1.00
H408   H     0.12502   0.99846   0.28382   0.00000  Uiso   1.00
H409   H     0.14838   0.83750   0.09931   0.00000  Uiso   1.00
H410   H     0.25039   0.76888   0.09629   0.00000  Uiso   1.00
H411   H     0.24717   0.75996   0.46209   0.00000  Uiso   1.00
H412   H     0.04980   0.88498   0.47751   0.00000  Uiso   1.00
H413   H     0.07582   0.88835   0.40638   0.00000  Uiso   1.00
H414   H     0.18600   0.83000   0.40186   0.00000  Uiso   1.00
N415   N     0.29318   0.78321   0.32187   0.00000  Uiso   1.00
N416   N     0.24658   0.68836   0.18449   0.00000  Uiso   1.00
N417   N     0.06220   0.80941   0.11086   0.00000  Uiso   1.00
O418   O     0.16667   0.83333   0.25000   0.00000  Uiso   1.00
O419   O     0.15693   0.79060   0.16625   0.00000  Uiso   1.00
O420   O     0.12687   0.87313   0.33749   0.00000  Uiso   1.00
O421   O     0.21088   0.84159   0.15877   0.00000  Uiso   1.00
O422   O     0.17198   0.82802   0.33749   0.00000  Uiso   1.00
O423   O     0.17849   0.74768   0.27821   0.00000  Uiso   1.00
O424   O     0.14581   0.92803   0.26767   0.00000  Uiso   1.00
O425   O     0.07452   0.79917   0.23607   0.00000  Uiso   1.00
O426   O     0.26785   0.85845   0.21806   0.00000  Uiso   1.00
O427   O     0.06990   0.85627   0.27820   0.00000  Uiso   1.00
O428   O     0.25440   0.81944   0.26768   0.00000  Uiso   1.00
O429   O     0.13800   0.73570   0.23607   0.00000  Uiso   1.00
O430   O     0.20437   0.92193   0.21806   0.00000  Uiso   1.00
Zn431  Zn    0.19244   0.80756   0.28278   0.00000  Uiso   1.00
Zn432  Zn    0.13459   0.79044   0.22258   0.00000  Uiso   1.00
Zn433  Zn    0.21166   0.86331   0.21188   0.00000  Uiso   1.00
Zn434  Zn    0.12798   0.87202   0.28277   0.00000  Uiso   1.00
C435   C     0.38625   0.82693   0.25825   0.00000  Uiso   1.00
C436   C     0.53096   0.79378   0.45958   0.00000  Uiso   1.00
C437   C     0.55409   0.77681   0.47945   0.00000  Uiso   1.00
C438   C     0.61427   0.84003   0.24142   0.00000  Uiso   1.00
C439   C     0.54490   0.78342   0.02041   0.00000  Uiso   1.00
C440   C     0.50910   0.80489   0.04194   0.00000  Uiso   1.00
C441   C     0.57148   0.77002   0.04034   0.00000  Uiso   1.00
C442   C     0.56362   0.77941   0.08094   0.00000  Uiso   1.00
C443   C     0.50420   0.81627   0.08240   0.00000  Uiso   1.00
C444   C     0.65987   0.84176   0.23843   0.00000  Uiso   1.00
C445   C     0.34102   0.82347   0.26315   0.00000  Uiso   1.00
C446   C     0.42786   0.87466   0.42100   0.00000  Uiso   1.00
C447   C     0.51491   0.98894   0.23769   0.00000  Uiso   1.00
C448   C     0.48558   0.67875   0.26182   0.00000  Uiso   1.00
C449   C     0.48876   0.72291   0.25942   0.00000  Uiso   1.00
C450   C     0.51035   0.94434   0.24126   0.00000  Uiso   1.00
C451   C     0.52148   0.81198   0.14410   0.00000  Uiso   1.00
C452   C     0.47870   0.85409   0.35618   0.00000  Uiso   1.00
C453   C     0.46568   0.85782   0.39950   0.00000  Uiso   1.00
C454   C     0.53038   0.80280   0.10169   0.00000  Uiso   1.00
C455   C     0.41286   0.87237   0.46151   0.00000  Uiso   1.00
C456   C     0.64767   0.80109   0.29577   0.00000  Uiso   1.00
C457   C     0.48911   0.84021   0.41916   0.00000  Uiso   1.00
C458   C     0.55109   0.67382   0.20807   0.00000  Uiso   1.00
C459   C     0.41540   0.81844   0.07996   0.00000  Uiso   1.00
C460   C     0.47377   0.83603   0.45983   0.00000  Uiso   1.00
C461   C     0.43519   0.85279   0.48097   0.00000  Uiso   1.00
C462   C     0.49582   0.81602   0.48000   0.00000  Uiso   1.00
C463   C     0.48150   0.81716   0.02183   0.00000  Uiso   1.00
C464   C     0.43996   0.82968   0.04127   0.00000  Uiso   1.00
C465   C     0.41817   0.84829   0.02096   0.00000  Uiso   1.00
Cl466  Cl    0.61546   0.74205   0.01579   0.00000  Uiso   1.00
H467   H     0.38697   0.85839   0.03631   0.00000  Uiso   1.00
H468   H     0.54071   0.78768   0.42797   0.00000  Uiso   1.00
H469   H     0.34929   0.85846   0.21519   0.00000  Uiso   1.00
H470   H     0.45836   0.99846   0.28382   0.00000  Uiso   1.00
H471   H     0.48172   0.83750   0.09931   0.00000  Uiso   1.00
H472   H     0.58373   0.76888   0.09629   0.00000  Uiso   1.00
H473   H     0.58050   0.75996   0.46209   0.00000  Uiso   1.00
H474   H     0.38314   0.88498   0.47751   0.00000  Uiso   1.00
H475   H     0.40915   0.88835   0.40638   0.00000  Uiso   1.00
H476   H     0.51933   0.83000   0.40186   0.00000  Uiso   1.00
N477   N     0.62651   0.78321   0.32187   0.00000  Uiso   1.00
N478   N     0.57991   0.68836   0.18449   0.00000  Uiso   1.00
N479   N     0.39554   0.80941   0.11086   0.00000  Uiso   1.00
O480   O     0.50000   0.83333   0.25000   0.00000  Uiso   1.00
O481   O     0.49027   0.79060   0.16625   0.00000  Uiso   1.00
O482   O     0.46020   0.87313   0.33749   0.00000  Uiso   1.00
O483   O     0.54421   0.84159   0.15877   0.00000  Uiso   1.00
O484   O     0.50532   0.82802   0.33749   0.00000  Uiso   1.00
O485   O     0.51182   0.74768   0.27821   0.00000  Uiso   1.00
O486   O     0.47914   0.92803   0.26767   0.00000  Uiso   1.00
O487   O     0.40785   0.79917   0.23607   0.00000  Uiso   1.00
O488   O     0.60119   0.85845   0.21806   0.00000  Uiso   1.00
O489   O     0.40323   0.85627   0.27820   0.00000  Uiso   1.00
O490   O     0.58773   0.81944   0.26768   0.00000  Uiso   1.00
O491   O     0.47133   0.73570   0.23607   0.00000  Uiso   1.00
O492   O     0.53771   0.92193   0.21806   0.00000  Uiso   1.00
Zn493  Zn    0.52577   0.80756   0.28278   0.00000  Uiso   1.00
Zn494  Zn    0.46792   0.79044   0.22258   0.00000  Uiso   1.00
Zn495  Zn    0.54500   0.86331   0.21188   0.00000  Uiso   1.00
Zn496  Zn    0.46131   0.87202   0.28277   0.00000  Uiso   1.00
C497   C     0.71958   0.82693   0.25825   0.00000  Uiso   1.00
C498   C     0.86429   0.79378   0.45958   0.00000  Uiso   1.00
C499   C     0.88743   0.77681   0.47945   0.00000  Uiso   1.00
C500   C     0.94760   0.84003   0.24142   0.00000  Uiso   1.00
C501   C     0.87824   0.78342   0.02041   0.00000  Uiso   1.00
C502   C     0.84243   0.80489   0.04194   0.00000  Uiso   1.00
C503   C     0.90481   0.77002   0.04034   0.00000  Uiso   1.00
C504   C     0.89695   0.77941   0.08094   0.00000  Uiso   1.00
C505   C     0.83753   0.81627   0.08240   0.00000  Uiso   1.00
C506   C     0.99320   0.84176   0.23843   0.00000  Uiso   1.00
C507   C     0.67435   0.82347   0.26315   0.00000  Uiso   1.00
C508   C     0.76119   0.87466   0.42100   0.00000  Uiso   1.00
C509   C     0.84824   0.98894   0.23769   0.00000  Uiso   1.00
C510   C     0.81891   0.67875   0.26182   0.00000  Uiso   1.00
C511   C     0.82210   0.72291   0.25942   0.00000  Uiso   1.00
C512   C     0.84369   0.94434   0.24126   0.00000  Uiso   1.00
C513   C     0.85481   0.81198   0.14410   0.00000  Uiso   1.00
C514   C     0.81204   0.85409   0.35618   0.00000  Uiso   1.00
C515   C     0.79901   0.85782   0.39950   0.00000  Uiso   1.00
C516   C     0.86371   0.80280   0.10169   0.00000  Uiso   1.00
C517   C     0.74619   0.87237   0.46151   0.00000  Uiso   1.00
C518   C     0.98100   0.80109   0.29577   0.00000  Uiso   1.00
C519   C     0.82245   0.84021   0.41916   0.00000  Uiso   1.00
C520   C     0.88443   0.67382   0.20807   0.00000  Uiso   1.00
C521   C     0.74873   0.81844   0.07996   0.00000  Uiso   1.00
C522   C     0.80710   0.83603   0.45983   0.00000  Uiso   1.00
C523   C     0.76852   0.85279   0.48097   0.00000  Uiso   1.00
C524   C     0.82915   0.81602   0.48000   0.00000  Uiso   1.00
C525   C     0.81483   0.81716   0.02183   0.00000  Uiso   1.00
C526   C     0.77329   0.82968   0.04127   0.00000  Uiso   1.00
C527   C     0.75151   0.84829   0.02096   0.00000  Uiso   1.00
Cl528  Cl    0.94880   0.74205   0.01579   0.00000  Uiso   1.00
H529   H     0.72030   0.85839   0.03631   0.00000  Uiso   1.00
H530   H     0.87404   0.78768   0.42797   0.00000  Uiso   1.00
H531   H     0.68262   0.85846   0.21519   0.00000  Uiso   1.00
H532   H     0.79169   0.99846   0.28382   0.00000  Uiso   1.00
H533   H     0.81505   0.83750   0.09931   0.00000  Uiso   1.00
H534   H     0.91706   0.76888   0.09629   0.00000  Uiso   1.00
H535   H     0.91384   0.75996   0.46209   0.00000  Uiso   1.00
H536   H     0.71647   0.88498   0.47751   0.00000  Uiso   1.00
H537   H     0.74248   0.88835   0.40638   0.00000  Uiso   1.00
H538   H     0.85266   0.83000   0.40186   0.00000  Uiso   1.00
N539   N     0.95984   0.78321   0.32187   0.00000  Uiso   1.00
N540   N     0.91324   0.68836   0.18449   0.00000  Uiso   1.00
N541   N     0.72887   0.80941   0.11086   0.00000  Uiso   1.00
O542   O     0.83333   0.83333   0.25000   0.00000  Uiso   1.00
O543   O     0.82360   0.79060   0.16625   0.00000  Uiso   1.00
O544   O     0.79354   0.87313   0.33749   0.00000  Uiso   1.00
O545   O     0.87755   0.84159   0.15877   0.00000  Uiso   1.00
O546   O     0.83865   0.82802   0.33749   0.00000  Uiso   1.00
O547   O     0.84515   0.74768   0.27821   0.00000  Uiso   1.00
O548   O     0.81247   0.92803   0.26767   0.00000  Uiso   1.00
O549   O     0.74119   0.79917   0.23607   0.00000  Uiso   1.00
O550   O     0.93452   0.85845   0.21806   0.00000  Uiso   1.00
O551   O     0.73656   0.85627   0.27820   0.00000  Uiso   1.00
O552   O     0.92106   0.81944   0.26768   0.00000  Uiso   1.00
O553   O     0.80467   0.73570   0.23607   0.00000  Uiso   1.00
O554   O     0.87104   0.92193   0.21806   0.00000  Uiso   1.00
Zn555  Zn    0.85910   0.80756   0.28278   0.00000  Uiso   1.00
Zn556  Zn    0.80125   0.79044   0.22258   0.00000  Uiso   1.00
Zn557  Zn    0.87833   0.86331   0.21188   0.00000  Uiso   1.00
Zn558  Zn    0.79465   0.87202   0.28277   0.00000  Uiso   1.00
C559   C     0.05291   0.16026   0.75825   0.00000  Uiso   1.00
C560   C     0.19762   0.12711   0.95958   0.00000  Uiso   1.00
C561   C     0.22076   0.11015   0.97945   0.00000  Uiso   1.00
C562   C     0.28093   0.17336   0.74142   0.00000  Uiso   1.00
C563   C     0.21157   0.11675   0.52041   0.00000  Uiso   1.00
C564   C     0.17576   0.13823   0.54194   0.00000  Uiso   1.00
C565   C     0.23815   0.10336   0.54034   0.00000  Uiso   1.00
C566   C     0.23028   0.11275   0.58094   0.00000  Uiso   1.00
C567   C     0.17086   0.14960   0.58240   0.00000  Uiso   1.00
C568   C     0.32653   0.17509   0.73843   0.00000  Uiso   1.00
C569   C     0.00769   0.15681   0.76315   0.00000  Uiso   1.00
C570   C     0.09452   0.20799   0.92100   0.00000  Uiso   1.00
C571   C     0.18158   0.32227   0.73769   0.00000  Uiso   1.00
C572   C     0.15224   0.01208   0.76182   0.00000  Uiso   1.00
C573   C     0.15543   0.05625   0.75942   0.00000  Uiso   1.00
C574   C     0.17702   0.27767   0.74126   0.00000  Uiso   1.00
C575   C     0.18814   0.14532   0.64410   0.00000  Uiso   1.00
C576   C     0.14537   0.18742   0.85618   0.00000  Uiso   1.00
C577   C     0.13234   0.19115   0.89950   0.00000  Uiso   1.00
C578   C     0.19704   0.13614   0.60169   0.00000  Uiso   1.00
C579   C     0.07952   0.20571   0.96151   0.00000  Uiso   1.00
C580   C     0.31433   0.13442   0.79577   0.00000  Uiso   1.00
C581   C     0.15578   0.17354   0.91916   0.00000  Uiso   1.00
C582   C     0.21776   0.00715   0.70807   0.00000  Uiso   1.00
C583   C     0.08207   0.15177   0.57996   0.00000  Uiso   1.00
C584   C     0.14044   0.16936   0.95983   0.00000  Uiso   1.00
C585   C     0.10185   0.18613   0.98097   0.00000  Uiso   1.00
C586   C     0.16249   0.14935   0.98000   0.00000  Uiso   1.00
C587   C     0.14816   0.15049   0.52183   0.00000  Uiso   1.00
C588   C     0.10662   0.16302   0.54127   0.00000  Uiso   1.00
C589   C     0.08484   0.18163   0.52096   0.00000  Uiso   1.00
Cl590  Cl    0.28213   0.07539   0.51579   0.00000  Uiso   1.00
H591   H     0.05363   0.19173   0.53631   0.00000  Uiso   1.00
H592   H     0.20738   0.12102   0.92797   0.00000  Uiso   1.00
H593   H     0.01596   0.19179   0.71519   0.00000  Uiso   1.00
H594   H     0.12502   0.33179   0.78382   0.00000  Uiso   1.00
H595   H     0.14838   0.17083   0.59931   0.00000  Uiso   1.00
H596   H     0.25039   0.10221   0.59629   0.00000  Uiso   1.00
H597   H     0.24717   0.09329   0.96209   0.00000  Uiso   1.00
H598   H     0.04980   0.21832   0.97751   0.00000  Uiso   1.00
H599   H     0.07582   0.22169   0.90638   0.00000  Uiso   1.00
H600   H     0.18600   0.16334   0.90186   0.00000  Uiso   1.00
N601   N     0.29318   0.11654   0.82187   0.00000  Uiso   1.00
N602   N     0.24658   0.02169   0.68449   0.00000  Uiso   1.00
N603   N     0.06220   0.14274   0.61086   0.00000  Uiso   1.00
O604   O     0.16667   0.16667   0.75000   0.00000  Uiso   1.00
O605   O     0.15693   0.12393   0.66625   0.00000  Uiso   1.00
O606   O     0.12687   0.20646   0.83749   0.00000  Uiso   1.00
O607   O     0.21088   0.17493   0.65877   0.00000  Uiso   1.00
O608   O     0.17198   0.16135   0.83749   0.00000  Uiso   1.00
O609   O     0.17849   0.08101   0.77821   0.00000  Uiso   1.00
O610   O     0.14581   0.26136   0.76767   0.00000  Uiso   1.00
O611   O     0.07452   0.13251   0.73607   0.00000  Uiso   1.00
O612   O     0.26785   0.19179   0.71806   0.00000  Uiso   1.00
O613   O     0.06990   0.18960   0.77820   0.00000  Uiso   1.00
O614   O     0.25440   0.15277   0.76768   0.00000  Uiso   1.00
O615   O     0.13800   0.06903   0.73607   0.00000  Uiso   1.00
O616   O     0.20437   0.25527   0.71806   0.00000  Uiso   1.00
Zn617  Zn    0.19244   0.14090   0.78278   0.00000  Uiso   1.00
Zn618  Zn    0.13459   0.12378   0.72258   0.00000  Uiso   1.00
Zn619  Zn    0.21166   0.19664   0.71188   0.00000  Uiso   1.00
Zn620  Zn    0.12798   0.20535   0.78277   0.00000  Uiso   1.00
C621   C     0.38625   0.16026   0.75825   0.00000  Uiso   1.00
C622   C     0.53096   0.12711   0.95958   0.00000  Uiso   1.00
C623   C     0.55409   0.11015   0.97945   0.00000  Uiso   1.00
C624   C     0.61427   0.17336   0.74142   0.00000  Uiso   1.00
C625   C     0.54490   0.11675   0.52041   0.00000  Uiso   1.00
C626   C     0.50910   0.13823   0.54194   0.00000  Uiso   1.00
C627   C     0.57148   0.10336   0.54034   0.00000  Uiso   1.00
C628   C     0.56362   0.11275   0.58094   0.00000  Uiso   1.00
C629   C     0.50420   0.14960   0.58240   0.00000  Uiso   1.00
C630   C     0.65987   0.17509   0.73843   0.00000  Uiso   1.00
C631   C     0.34102   0.15681   0.76315   0.00000  Uiso   1.00
C632   C     0.42786   0.20799   0.92100   0.00000  Uiso   1.00
C633   C     0.51491   0.32227   0.73769   0.00000  Uiso   1.00
C634   C     0.48558   0.01208   0.76182   0.00000  Uiso   1.00
C635   C     0.48876   0.05625   0.75942   0.00000  Uiso   1.00
C636   C     0.51035   0.27767   0.74126   0.00000  Uiso   1.00
C637   C     0.52148   0.14532   0.64410   0.00000  Uiso   1.00
C638   C     0.47870   0.18742   0.85618   0.00000  Uiso   1.00
C639   C     0.46568   0.19115   0.89950   0.00000  Uiso   1.00
C640   C     0.53038   0.13614   0.60169   0.00000  Uiso   1.00
C641   C     0.41286   0.20571   0.96151   0.00000  Uiso   1.00
C642   C     0.64767   0.13442   0.79577   0.00000  Uiso   1.00
C643   C     0.48911   0.17354   0.91916   0.00000  Uiso   1.00
C644   C     0.55109   0.00715   0.70807   0.00000  Uiso   1.00
C645   C     0.41540   0.15177   0.57996   0.00000  Uiso   1.00
C646   C     0.47377   0.16936   0.95983   0.00000  Uiso   1.00
C647   C     0.43519   0.18613   0.98097   0.00000  Uiso   1.00
C648   C     0.49582   0.14935   0.98000   0.00000  Uiso   1.00
C649   C     0.48150   0.15049   0.52183   0.00000  Uiso   1.00
C650   C     0.43996   0.16302   0.54127   0.00000  Uiso   1.00
C651   C     0.41817   0.18163   0.52096   0.00000  Uiso   1.00
Cl652  Cl    0.61546   0.07539   0.51579   0.00000  Uiso   1.00
H653   H     0.38697   0.19173   0.53631   0.00000  Uiso   1.00
H654   H     0.54071   0.12102   0.92797   0.00000  Uiso   1.00
H655   H     0.34929   0.19179   0.71519   0.00000  Uiso   1.00
H656   H     0.45836   0.33179   0.78382   0.00000  Uiso   1.00
H657   H     0.48172   0.17083   0.59931   0.00000  Uiso   1.00
H658   H     0.58373   0.10221   0.59629   0.00000  Uiso   1.00
H659   H     0.58050   0.09329   0.96209   0.00000  Uiso   1.00
H660   H     0.38314   0.21832   0.97751   0.00000  Uiso   1.00
H661   H     0.40915   0.22169   0.90638   0.00000  Uiso   1.00
H662   H     0.51933   0.16334   0.90186   0.00000  Uiso   1.00
N663   N     0.62651   0.11654   0.82187   0.00000  Uiso   1.00
N664   N     0.57991   0.02169   0.68449   0.00000  Uiso   1.00
N665   N     0.39554   0.14274   0.61086   0.00000  Uiso   1.00
O666   O     0.50000   0.16667   0.75000   0.00000  Uiso   1.00
O667   O     0.49027   0.12393   0.66625   0.00000  Uiso   1.00
O668   O     0.46020   0.20646   0.83749   0.00000  Uiso   1.00
O669   O     0.54421   0.17493   0.65877   0.00000  Uiso   1.00
O670   O     0.50532   0.16135   0.83749   0.00000  Uiso   1.00
O671   O     0.51182   0.08101   0.77821   0.00000  Uiso   1.00
O672   O     0.47914   0.26136   0.76767   0.00000  Uiso   1.00
O673   O     0.40785   0.13251   0.73607   0.00000  Uiso   1.00
O674   O     0.60119   0.19179   0.71806   0.00000  Uiso   1.00
O675   O     0.40323   0.18960   0.77820   0.00000  Uiso   1.00
O676   O     0.58773   0.15277   0.76768   0.00000  Uiso   1.00
O677   O     0.47133   0.06903   0.73607   0.00000  Uiso   1.00
O678   O     0.53771   0.25527   0.71806   0.00000  Uiso   1.00
Zn679  Zn    0.52577   0.14090   0.78278   0.00000  Uiso   1.00
Zn680  Zn    0.46792   0.12378   0.72258   0.00000  Uiso   1.00
Zn681  Zn    0.54500   0.19664   0.71188   0.00000  Uiso   1.00
Zn682  Zn    0.46131   0.20535   0.78277   0.00000  Uiso   1.00
C683   C     0.71958   0.16026   0.75825   0.00000  Uiso   1.00
C684   C     0.86429   0.12711   0.95958   0.00000  Uiso   1.00
C685   C     0.88743   0.11015   0.97945   0.00000  Uiso   1.00
C686   C     0.94760   0.17336   0.74142   0.00000  Uiso   1.00
C687   C     0.87824   0.11675   0.52041   0.00000  Uiso   1.00
C688   C     0.84243   0.13823   0.54194   0.00000  Uiso   1.00
C689   C     0.90481   0.10336   0.54034   0.00000  Uiso   1.00
C690   C     0.89695   0.11275   0.58094   0.00000  Uiso   1.00
C691   C     0.83753   0.14960   0.58240   0.00000  Uiso   1.00
C692   C     0.99320   0.17509   0.73843   0.00000  Uiso   1.00
C693   C     0.67435   0.15681   0.76315   0.00000  Uiso   1.00
C694   C     0.76119   0.20799   0.92100   0.00000  Uiso   1.00
C695   C     0.84824   0.32227   0.73769   0.00000  Uiso   1.00
C696   C     0.81891   0.01208   0.76182   0.00000  Uiso   1.00
C697   C     0.82210   0.05625   0.75942   0.00000  Uiso   1.00
C698   C     0.84369   0.27767   0.74126   0.00000  Uiso   1.00
C699   C     0.85481   0.14532   0.64410   0.00000  Uiso   1.00
C700   C     0.81204   0.18742   0.85618   0.00000  Uiso   1.00
C701   C     0.79901   0.19115   0.89950   0.00000  Uiso   1.00
C702   C     0.86371   0.13614   0.60169   0.00000  Uiso   1.00
C703   C     0.74619   0.20571   0.96151   0.00000  Uiso   1.00
C704   C     0.98100   0.13442   0.79577   0.00000  Uiso   1.00
C705   C     0.82245   0.17354   0.91916   0.00000  Uiso   1.00
C706   C     0.88443   0.00715   0.70807   0.00000  Uiso   1.00
C707   C     0.74873   0.15177   0.57996   0.00000  Uiso   1.00
C708   C     0.80710   0.16936   0.95983   0.00000  Uiso   1.00
C709   C     0.76852   0.18613   0.98097   0.00000  Uiso   1.00
C710   C     0.82915   0.14935   0.98000   0.00000  Uiso   1.00
C711   C     0.81483   0.15049   0.52183   0.00000  Uiso   1.00
C712   C     0.77329   0.16302   0.54127   0.00000  Uiso   1.00
C713   C     0.75151   0.18163   0.52096   0.00000  Uiso   1.00
Cl714  Cl    0.94880   0.07539   0.51579   0.00000  Uiso   1.00
H715   H     0.72030   0.19173   0.53631   0.00000  Uiso   1.00
H716   H     0.87404   0.12102   0.92797   0.00000  Uiso   1.00
H717   H     0.68262   0.19179   0.71519   0.00000  Uiso   1.00
H718   H     0.79169   0.33179   0.78382   0.00000  Uiso   1.00
H719   H     0.81505   0.17083   0.59931   0.00000  Uiso   1.00
H720   H     0.91706   0.10221   0.59629   0.00000  Uiso   1.00
H721   H     0.91384   0.09329   0.96209   0.00000  Uiso   1.00
H722   H     0.71647   0.21832   0.97751   0.00000  Uiso   1.00
H723   H     0.74248   0.22169   0.90638   0.00000  Uiso   1.00
H724   H     0.85266   0.16334   0.90186   0.00000  Uiso   1.00
N725   N     0.95984   0.11654   0.82187   0.00000  Uiso   1.00
N726   N     0.91324   0.02169   0.68449   0.00000  Uiso   1.00
N727   N     0.72887   0.14274   0.61086   0.00000  Uiso   1.00
O728   O     0.83333   0.16667   0.75000   0.00000  Uiso   1.00
O729   O     0.82360   0.12393   0.66625   0.00000  Uiso   1.00
O730   O     0.79354   0.20646   0.83749   0.00000  Uiso   1.00
O731   O     0.87755   0.17493   0.65877   0.00000  Uiso   1.00
O732   O     0.83865   0.16135   0.83749   0.00000  Uiso   1.00
O733   O     0.84515   0.08101   0.77821   0.00000  Uiso   1.00
O734   O     0.81247   0.26136   0.76767   0.00000  Uiso   1.00
O735   O     0.74119   0.13251   0.73607   0.00000  Uiso   1.00
O736   O     0.93452   0.19179   0.71806   0.00000  Uiso   1.00
O737   O     0.73656   0.18960   0.77820   0.00000  Uiso   1.00
O738   O     0.92106   0.15277   0.76768   0.00000  Uiso   1.00
O739   O     0.80467   0.06903   0.73607   0.00000  Uiso   1.00
O740   O     0.87104   0.25527   0.71806   0.00000  Uiso   1.00
Zn741  Zn    0.85910   0.14090   0.78278   0.00000  Uiso   1.00
Zn742  Zn    0.80125   0.12378   0.72258   0.00000  Uiso   1.00
Zn743  Zn    0.87833   0.19664   0.71188   0.00000  Uiso   1.00
Zn744  Zn    0.79465   0.20535   0.78277   0.00000  Uiso   1.00
C745   C     0.05291   0.49359   0.75825   0.00000  Uiso   1.00
C746   C     0.19762   0.46044   0.95958   0.00000  Uiso   1.00
C747   C     0.22076   0.44348   0.97945   0.00000  Uiso   1.00
C748   C     0.28093   0.50669   0.74142   0.00000  Uiso   1.00
C749   C     0.21157   0.45008   0.52041   0.00000  Uiso   1.00
C750   C     0.17576   0.47156   0.54194   0.00000  Uiso   1.00
C751   C     0.23815   0.43669   0.54034   0.00000  Uiso   1.00
C752   C     0.23028   0.44608   0.58094   0.00000  Uiso   1.00
C753   C     0.17086   0.48293   0.58240   0.00000  Uiso   1.00
C754   C     0.32653   0.50842   0.73843   0.00000  Uiso   1.00
C755   C     0.00769   0.49014   0.76315   0.00000  Uiso   1.00
C756   C     0.09452   0.54132   0.92100   0.00000  Uiso   1.00
C757   C     0.18158   0.65561   0.73769   0.00000  Uiso   1.00
C758   C     0.15224   0.34541   0.76182   0.00000  Uiso   1.00
C759   C     0.15543   0.38958   0.75942   0.00000  Uiso   1.00
C760   C     0.17702   0.61101   0.74126   0.00000  Uiso   1.00
C761   C     0.18814   0.47865   0.64410   0.00000  Uiso   1.00
C762   C     0.14537   0.52075   0.85618   0.00000  Uiso   1.00
C763   C     0.13234   0.52448   0.89950   0.00000  Uiso   1.00
C764   C     0.19704   0.46947   0.60169   0.00000  Uiso   1.00
C765   C     0.07952   0.53904   0.96151   0.00000  Uiso   1.00
C766   C     0.31433   0.46775   0.79577   0.00000  Uiso   1.00
C767   C     0.15578   0.50688   0.91916   0.00000  Uiso   1.00
C768   C     0.21776   0.34049   0.70807   0.00000  Uiso   1.00
C769   C     0.08207   0.48511   0.57996   0.00000  Uiso   1.00
C770   C     0.14044   0.50270   0.95983   0.00000  Uiso   1.00
C771   C     0.10185   0.51946   0.98097   0.00000  Uiso   1.00
C772   C     0.16249   0.48268   0.98000   0.00000  Uiso   1.00
C773   C     0.14816   0.48383   0.52183   0.00000  Uiso   1.00
C774   C     0.10662   0.49635   0.54127   0.00000  Uiso   1.00
C775   C     0.08484   0.51496   0.52096   0.00000  Uiso   1.00
Cl776  Cl    0.28213   0.40872   0.51579   0.00000  Uiso   1.00
H777   H     0.05363   0.52506   0.53631   0.00000  Uiso   1.00
H778   H     0.20738   0.45435   0.92797   0.00000  Uiso   1.00
H779   H     0.01596   0.52512   0.71519   0.00000  Uiso   1.00
H780   H     0.12502   0.66513   0.78382   0.00000  Uiso   1.00
H781   H     0.14838   0.50416   0.59931   0.00000  Uiso   1.00
H782   H     0.25039   0.43555   0.59629   0.00000  Uiso   1.00
H783   H     0.24717   0.42663   0.96209   0.00000  Uiso   1.00
H784   H     0.04980   0.55165   0.97751   0.00000  Uiso   1.00
H785   H     0.07582   0.55502   0.90638   0.00000  Uiso   1.00
H786   H     0.18600   0.49667   0.90186   0.00000  Uiso   1.00
N787   N     0.29318   0.44987   0.82187   0.00000  Uiso   1.00
N788   N     0.24658   0.35503   0.68449   0.00000  Uiso   1.00
N789   N     0.06220   0.47607   0.61086   0.00000  Uiso   1.00
O790   O     0.16667   0.50000   0.75000   0.00000  Uiso   1.00
O791   O     0.15693   0.45726   0.66625   0.00000  Uiso   1.00
O792   O     0.12687   0.53979   0.83749   0.00000  Uiso   1.00
O793   O     0.21088   0.50826   0.65877   0.00000  Uiso   1.00
O794   O     0.17198   0.49468   0.83749   0.00000  Uiso   1.00
O795   O     0.17849   0.41434   0.77821   0.00000  Uiso   1.00
O796   O     0.14581   0.59469   0.76767   0.00000  Uiso   1.00
O797   O     0.07452   0.46584   0.73607   0.00000  Uiso   1.00
O798   O     0.26785   0.52512   0.71806   0.00000  Uiso   1.00
O799   O     0.06990   0.52293   0.77820   0.00000  Uiso   1.00
O800   O     0.25440   0.48610   0.76768   0.00000  Uiso   1.00
O801   O     0.13800   0.40236   0.73607   0.00000  Uiso   1.00
O802   O     0.20437   0.58860   0.71806   0.00000  Uiso   1.00
Zn803  Zn    0.19244   0.47423   0.78278   0.00000  Uiso   1.00
Zn804  Zn    0.13459   0.45711   0.72258   0.00000  Uiso   1.00
Zn805  Zn    0.21166   0.52997   0.71188   0.00000  Uiso   1.00
Zn806  Zn    0.12798   0.53868   0.78277   0.00000  Uiso   1.00
C807   C     0.38625   0.49359   0.75825   0.00000  Uiso   1.00
C808   C     0.53096   0.46044   0.95958   0.00000  Uiso   1.00
C809   C     0.55409   0.44348   0.97945   0.00000  Uiso   1.00
C810   C     0.61427   0.50669   0.74142   0.00000  Uiso   1.00
C811   C     0.54490   0.45008   0.52041   0.00000  Uiso   1.00
C812   C     0.50910   0.47156   0.54194   0.00000  Uiso   1.00
C813   C     0.57148   0.43669   0.54034   0.00000  Uiso   1.00
C814   C     0.56362   0.44608   0.58094   0.00000  Uiso   1.00
C815   C     0.50420   0.48293   0.58240   0.00000  Uiso   1.00
C816   C     0.65987   0.50842   0.73843   0.00000  Uiso   1.00
C817   C     0.34102   0.49014   0.76315   0.00000  Uiso   1.00
C818   C     0.42786   0.54132   0.92100   0.00000  Uiso   1.00
C819   C     0.51491   0.65561   0.73769   0.00000  Uiso   1.00
C820   C     0.48558   0.34541   0.76182   0.00000  Uiso   1.00
C821   C     0.48876   0.38958   0.75942   0.00000  Uiso   1.00
C822   C     0.51035   0.61101   0.74126   0.00000  Uiso   1.00
C823   C     0.52148   0.47865   0.64410   0.00000  Uiso   1.00
C824   C     0.47870   0.52075   0.85618   0.00000  Uiso   1.00
C825   C     0.46568   0.52448   0.89950   0.00000  Uiso   1.00
C826   C     0.53038   0.46947   0.60169   0.00000  Uiso   1.00
C827   C     0.41286   0.53904   0.96151   0.00000  Uiso   1.00
C828   C     0.64767   0.46775   0.79577   0.00000  Uiso   1.00
C829   C     0.48911   0.50688   0.91916   0.00000  Uiso   1.00
C830   C     0.55109   0.34049   0.70807   0.00000  Uiso   1.00
C831   C     0.41540   0.48511   0.57996   0.00000  Uiso   1.00
C832   C     0.47377   0.50270   0.95983   0.00000  Uiso   1.00
C833   C     0.43519   0.51946   0.98097   0.00000  Uiso   1.00
C834   C     0.49582   0.48268   0.98000   0.00000  Uiso   1.00
C835   C     0.48150   0.48383   0.52183   0.00000  Uiso   1.00
C836   C     0.43996   0.49635   0.54127   0.00000  Uiso   1.00
C837   C     0.41817   0.51496   0.52096   0.00000  Uiso   1.00
Cl838  Cl    0.61546   0.40872   0.51579   0.00000  Uiso   1.00
H839   H     0.38697   0.52506   0.53631   0.00000  Uiso   1.00
H840   H     0.54071   0.45435   0.92797   0.00000  Uiso   1.00
H841   H     0.34929   0.52512   0.71519   0.00000  Uiso   1.00
H842   H     0.45836   0.66513   0.78382   0.00000  Uiso   1.00
H843   H     0.48172   0.50416   0.59931   0.00000  Uiso   1.00
H844   H     0.58373   0.43555   0.59629   0.00000  Uiso   1.00
H845   H     0.58050   0.42663   0.96209   0.00000  Uiso   1.00
H846   H     0.38314   0.55165   0.97751   0.00000  Uiso   1.00
H847   H     0.40915   0.55502   0.90638   0.00000  Uiso   1.00
H848   H     0.51933   0.49667   0.90186   0.00000  Uiso   1.00
N849   N     0.62651   0.44987   0.82187   0.00000  Uiso   1.00
N850   N     0.57991   0.35503   0.68449   0.00000  Uiso   1.00
N851   N     0.39554   0.47607   0.61086   0.00000  Uiso   1.00
O852   O     0.50000   0.50000   0.75000   0.00000  Uiso   1.00
O853   O     0.49027   0.45726   0.66625   0.00000  Uiso   1.00
O854   O     0.46020   0.53979   0.83749   0.00000  Uiso   1.00
O855   O     0.54421   0.50826   0.65877   0.00000  Uiso   1.00
O856   O     0.50532   0.49468   0.83749   0.00000  Uiso   1.00
O857   O     0.51182   0.41434   0.77821   0.00000  Uiso   1.00
O858   O     0.47914   0.59469   0.76767   0.00000  Uiso   1.00
O859   O     0.40785   0.46584   0.73607   0.00000  Uiso   1.00
O860   O     0.60119   0.52512   0.71806   0.00000  Uiso   1.00
O861   O     0.40323   0.52293   0.77820   0.00000  Uiso   1.00
O862   O     0.58773   0.48610   0.76768   0.00000  Uiso   1.00
O863   O     0.47133   0.40236   0.73607   0.00000  Uiso   1.00
O864   O     0.53771   0.58860   0.71806   0.00000  Uiso   1.00
Zn865  Zn    0.52577   0.47423   0.78278   0.00000  Uiso   1.00
Zn866  Zn    0.46792   0.45711   0.72258   0.00000  Uiso   1.00
Zn867  Zn    0.54500   0.52997   0.71188   0.00000  Uiso   1.00
Zn868  Zn    0.46131   0.53868   0.78277   0.00000  Uiso   1.00
C869   C     0.71958   0.49359   0.75825   0.00000  Uiso   1.00
C870   C     0.86429   0.46044   0.95958   0.00000  Uiso   1.00
C871   C     0.88743   0.44348   0.97945   0.00000  Uiso   1.00
C872   C     0.94760   0.50669   0.74142   0.00000  Uiso   1.00
C873   C     0.87824   0.45008   0.52041   0.00000  Uiso   1.00
C874   C     0.84243   0.47156   0.54194   0.00000  Uiso   1.00
C875   C     0.90481   0.43669   0.54034   0.00000  Uiso   1.00
C876   C     0.89695   0.44608   0.58094   0.00000  Uiso   1.00
C877   C     0.83753   0.48293   0.58240   0.00000  Uiso   1.00
C878   C     0.99320   0.50842   0.73843   0.00000  Uiso   1.00
C879   C     0.67435   0.49014   0.76315   0.00000  Uiso   1.00
C880   C     0.76119   0.54132   0.92100   0.00000  Uiso   1.00
C881   C     0.84824   0.65561   0.73769   0.00000  Uiso   1.00
C882   C     0.81891   0.34541   0.76182   0.00000  Uiso   1.00
C883   C     0.82210   0.38958   0.75942   0.00000  Uiso   1.00
C884   C     0.84369   0.61101   0.74126   0.00000  Uiso   1.00
C885   C     0.85481   0.47865   0.64410   0.00000  Uiso   1.00
C886   C     0.81204   0.52075   0.85618   0.00000  Uiso   1.00
C887   C     0.79901   0.52448   0.89950   0.00000  Uiso   1.00
C888   C     0.86371   0.46947   0.60169   0.00000  Uiso   1.00
C889   C     0.74619   0.53904   0.96151   0.00000  Uiso   1.00
C890   C     0.98100   0.46775   0.79577   0.00000  Uiso   1.00
C891   C     0.82245   0.50688   0.91916   0.00000  Uiso   1.00
C892   C     0.88443   0.34049   0.70807   0.00000  Uiso   1.00
C893   C     0.74873   0.48511   0.57996   0.00000  Uiso   1.00
C894   C     0.80710   0.50270   0.95983   0.00000  Uiso   1.00
C895   C     0.76852   0.51946   0.98097   0.00000  Uiso   1.00
C896   C     0.82915   0.48268   0.98000   0.00000  Uiso   1.00
C897   C     0.81483   0.48383   0.52183   0.00000  Uiso   1.00
C898   C     0.77329   0.49635   0.54127   0.00000  Uiso   1.00
C899   C     0.75151   0.51496   0.52096   0.00000  Uiso   1.00
Cl900  Cl    0.94880   0.40872   0.51579   0.00000  Uiso   1.00
H901   H     0.72030   0.52506   0.53631   0.00000  Uiso   1.00
H902   H     0.87404   0.45435   0.92797   0.00000  Uiso   1.00
H903   H     0.68262   0.52512   0.71519   0.00000  Uiso   1.00
H904   H     0.79169   0.66513   0.78382   0.00000  Uiso   1.00
H905   H     0.81505   0.50416   0.59931   0.00000  Uiso   1.00
H906   H     0.91706   0.43555   0.59629   0.00000  Uiso   1.00
H907   H     0.91384   0.42663   0.96209   0.00000  Uiso   1.00
H908   H     0.71647   0.55165   0.97751   0.00000  Uiso   1.00
H909   H     0.74248   0.55502   0.90638   0.00000  Uiso   1.00
H910   H     0.85266   0.49667   0.90186   0.00000  Uiso   1.00
N911   N     0.95984   0.44987   0.82187   0.00000  Uiso   1.00
N912   N     0.91324   0.35503   0.68449   0.00000  Uiso   1.00
N913   N     0.72887   0.47607   0.61086   0.00000  Uiso   1.00
O914   O     0.83333   0.50000   0.75000   0.00000  Uiso   1.00
O915   O     0.82360   0.45726   0.66625   0.00000  Uiso   1.00
O916   O     0.79354   0.53979   0.83749   0.00000  Uiso   1.00
O917   O     0.87755   0.50826   0.65877   0.00000  Uiso   1.00
O918   O     0.83865   0.49468   0.83749   0.00000  Uiso   1.00
O919   O     0.84515   0.41434   0.77821   0.00000  Uiso   1.00
O920   O     0.81247   0.59469   0.76767   0.00000  Uiso   1.00
O921   O     0.74119   0.46584   0.73607   0.00000  Uiso   1.00
O922   O     0.93452   0.52512   0.71806   0.00000  Uiso   1.00
O923   O     0.73656   0.52293   0.77820   0.00000  Uiso   1.00
O924   O     0.92106   0.48610   0.76768   0.00000  Uiso   1.00
O925   O     0.80467   0.40236   0.73607   0.00000  Uiso   1.00
O926   O     0.87104   0.58860   0.71806   0.00000  Uiso   1.00
Zn927  Zn    0.85910   0.47423   0.78278   0.00000  Uiso   1.00
Zn928  Zn    0.80125   0.45711   0.72258   0.00000  Uiso   1.00
Zn929  Zn    0.87833   0.52997   0.71188   0.00000  Uiso   1.00
Zn930  Zn    0.79465   0.53868   0.78277   0.00000  Uiso   1.00
C931   C     0.05291   0.82693   0.75825   0.00000  Uiso   1.00
C932   C     0.19762   0.79378   0.95958   0.00000  Uiso   1.00
C933   C     0.22076   0.77681   0.97945   0.00000  Uiso   1.00
C934   C     0.28093   0.84003   0.74142   0.00000  Uiso   1.00
C935   C     0.21157   0.78342   0.52041   0.00000  Uiso   1.00
C936   C     0.17576   0.80489   0.54194   0.00000  Uiso   1.00
C937   C     0.23815   0.77002   0.54034   0.00000  Uiso   1.00
C938   C     0.23028   0.77941   0.58094   0.00000  Uiso   1.00
C939   C     0.17086   0.81627   0.58240   0.00000  Uiso   1.00
C940   C     0.32653   0.84176   0.73843   0.00000  Uiso   1.00
C941   C     0.00769   0.82347   0.76315   0.00000  Uiso   1.00
C942   C     0.09452   0.87466   0.92100   0.00000  Uiso   1.00
C943   C     0.18158   0.98894   0.73769   0.00000  Uiso   1.00
C944   C     0.15224   0.67875   0.76182   0.00000  Uiso   1.00
C945   C     0.15543   0.72291   0.75942   0.00000  Uiso   1.00
C946   C     0.17702   0.94434   0.74126   0.00000  Uiso   1.00
C947   C     0.18814   0.81198   0.64410   0.00000  Uiso   1.00
C948   C     0.14537   0.85409   0.85618   0.00000  Uiso   1.00
C949   C     0.13234   0.85782   0.89950   0.00000  Uiso   1.00
C950   C     0.19704   0.80280   0.60169   0.00000  Uiso   1.00
C951   C     0.07952   0.87237   0.96151   0.00000  Uiso   1.00
C952   C     0.31433   0.80109   0.79577   0.00000  Uiso   1.00
C953   C     0.15578   0.84021   0.91916   0.00000  Uiso   1.00
C954   C     0.21776   0.67382   0.70807   0.00000  Uiso   1.00
C955   C     0.08207   0.81844   0.57996   0.00000  Uiso   1.00
C956   C     0.14044   0.83603   0.95983   0.00000  Uiso   1.00
C957   C     0.10185   0.85279   0.98097   0.00000  Uiso   1.00
C958   C     0.16249   0.81602   0.98000   0.00000  Uiso   1.00
C959   C     0.14816   0.81716   0.52183   0.00000  Uiso   1.00
C960   C     0.10662   0.82968   0.54127   0.00000  Uiso   1.00
C961   C     0.08484   0.84829   0.52096   0.00000  Uiso   1.00
Cl962  Cl    0.28213   0.74205   0.51579   0.00000  Uiso   1.00
H963   H     0.05363   0.85839   0.53631   0.00000  Uiso   1.00
H964   H     0.20738   0.78768   0.92797   0.00000  Uiso   1.00
H965   H     0.01596   0.85846   0.71519   0.00000  Uiso   1.00
H966   H     0.12502   0.99846   0.78382   0.00000  Uiso   1.00
H967   H     0.14838   0.83750   0.59931   0.00000  Uiso   1.00
H968   H     0.25039   0.76888   0.59629   0.00000  Uiso   1.00
H969   H     0.24717   0.75996   0.96209   0.00000  Uiso   1.00
H970   H     0.04980   0.88498   0.97751   0.00000  Uiso   1.00
H971   H     0.07582   0.88835   0.90638   0.00000  Uiso   1.00
H972   H     0.18600   0.83000   0.90186   0.00000  Uiso   1.00
N973   N     0.29318   0.78321   0.82187   0.00000  Uiso   1.00
N974   N     0.24658   0.68836   0.68449   0.00000  Uiso   1.00
N975   N     0.06220   0.80941   0.61086   0.00000  Uiso   1.00
O976   O     0.16667   0.83333   0.75000   0.00000  Uiso   1.00
O977   O     0.15693   0.79060   0.66625   0.00000  Uiso   1.00
O978   O     0.12687   0.87313   0.83749   0.00000  Uiso   1.00
O979   O     0.21088   0.84159   0.65877   0.00000  Uiso   1.00
O980   O     0.17198   0.82802   0.83749   0.00000  Uiso   1.00
O981   O     0.17849   0.74768   0.77821   0.00000  Uiso   1.00
O982   O     0.14581   0.92803   0.76767   0.00000  Uiso   1.00
O983   O     0.07452   0.79917   0.73607   0.00000  Uiso   1.00
O984   O     0.26785   0.85845   0.71806   0.00000  Uiso   1.00
O985   O     0.06990   0.85627   0.77820   0.00000  Uiso   1.00
O986   O     0.25440   0.81944   0.76768   0.00000  Uiso   1.00
O987   O     0.13800   0.73570   0.73607   0.00000  Uiso   1.00
O988   O     0.20437   0.92193   0.71806   0.00000  Uiso   1.00
Zn989  Zn    0.19244   0.80756   0.78278   0.00000  Uiso   1.00
Zn990  Zn    0.13459   0.79044   0.72258   0.00000  Uiso   1.00
Zn991  Zn    0.21166   0.86331   0.71188   0.00000  Uiso   1.00
Zn992  Zn    0.12798   0.87202   0.78277   0.00000  Uiso   1.00
C993   C     0.38625   0.82693   0.75825   0.00000  Uiso   1.00
C994   C     0.53096   0.79378   0.95958   0.00000  Uiso   1.00
C995   C     0.55409   0.77681   0.97945   0.00000  Uiso   1.00
C996   C     0.61427   0.84003   0.74142   0.00000  Uiso   1.00
C997   C     0.54490   0.78342   0.52041   0.00000  Uiso   1.00
C998   C     0.50910   0.80489   0.54194   0.00000  Uiso   1.00
C999   C     0.57148   0.77002   0.54034   0.00000  Uiso   1.00
C1000  C     0.56362   0.77941   0.58094   0.00000  Uiso   1.00
C1001  C     0.50420   0.81627   0.58240   0.00000  Uiso   1.00
C1002  C     0.65987   0.84176   0.73843   0.00000  Uiso   1.00
C1003  C     0.34102   0.82347   0.76315   0.00000  Uiso   1.00
C1004  C     0.42786   0.87466   0.92100   0.00000  Uiso   1.00
C1005  C     0.51491   0.98894   0.73769   0.00000  Uiso   1.00
C1006  C     0.48558   0.67875   0.76182   0.00000  Uiso   1.00
C1007  C     0.48876   0.72291   0.75942   0.00000  Uiso   1.00
C1008  C     0.51035   0.94434   0.74126   0.00000  Uiso   1.00
C1009  C     0.52148   0.81198   0.64410   0.00000  Uiso   1.00
C1010  C     0.47870   0.85409   0.85618   0.00000  Uiso   1.00
C1011  C     0.46568   0.85782   0.89950   0.00000  Uiso   1.00
C1012  C     0.53038   0.80280   0.60169   0.00000  Uiso   1.00
C1013  C     0.41286   0.87237   0.96151   0.00000  Uiso   1.00
C1014  C     0.64767   0.80109   0.79577   0.00000  Uiso   1.00
C1015  C     0.48911   0.84021   0.91916   0.00000  Uiso   1.00
C1016  C     0.55109   0.67382   0.70807   0.00000  Uiso   1.00
C1017  C     0.41540   0.81844   0.57996   0.00000  Uiso   1.00
C1018  C     0.47377   0.83603   0.95983   0.00000  Uiso   1.00
C1019  C     0.43519   0.85279   0.98097   0.00000  Uiso   1.00
C1020  C     0.49582   0.81602   0.98000   0.00000  Uiso   1.00
C1021  C     0.48150   0.81716   0.52183   0.00000  Uiso   1.00
C1022  C     0.43996   0.82968   0.54127   0.00000  Uiso   1.00
C1023  C     0.41817   0.84829   0.52096   0.00000  Uiso   1.00
Cl1024 Cl    0.61546   0.74205   0.51579   0.00000  Uiso   1.00
H1025  H     0.38697   0.85839   0.53631   0.00000  Uiso   1.00
H1026  H     0.54071   0.78768   0.92797   0.00000  Uiso   1.00
H1027  H     0.34929   0.85846   0.71519   0.00000  Uiso   1.00
H1028  H     0.45836   0.99846   0.78382   0.00000  Uiso   1.00
H1029  H     0.48172   0.83750   0.59931   0.00000  Uiso   1.00
H1030  H     0.58373   0.76888   0.59629   0.00000  Uiso   1.00
H1031  H     0.58050   0.75996   0.96209   0.00000  Uiso   1.00
H1032  H     0.38314   0.88498   0.97751   0.00000  Uiso   1.00
H1033  H     0.40915   0.88835   0.90638   0.00000  Uiso   1.00
H1034  H     0.51933   0.83000   0.90186   0.00000  Uiso   1.00
N1035  N     0.62651   0.78321   0.82187   0.00000  Uiso   1.00
N1036  N     0.57991   0.68836   0.68449   0.00000  Uiso   1.00
N1037  N     0.39554   0.80941   0.61086   0.00000  Uiso   1.00
O1038  O     0.50000   0.83333   0.75000   0.00000  Uiso   1.00
O1039  O     0.49027   0.79060   0.66625   0.00000  Uiso   1.00
O1040  O     0.46020   0.87313   0.83749   0.00000  Uiso   1.00
O1041  O     0.54421   0.84159   0.65877   0.00000  Uiso   1.00
O1042  O     0.50532   0.82802   0.83749   0.00000  Uiso   1.00
O1043  O     0.51182   0.74768   0.77821   0.00000  Uiso   1.00
O1044  O     0.47914   0.92803   0.76767   0.00000  Uiso   1.00
O1045  O     0.40785   0.79917   0.73607   0.00000  Uiso   1.00
O1046  O     0.60119   0.85845   0.71806   0.00000  Uiso   1.00
O1047  O     0.40323   0.85627   0.77820   0.00000  Uiso   1.00
O1048  O     0.58773   0.81944   0.76768   0.00000  Uiso   1.00
O1049  O     0.47133   0.73570   0.73607   0.00000  Uiso   1.00
O1050  O     0.53771   0.92193   0.71806   0.00000  Uiso   1.00
Zn1051 Zn    0.52577   0.80756   0.78278   0.00000  Uiso   1.00
Zn1052 Zn    0.46792   0.79044   0.72258   0.00000  Uiso   1.00
Zn1053 Zn    0.54500   0.86331   0.71188   0.00000  Uiso   1.00
Zn1054 Zn    0.46131   0.87202   0.78277   0.00000  Uiso   1.00
C1055  C     0.71958   0.82693   0.75825   0.00000  Uiso   1.00
C1056  C     0.86429   0.79378   0.95958   0.00000  Uiso   1.00
C1057  C     0.88743   0.77681   0.97945   0.00000  Uiso   1.00
C1058  C     0.94760   0.84003   0.74142   0.00000  Uiso   1.00
C1059  C     0.87824   0.78342   0.52041   0.00000  Uiso   1.00
C1060  C     0.84243   0.80489   0.54194   0.00000  Uiso   1.00
C1061  C     0.90481   0.77002   0.54034   0.00000  Uiso   1.00
C1062  C     0.89695   0.77941   0.58094   0.00000  Uiso   1.00
C1063  C     0.83753   0.81627   0.58240   0.00000  Uiso   1.00
C1064  C     0.99320   0.84176   0.73843   0.00000  Uiso   1.00
C1065  C     0.67435   0.82347   0.76315   0.00000  Uiso   1.00
C1066  C     0.76119   0.87466   0.92100   0.00000  Uiso   1.00
C1067  C     0.84824   0.98894   0.73769   0.00000  Uiso   1.00
C1068  C     0.81891   0.67875   0.76182   0.00000  Uiso   1.00
C1069  C     0.82210   0.72291   0.75942   0.00000  Uiso   1.00
C1070  C     0.84369   0.94434   0.74126   0.00000  Uiso   1.00
C1071  C     0.85481   0.81198   0.64410   0.00000  Uiso   1.00
C1072  C     0.81204   0.85409   0.85618   0.00000  Uiso   1.00
C1073  C     0.79901   0.85782   0.89950   0.00000  Uiso   1.00
C1074  C     0.86371   0.80280   0.60169   0.00000  Uiso   1.00
C1075  C     0.74619   0.87237   0.96151   0.00000  Uiso   1.00
C1076  C     0.98100   0.80109   0.79577   0.00000  Uiso   1.00
C1077  C     0.82245   0.84021   0.91916   0.00000  Uiso   1.00
C1078  C     0.88443   0.67382   0.70807   0.00000  Uiso   1.00
C1079  C     0.74873   0.81844   0.57996   0.00000  Uiso   1.00
C1080  C     0.80710   0.83603   0.95983   0.00000  Uiso   1.00
C1081  C     0.76852   0.85279   0.98097   0.00000  Uiso   1.00
C1082  C     0.82915   0.81602   0.98000   0.00000  Uiso   1.00
C1083  C     0.81483   0.81716   0.52183   0.00000  Uiso   1.00
C1084  C     0.77329   0.82968   0.54127   0.00000  Uiso   1.00
C1085  C     0.75151   0.84829   0.52096   0.00000  Uiso   1.00
Cl1086 Cl    0.94880   0.74205   0.51579   0.00000  Uiso   1.00
H1087  H     0.72030   0.85839   0.53631   0.00000  Uiso   1.00
H1088  H     0.87404   0.78768   0.92797   0.00000  Uiso   1.00
H1089  H     0.68262   0.85846   0.71519   0.00000  Uiso   1.00
H1090  H     0.79169   0.99846   0.78382   0.00000  Uiso   1.00
H1091  H     0.81505   0.83750   0.59931   0.00000  Uiso   1.00
H1092  H     0.91706   0.76888   0.59629   0.00000  Uiso   1.00
H1093  H     0.91384   0.75996   0.96209   0.00000  Uiso   1.00
H1094  H     0.71647   0.88498   0.97751   0.00000  Uiso   1.00
H1095  H     0.74248   0.88835   0.90638   0.00000  Uiso   1.00
H1096  H     0.85266   0.83000   0.90186   0.00000  Uiso   1.00
N1097  N     0.95984   0.78321   0.82187   0.00000  Uiso   1.00
N1098  N     0.91324   0.68836   0.68449   0.00000  Uiso   1.00
N1099  N     0.72887   0.80941   0.61086   0.00000  Uiso   1.00
O1100  O     0.83333   0.83333   0.75000   0.00000  Uiso   1.00
O1101  O     0.82360   0.79060   0.66625   0.00000  Uiso   1.00
O1102  O     0.79354   0.87313   0.83749   0.00000  Uiso   1.00
O1103  O     0.87755   0.84159   0.65877   0.00000  Uiso   1.00
O1104  O     0.83865   0.82802   0.83749   0.00000  Uiso   1.00
O1105  O     0.84515   0.74768   0.77821   0.00000  Uiso   1.00
O1106  O     0.81247   0.92803   0.76767   0.00000  Uiso   1.00
O1107  O     0.74119   0.79917   0.73607   0.00000  Uiso   1.00
O1108  O     0.93452   0.85845   0.71806   0.00000  Uiso   1.00
O1109  O     0.73656   0.85627   0.77820   0.00000  Uiso   1.00
O1110  O     0.92106   0.81944   0.76768   0.00000  Uiso   1.00
O1111  O     0.80467   0.73570   0.73607   0.00000  Uiso   1.00
O1112  O     0.87104   0.92193   0.71806   0.00000  Uiso   1.00
Zn1113 Zn    0.85910   0.80756   0.78278   0.00000  Uiso   1.00
Zn1114 Zn    0.80125   0.79044   0.72258   0.00000  Uiso   1.00
Zn1115 Zn    0.87833   0.86331   0.71188   0.00000  Uiso   1.00
Zn1116 Zn    0.79465   0.87202   0.78277   0.00000  Uiso   1.00
loop_
_geom_bond_atom_site_label_1
_geom_bond_atom_site_label_2
_geom_bond_distance
_geom_bond_site_symmetry_2
_ccdc_geom_bond_type
C1     C11     1.429   .     S
C1     O55     1.269   .     A
C1     O53     1.270   .     A
C2     H34     1.077   .     S
C2     C3      1.385   .     A
C2     C28     1.413   .     A
C3     H39     1.082   .     S
C3     C563    1.395   .     S
C4     O54     1.286   .     A
C4     O56     1.269   .     A
C4     C10     1.458   .     S
C5     C6      1.425   .     A
C5     C7      1.415   .     A
C5     C561    1.395   1_554 S
C6     C9      1.407   .     A
C6     C29     1.430   .     A
C7     C8      1.393   .     A
C7     Cl32    1.764   .     S
C8     H38     1.084   .     S
C8     C20     1.392   .     A
C9     H37     1.079   .     S
C9     C20     1.390   .     A
C10    C73     1.349   .     S
C10    H97     1.088   .     S
C11    C134    1.349   1_455 S
C11    C146    1.450   1_455 S
C12    C21     1.393   .     A
C12    C19     1.400   .     A
C12    H41     1.083   .     S
C13    C16     1.456   .     S
C13    C200    1.338   .     S
C13    C210    1.453   .     S
C14    C15     1.438   .     S
C14    C385    1.338   1_545 S
C14    H408    1.086   1_545 S
C15    O51     1.276   .     A
C15    O57     1.276   .     A
C16    O58     1.273   .     A
C16    O52     1.278   .     A
C17    O47     1.275   .     A
C17    O49     1.276   .     A
C17    C20     1.451   .     S
C18    O50     1.286   .     A
C18    C19     1.471   .     S
C18    O48     1.284   .     A
C19    C23     1.398   .     A
C21    C27     1.404   .     A
C21    H40     1.084   .     S
C22    N43     1.158   .     T
C22    C73     1.450   .     S
C23    H42     1.077   .     S
C23    C26     1.409   .     A
C24    N44     1.157   .     T
C24    C385    1.453   1_545 S
C25    N45     1.158   .     T
C25    C30     1.447   .     S
C26    C28     1.424   .     A
C26    C27     1.416   .     A
C27    C589    1.392   .     S
C28    C587    1.425   .     S
C29    C30     1.428   .     A
C29    C586    1.425   1_554 S
C30    C31     1.394   .     A
C31    H33     1.086   .     S
C31    C585    1.392   1_554 S
H35    C134    1.088   1_455 S
H36    C200    1.086   .     S
O46    Zn59    1.955   .     S
O46    Zn62    1.942   .     S
O46    Zn61    1.936   .     S
O46    Zn60    1.946   .     S
O47    Zn60    1.928   .     S
O48    Zn62    1.935   .     S
O49    Zn61    1.933   .     S
O50    Zn59    1.928   .     S
O51    Zn59    1.930   .     S
O52    Zn62    1.929   .     S
O53    Zn60    1.939   .     S
O54    Zn61    1.945   .     S
O55    Zn62    1.941   .     S
O56    Zn59    1.936   .     S
O57    Zn60    1.934   .     S
O58    Zn61    1.932   .     S
C63    C73     1.429   .     S
C63    O117    1.269   .     A
C63    O115    1.270   .     A
C64    H96     1.077   .     S
C64    C65     1.385   .     A
C64    C90     1.413   .     A
C65    H101    1.082   .     S
C65    C625    1.395   .     S
C66    O116    1.286   .     A
C66    O118    1.269   .     A
C66    C72     1.458   .     S
C67    C68     1.425   .     A
C67    C69     1.415   .     A
C67    C623    1.395   1_554 S
C68    C71     1.407   .     A
C68    C91     1.430   .     A
C69    C70     1.393   .     A
C69    Cl94    1.764   .     S
C70    H100    1.084   .     S
C70    C82     1.392   .     A
C71    H99     1.079   .     S
C71    C82     1.390   .     A
C72    C135    1.349   .     S
C72    H159    1.088   .     S
C74    C83     1.393   .     A
C74    C81     1.400   .     A
C74    H103    1.083   .     S
C75    C78     1.456   .     S
C75    C262    1.338   .     S
C75    C272    1.453   .     S
C76    C77     1.438   .     S
C76    C447    1.338   1_545 S
C76    H470    1.086   1_545 S
C77    O113    1.276   .     A
C77    O119    1.276   .     A
C78    O120    1.273   .     A
C78    O114    1.278   .     A
C79    O109    1.275   .     A
C79    O111    1.276   .     A
C79    C82     1.451   .     S
C80    O112    1.286   .     A
C80    C81     1.471   .     S
C80    O110    1.284   .     A
C81    C85     1.398   .     A
C83    C89     1.404   .     A
C83    H102    1.084   .     S
C84    N105    1.158   .     T
C84    C135    1.450   .     S
C85    H104    1.077   .     S
C85    C88     1.409   .     A
C86    N106    1.157   .     T
C86    C447    1.453   1_545 S
C87    N107    1.158   .     T
C87    C92     1.447   .     S
C88    C90     1.424   .     A
C88    C89     1.416   .     A
C89    C651    1.392   .     S
C90    C649    1.425   .     S
C91    C92     1.428   .     A
C91    C648    1.425   1_554 S
C92    C93     1.394   .     A
C93    H95     1.086   .     S
C93    C647    1.392   1_554 S
H98    C262    1.086   .     S
O108   Zn121   1.955   .     S
O108   Zn124   1.942   .     S
O108   Zn123   1.936   .     S
O108   Zn122   1.946   .     S
O109   Zn122   1.928   .     S
O110   Zn124   1.935   .     S
O111   Zn123   1.933   .     S
O112   Zn121   1.928   .     S
O113   Zn121   1.930   .     S
O114   Zn124   1.929   .     S
O115   Zn122   1.939   .     S
O116   Zn123   1.945   .     S
O117   Zn124   1.941   .     S
O118   Zn121   1.936   .     S
O119   Zn122   1.934   .     S
O120   Zn123   1.932   .     S
C125   C135    1.429   .     S
C125   O179    1.269   .     A
C125   O177    1.270   .     A
C126   H158    1.077   .     S
C126   C127    1.385   .     A
C126   C152    1.413   .     A
C127   H163    1.082   .     S
C127   C687    1.395   .     S
C128   O178    1.286   .     A
C128   O180    1.269   .     A
C128   C134    1.458   .     S
C129   C130    1.425   .     A
C129   C131    1.415   .     A
C129   C685    1.395   1_554 S
C130   C133    1.407   .     A
C130   C153    1.430   .     A
C131   C132    1.393   .     A
C131   Cl156   1.764   .     S
C132   H162    1.084   .     S
C132   C144    1.392   .     A
C133   H161    1.079   .     S
C133   C144    1.390   .     A
C134   C11     1.349   1_655 S
C134   H35     1.088   1_655 S
C136   C145    1.393   .     A
C136   C143    1.400   .     A
C136   H165    1.083   .     S
C137   C140    1.456   .     S
C137   C324    1.338   .     S
C137   C334    1.453   .     S
C138   C139    1.438   .     S
C138   C509    1.338   1_545 S
C138   H532    1.086   1_545 S
C139   O175    1.276   .     A
C139   O181    1.276   .     A
C140   O182    1.273   .     A
C140   O176    1.278   .     A
C141   O171    1.275   .     A
C141   O173    1.276   .     A
C141   C144    1.451   .     S
C142   O174    1.286   .     A
C142   C143    1.471   .     S
C142   O172    1.284   .     A
C143   C147    1.398   .     A
C145   C151    1.404   .     A
C145   H164    1.084   .     S
C146   N167    1.158   .     T
C146   C11     1.450   1_655 S
C147   H166    1.077   .     S
C147   C150    1.409   .     A
C148   N168    1.157   .     T
C148   C509    1.453   1_545 S
C149   N169    1.158   .     T
C149   C154    1.447   .     S
C150   C152    1.424   .     A
C150   C151    1.416   .     A
C151   C713    1.392   .     S
C152   C711    1.425   .     S
C153   C154    1.428   .     A
C153   C710    1.425   1_554 S
C154   C155    1.394   .     A
C155   H157    1.086   .     S
C155   C709    1.392   1_554 S
H160   C324    1.086   .     S
O170   Zn183   1.955   .     S
O170   Zn186   1.942   .     S
O170   Zn185   1.936   .     S
O170   Zn184   1.946   .     S
O171   Zn184   1.928   .     S
O172   Zn186   1.935   .     S
O173   Zn185   1.933   .     S
O174   Zn183   1.928   .     S
O175   Zn183   1.930   .     S
O176   Zn186   1.929   .     S
O177   Zn184   1.939   .     S
O178   Zn185   1.945   .     S
O179   Zn186   1.941   .     S
O180   Zn183   1.936   .     S
O181   Zn184   1.934   .     S
O182   Zn185   1.932   .     S
C187   C197    1.429   .     S
C187   O241    1.269   .     A
C187   O239    1.270   .     A
C188   H220    1.077   .     S
C188   C189    1.385   .     A
C188   C214    1.413   .     A
C189   H225    1.082   .     S
C189   C749    1.395   .     S
C190   O240    1.286   .     A
C190   O242    1.269   .     A
C190   C196    1.458   .     S
C191   C192    1.425   .     A
C191   C193    1.415   .     A
C191   C747    1.395   1_554 S
C192   C195    1.407   .     A
C192   C215    1.430   .     A
C193   C194    1.393   .     A
C193   Cl218   1.764   .     S
C194   H224    1.084   .     S
C194   C206    1.392   .     A
C195   H223    1.079   .     S
C195   C206    1.390   .     A
C196   C259    1.349   .     S
C196   H283    1.088   .     S
C197   C320    1.349   1_455 S
C197   C332    1.450   1_455 S
C198   C207    1.393   .     A
C198   C205    1.400   .     A
C198   H227    1.083   .     S
C199   C202    1.456   .     S
C199   C386    1.338   .     S
C199   C396    1.453   .     S
C200   C201    1.438   .     S
C201   O237    1.276   .     A
C201   O243    1.276   .     A
C202   O244    1.273   .     A
C202   O238    1.278   .     A
C203   O233    1.275   .     A
C203   O235    1.276   .     A
C203   C206    1.451   .     S
C204   O236    1.286   .     A
C204   C205    1.471   .     S
C204   O234    1.284   .     A
C205   C209    1.398   .     A
C207   C213    1.404   .     A
C207   H226    1.084   .     S
C208   N229    1.158   .     T
C208   C259    1.450   .     S
C209   H228    1.077   .     S
C209   C212    1.409   .     A
C210   N230    1.157   .     T
C211   N231    1.158   .     T
C211   C216    1.447   .     S
C212   C214    1.424   .     A
C212   C213    1.416   .     A
C213   C775    1.392   .     S
C214   C773    1.425   .     S
C215   C216    1.428   .     A
C215   C772    1.425   1_554 S
C216   C217    1.394   .     A
C217   H219    1.086   .     S
C217   C771    1.392   1_554 S
H221   C320    1.088   1_455 S
H222   C386    1.086   .     S
O232   Zn245   1.955   .     S
O232   Zn248   1.942   .     S
O232   Zn247   1.936   .     S
O232   Zn246   1.946   .     S
O233   Zn246   1.928   .     S
O234   Zn248   1.935   .     S
O235   Zn247   1.933   .     S
O236   Zn245   1.928   .     S
O237   Zn245   1.930   .     S
O238   Zn248   1.929   .     S
O239   Zn246   1.939   .     S
O240   Zn247   1.945   .     S
O241   Zn248   1.941   .     S
O242   Zn245   1.936   .     S
O243   Zn246   1.934   .     S
O244   Zn247   1.932   .     S
C249   C259    1.429   .     S
C249   O303    1.269   .     A
C249   O301    1.270   .     A
C250   H282    1.077   .     S
C250   C251    1.385   .     A
C250   C276    1.413   .     A
C251   H287    1.082   .     S
C251   C811    1.395   .     S
C252   O302    1.286   .     A
C252   O304    1.269   .     A
C252   C258    1.458   .     S
C253   C254    1.425   .     A
C253   C255    1.415   .     A
C253   C809    1.395   1_554 S
C254   C257    1.407   .     A
C254   C277    1.430   .     A
C255   C256    1.393   .     A
C255   Cl280   1.764   .     S
C256   H286    1.084   .     S
C256   C268    1.392   .     A
C257   H285    1.079   .     S
C257   C268    1.390   .     A
C258   C321    1.349   .     S
C258   H345    1.088   .     S
C260   C269    1.393   .     A
C260   C267    1.400   .     A
C260   H289    1.083   .     S
C261   C264    1.456   .     S
C261   C448    1.338   .     S
C261   C458    1.453   .     S
C262   C263    1.438   .     S
C263   O299    1.276   .     A
C263   O305    1.276   .     A
C264   O306    1.273   .     A
C264   O300    1.278   .     A
C265   O295    1.275   .     A
C265   O297    1.276   .     A
C265   C268    1.451   .     S
C266   O298    1.286   .     A
C266   C267    1.471   .     S
C266   O296    1.284   .     A
C267   C271    1.398   .     A
C269   C275    1.404   .     A
C269   H288    1.084   .     S
C270   N291    1.158   .     T
C270   C321    1.450   .     S
C271   H290    1.077   .     S
C271   C274    1.409   .     A
C272   N292    1.157   .     T
C273   N293    1.158   .     T
C273   C278    1.447   .     S
C274   C276    1.424   .     A
C274   C275    1.416   .     A
C275   C837    1.392   .     S
C276   C835    1.425   .     S
C277   C278    1.428   .     A
C277   C834    1.425   1_554 S
C278   C279    1.394   .     A
C279   H281    1.086   .     S
C279   C833    1.392   1_554 S
H284   C448    1.086   .     S
O294   Zn307   1.955   .     S
O294   Zn310   1.942   .     S
O294   Zn309   1.936   .     S
O294   Zn308   1.946   .     S
O295   Zn308   1.928   .     S
O296   Zn310   1.935   .     S
O297   Zn309   1.933   .     S
O298   Zn307   1.928   .     S
O299   Zn307   1.930   .     S
O300   Zn310   1.929   .     S
O301   Zn308   1.939   .     S
O302   Zn309   1.945   .     S
O303   Zn310   1.941   .     S
O304   Zn307   1.936   .     S
O305   Zn308   1.934   .     S
O306   Zn309   1.932   .     S
C311   C321    1.429   .     S
C311   O365    1.269   .     A
C311   O363    1.270   .     A
C312   H344    1.077   .     S
C312   C313    1.385   .     A
C312   C338    1.413   .     A
C313   H349    1.082   .     S
C313   C873    1.395   .     S
C314   O364    1.286   .     A
C314   O366    1.269   .     A
C314   C320    1.458   .     S
C315   C316    1.425   .     A
C315   C317    1.415   .     A
C315   C871    1.395   1_554 S
C316   C319    1.407   .     A
C316   C339    1.430   .     A
C317   C318    1.393   .     A
C317   Cl342   1.764   .     S
C318   H348    1.084   .     S
C318   C330    1.392   .     A
C319   H347    1.079   .     S
C319   C330    1.390   .     A
C320   C197    1.349   1_655 S
C320   H221    1.088   1_655 S
C322   C331    1.393   .     A
C322   C329    1.400   .     A
C322   H351    1.083   .     S
C323   C326    1.456   .     S
C323   C510    1.338   .     S
C323   C520    1.453   .     S
C324   C325    1.438   .     S
C325   O361    1.276   .     A
C325   O367    1.276   .     A
C326   O368    1.273   .     A
C326   O362    1.278   .     A
C327   O357    1.275   .     A
C327   O359    1.276   .     A
C327   C330    1.451   .     S
C328   O360    1.286   .     A
C328   C329    1.471   .     S
C328   O358    1.284   .     A
C329   C333    1.398   .     A
C331   C337    1.404   .     A
C331   H350    1.084   .     S
C332   N353    1.158   .     T
C332   C197    1.450   1_655 S
C333   H352    1.077   .     S
C333   C336    1.409   .     A
C334   N354    1.157   .     T
C335   N355    1.158   .     T
C335   C340    1.447   .     S
C336   C338    1.424   .     A
C336   C337    1.416   .     A
C337   C899    1.392   .     S
C338   C897    1.425   .     S
C339   C340    1.428   .     A
C339   C896    1.425   1_554 S
C340   C341    1.394   .     A
C341   H343    1.086   .     S
C341   C895    1.392   1_554 S
H346   C510    1.086   .     S
O356   Zn369   1.955   .     S
O356   Zn372   1.942   .     S
O356   Zn371   1.936   .     S
O356   Zn370   1.946   .     S
O357   Zn370   1.928   .     S
O358   Zn372   1.935   .     S
O359   Zn371   1.933   .     S
O360   Zn369   1.928   .     S
O361   Zn369   1.930   .     S
O362   Zn372   1.929   .     S
O363   Zn370   1.939   .     S
O364   Zn371   1.945   .     S
O365   Zn372   1.941   .     S
O366   Zn369   1.936   .     S
O367   Zn370   1.934   .     S
O368   Zn371   1.932   .     S
C373   C383    1.429   .     S
C373   O427    1.269   .     A
C373   O425    1.270   .     A
C374   H406    1.077   .     S
C374   C375    1.385   .     A
C374   C400    1.413   .     A
C375   H411    1.082   .     S
C375   C935    1.395   .     S
C376   O426    1.286   .     A
C376   O428    1.269   .     A
C376   C382    1.458   .     S
C377   C378    1.425   .     A
C377   C379    1.415   .     A
C377   C933    1.395   1_554 S
C378   C381    1.407   .     A
C378   C401    1.430   .     A
C379   C380    1.393   .     A
C379   Cl404   1.764   .     S
C380   H410    1.084   .     S
C380   C392    1.392   .     A
C381   H409    1.079   .     S
C381   C392    1.390   .     A
C382   C445    1.349   .     S
C382   H469    1.088   .     S
C383   C506    1.349   1_455 S
C383   C518    1.450   1_455 S
C384   C393    1.393   .     A
C384   C391    1.400   .     A
C384   H413    1.083   .     S
C385   C388    1.456   .     S
C385   C14     1.338   1_565 S
C385   C24     1.453   1_565 S
C386   C387    1.438   .     S
C387   O423    1.276   .     A
C387   O429    1.276   .     A
C388   O430    1.273   .     A
C388   O424    1.278   .     A
C389   O419    1.275   .     A
C389   O421    1.276   .     A
C389   C392    1.451   .     S
C390   O422    1.286   .     A
C390   C391    1.471   .     S
C390   O420    1.284   .     A
C391   C395    1.398   .     A
C393   C399    1.404   .     A
C393   H412    1.084   .     S
C394   N415    1.158   .     T
C394   C445    1.450   .     S
C395   H414    1.077   .     S
C395   C398    1.409   .     A
C396   N416    1.157   .     T
C397   N417    1.158   .     T
C397   C402    1.447   .     S
C398   C400    1.424   .     A
C398   C399    1.416   .     A
C399   C961    1.392   .     S
C400   C959    1.425   .     S
C401   C402    1.428   .     A
C401   C958    1.425   1_554 S
C402   C403    1.394   .     A
C403   H405    1.086   .     S
C403   C957    1.392   1_554 S
H407   C506    1.088   1_455 S
H408   C14     1.086   1_565 S
O418   Zn431   1.955   .     S
O418   Zn434   1.942   .     S
O418   Zn433   1.936   .     S
O418   Zn432   1.946   .     S
O419   Zn432   1.928   .     S
O420   Zn434   1.935   .     S
O421   Zn433   1.933   .     S
O422   Zn431   1.928   .     S
O423   Zn431   1.930   .     S
O424   Zn434   1.929   .     S
O425   Zn432   1.939   .     S
O426   Zn433   1.945   .     S
O427   Zn434   1.941   .     S
O428   Zn431   1.936   .     S
O429   Zn432   1.934   .     S
O430   Zn433   1.932   .     S
C435   C445    1.429   .     S
C435   O489    1.269   .     A
C435   O487    1.270   .     A
C436   H468    1.077   .     S
C436   C437    1.385   .     A
C436   C462    1.413   .     A
C437   H473    1.082   .     S
C437   C997    1.395   .     S
C438   O488    1.286   .     A
C438   O490    1.269   .     A
C438   C444    1.458   .     S
C439   C440    1.425   .     A
C439   C441    1.415   .     A
C439   C995    1.395   1_554 S
C440   C443    1.407   .     A
C440   C463    1.430   .     A
C441   C442    1.393   .     A
C441   Cl466   1.764   .     S
C442   H472    1.084   .     S
C442   C454    1.392   .     A
C443   H471    1.079   .     S
C443   C454    1.390   .     A
C444   C507    1.349   .     S
C444   H531    1.088   .     S
C446   C455    1.393   .     A
C446   C453    1.400   .     A
C446   H475    1.083   .     S
C447   C450    1.456   .     S
C447   C76     1.338   1_565 S
C447   C86     1.453   1_565 S
C448   C449    1.438   .     S
C449   O485    1.276   .     A
C449   O491    1.276   .     A
C450   O492    1.273   .     A
C450   O486    1.278   .     A
C451   O481    1.275   .     A
C451   O483    1.276   .     A
C451   C454    1.451   .     S
C452   O484    1.286   .     A
C452   C453    1.471   .     S
C452   O482    1.284   .     A
C453   C457    1.398   .     A
C455   C461    1.404   .     A
C455   H474    1.084   .     S
C456   N477    1.158   .     T
C456   C507    1.450   .     S
C457   H476    1.077   .     S
C457   C460    1.409   .     A
C458   N478    1.157   .     T
C459   N479    1.158   .     T
C459   C464    1.447   .     S
C460   C462    1.424   .     A
C460   C461    1.416   .     A
C461   C1023   1.392   .     S
C462   C1021   1.425   .     S
C463   C464    1.428   .     A
C463   C1020   1.425   1_554 S
C464   C465    1.394   .     A
C465   H467    1.086   .     S
C465   C1019   1.392   1_554 S
H470   C76     1.086   1_565 S
O480   Zn493   1.955   .     S
O480   Zn496   1.942   .     S
O480   Zn495   1.936   .     S
O480   Zn494   1.946   .     S
O481   Zn494   1.928   .     S
O482   Zn496   1.935   .     S
O483   Zn495   1.933   .     S
O484   Zn493   1.928   .     S
O485   Zn493   1.930   .     S
O486   Zn496   1.929   .     S
O487   Zn494   1.939   .     S
O488   Zn495   1.945   .     S
O489   Zn496   1.941   .     S
O490   Zn493   1.936   .     S
O491   Zn494   1.934   .     S
O492   Zn495   1.932   .     S
C497   C507    1.429   .     S
C497   O551    1.269   .     A
C497   O549    1.270   .     A
C498   H530    1.077   .     S
C498   C499    1.385   .     A
C498   C524    1.413   .     A
C499   H535    1.082   .     S
C499   C1059   1.395   .     S
C500   O550    1.286   .     A
C500   O552    1.269   .     A
C500   C506    1.458   .     S
C501   C502    1.425   .     A
C501   C503    1.415   .     A
C501   C1057   1.395   1_554 S
C502   C505    1.407   .     A
C502   C525    1.430   .     A
C503   C504    1.393   .     A
C503   Cl528   1.764   .     S
C504   H534    1.084   .     S
C504   C516    1.392   .     A
C505   H533    1.079   .     S
C505   C516    1.390   .     A
C506   C383    1.349   1_655 S
C506   H407    1.088   1_655 S
C508   C517    1.393   .     A
C508   C515    1.400   .     A
C508   H537    1.083   .     S
C509   C512    1.456   .     S
C509   C138    1.338   1_565 S
C509   C148    1.453   1_565 S
C510   C511    1.438   .     S
C511   O547    1.276   .     A
C511   O553    1.276   .     A
C512   O554    1.273   .     A
C512   O548    1.278   .     A
C513   O543    1.275   .     A
C513   O545    1.276   .     A
C513   C516    1.451   .     S
C514   O546    1.286   .     A
C514   C515    1.471   .     S
C514   O544    1.284   .     A
C515   C519    1.398   .     A
C517   C523    1.404   .     A
C517   H536    1.084   .     S
C518   N539    1.158   .     T
C518   C383    1.450   1_655 S
C519   H538    1.077   .     S
C519   C522    1.409   .     A
C520   N540    1.157   .     T
C521   N541    1.158   .     T
C521   C526    1.447   .     S
C522   C524    1.424   .     A
C522   C523    1.416   .     A
C523   C1085   1.392   .     S
C524   C1083   1.425   .     S
C525   C526    1.428   .     A
C525   C1082   1.425   1_554 S
C526   C527    1.394   .     A
C527   H529    1.086   .     S
C527   C1081   1.392   1_554 S
H532   C138    1.086   1_565 S
O542   Zn555   1.955   .     S
O542   Zn558   1.942   .     S
O542   Zn557   1.936   .     S
O542   Zn556   1.946   .     S
O543   Zn556   1.928   .     S
O544   Zn558   1.935   .     S
O545   Zn557   1.933   .     S
O546   Zn555   1.928   .     S
O547   Zn555   1.930   .     S
O548   Zn558   1.929   .     S
O549   Zn556   1.939   .     S
O550   Zn557   1.945   .     S
O551   Zn558   1.941   .     S
O552   Zn555   1.936   .     S
O553   Zn556   1.934   .     S
O554   Zn557   1.932   .     S
C559   C569    1.429   .     S
C559   O613    1.269   .     A
C559   O611    1.270   .     A
C560   H592    1.077   .     S
C560   C561    1.385   .     A
C560   C586    1.413   .     A
C561   H597    1.082   .     S
C561   C5      1.395   1_556 S
C562   O612    1.286   .     A
C562   O614    1.269   .     A
C562   C568    1.458   .     S
C563   C564    1.425   .     A
C563   C565    1.415   .     A
C564   C567    1.407   .     A
C564   C587    1.430   .     A
C565   C566    1.393   .     A
C565   Cl590   1.764   .     S
C566   H596    1.084   .     S
C566   C578    1.392   .     A
C567   H595    1.079   .     S
C567   C578    1.390   .     A
C568   C631    1.349   .     S
C568   H655    1.088   .     S
C569   C692    1.349   1_455 S
C569   C704    1.450   1_455 S
C570   C579    1.393   .     A
C570   C577    1.400   .     A
C570   H599    1.083   .     S
C571   C574    1.456   .     S
C571   C758    1.338   .     S
C571   C768    1.453   .     S
C572   C573    1.438   .     S
C572   C943    1.338   1_545 S
C572   H966    1.086   1_545 S
C573   O609    1.276   .     A
C573   O615    1.276   .     A
C574   O616    1.273   .     A
C574   O610    1.278   .     A
C575   O605    1.275   .     A
C575   O607    1.276   .     A
C575   C578    1.451   .     S
C576   O608    1.286   .     A
C576   C577    1.471   .     S
C576   O606    1.284   .     A
C577   C581    1.398   .     A
C579   C585    1.404   .     A
C579   H598    1.084   .     S
C580   N601    1.158   .     T
C580   C631    1.450   .     S
C581   H600    1.077   .     S
C581   C584    1.409   .     A
C582   N602    1.157   .     T
C582   C943    1.453   1_545 S
C583   N603    1.158   .     T
C583   C588    1.447   .     S
C584   C586    1.424   .     A
C584   C585    1.416   .     A
C585   C31     1.392   1_556 S
C586   C29     1.425   1_556 S
C587   C588    1.428   .     A
C588   C589    1.394   .     A
C589   H591    1.086   .     S
H593   C692    1.088   1_455 S
H594   C758    1.086   .     S
O604   Zn617   1.955   .     S
O604   Zn620   1.942   .     S
O604   Zn619   1.936   .     S
O604   Zn618   1.946   .     S
O605   Zn618   1.928   .     S
O606   Zn620   1.935   .     S
O607   Zn619   1.933   .     S
O608   Zn617   1.928   .     S
O609   Zn617   1.930   .     S
O610   Zn620   1.929   .     S
O611   Zn618   1.939   .     S
O612   Zn619   1.945   .     S
O613   Zn620   1.941   .     S
O614   Zn617   1.936   .     S
O615   Zn618   1.934   .     S
O616   Zn619   1.932   .     S
C621   C631    1.429   .     S
C621   O675    1.269   .     A
C621   O673    1.270   .     A
C622   H654    1.077   .     S
C622   C623    1.385   .     A
C622   C648    1.413   .     A
C623   H659    1.082   .     S
C623   C67     1.395   1_556 S
C624   O674    1.286   .     A
C624   O676    1.269   .     A
C624   C630    1.458   .     S
C625   C626    1.425   .     A
C625   C627    1.415   .     A
C626   C629    1.407   .     A
C626   C649    1.430   .     A
C627   C628    1.393   .     A
C627   Cl652   1.764   .     S
C628   H658    1.084   .     S
C628   C640    1.392   .     A
C629   H657    1.079   .     S
C629   C640    1.390   .     A
C630   C693    1.349   .     S
C630   H717    1.088   .     S
C632   C641    1.393   .     A
C632   C639    1.400   .     A
C632   H661    1.083   .     S
C633   C636    1.456   .     S
C633   C820    1.338   .     S
C633   C830    1.453   .     S
C634   C635    1.438   .     S
C634   C1005   1.338   1_545 S
C634   H1028   1.086   1_545 S
C635   O671    1.276   .     A
C635   O677    1.276   .     A
C636   O678    1.273   .     A
C636   O672    1.278   .     A
C637   O667    1.275   .     A
C637   O669    1.276   .     A
C637   C640    1.451   .     S
C638   O670    1.286   .     A
C638   C639    1.471   .     S
C638   O668    1.284   .     A
C639   C643    1.398   .     A
C641   C647    1.404   .     A
C641   H660    1.084   .     S
C642   N663    1.158   .     T
C642   C693    1.450   .     S
C643   H662    1.077   .     S
C643   C646    1.409   .     A
C644   N664    1.157   .     T
C644   C1005   1.453   1_545 S
C645   N665    1.158   .     T
C645   C650    1.447   .     S
C646   C648    1.424   .     A
C646   C647    1.416   .     A
C647   C93     1.392   1_556 S
C648   C91     1.425   1_556 S
C649   C650    1.428   .     A
C650   C651    1.394   .     A
C651   H653    1.086   .     S
H656   C820    1.086   .     S
O666   Zn679   1.955   .     S
O666   Zn682   1.942   .     S
O666   Zn681   1.936   .     S
O666   Zn680   1.946   .     S
O667   Zn680   1.928   .     S
O668   Zn682   1.935   .     S
O669   Zn681   1.933   .     S
O670   Zn679   1.928   .     S
O671   Zn679   1.930   .     S
O672   Zn682   1.929   .     S
O673   Zn680   1.939   .     S
O674   Zn681   1.945   .     S
O675   Zn682   1.941   .     S
O676   Zn679   1.936   .     S
O677   Zn680   1.934   .     S
O678   Zn681   1.932   .     S
C683   C693    1.429   .     S
C683   O737    1.269   .     A
C683   O735    1.270   .     A
C684   H716    1.077   .     S
C684   C685    1.385   .     A
C684   C710    1.413   .     A
C685   H721    1.082   .     S
C685   C129    1.395   1_556 S
C686   O736    1.286   .     A
C686   O738    1.269   .     A
C686   C692    1.458   .     S
C687   C688    1.425   .     A
C687   C689    1.415   .     A
C688   C691    1.407   .     A
C688   C711    1.430   .     A
C689   C690    1.393   .     A
C689   Cl714   1.764   .     S
C690   H720    1.084   .     S
C690   C702    1.392   .     A
C691   H719    1.079   .     S
C691   C702    1.390   .     A
C692   C569    1.349   1_655 S
C692   H593    1.088   1_655 S
C694   C703    1.393   .     A
C694   C701    1.400   .     A
C694   H723    1.083   .     S
C695   C698    1.456   .     S
C695   C882    1.338   .     S
C695   C892    1.453   .     S
C696   C697    1.438   .     S
C696   C1067   1.338   1_545 S
C696   H1090   1.086   1_545 S
C697   O733    1.276   .     A
C697   O739    1.276   .     A
C698   O740    1.273   .     A
C698   O734    1.278   .     A
C699   O729    1.275   .     A
C699   O731    1.276   .     A
C699   C702    1.451   .     S
C700   O732    1.286   .     A
C700   C701    1.471   .     S
C700   O730    1.284   .     A
C701   C705    1.398   .     A
C703   C709    1.404   .     A
C703   H722    1.084   .     S
C704   N725    1.158   .     T
C704   C569    1.450   1_655 S
C705   H724    1.077   .     S
C705   C708    1.409   .     A
C706   N726    1.157   .     T
C706   C1067   1.453   1_545 S
C707   N727    1.158   .     T
C707   C712    1.447   .     S
C708   C710    1.424   .     A
C708   C709    1.416   .     A
C709   C155    1.392   1_556 S
C710   C153    1.425   1_556 S
C711   C712    1.428   .     A
C712   C713    1.394   .     A
C713   H715    1.086   .     S
H718   C882    1.086   .     S
O728   Zn741   1.955   .     S
O728   Zn744   1.942   .     S
O728   Zn743   1.936   .     S
O728   Zn742   1.946   .     S
O729   Zn742   1.928   .     S
O730   Zn744   1.935   .     S
O731   Zn743   1.933   .     S
O732   Zn741   1.928   .     S
O733   Zn741   1.930   .     S
O734   Zn744   1.929   .     S
O735   Zn742   1.939   .     S
O736   Zn743   1.945   .     S
O737   Zn744   1.941   .     S
O738   Zn741   1.936   .     S
O739   Zn742   1.934   .     S
O740   Zn743   1.932   .     S
C745   C755    1.429   .     S
C745   O799    1.269   .     A
C745   O797    1.270   .     A
C746   H778    1.077   .     S
C746   C747    1.385   .     A
C746   C772    1.413   .     A
C747   H783    1.082   .     S
C747   C191    1.395   1_556 S
C748   O798    1.286   .     A
C748   O800    1.269   .     A
C748   C754    1.458   .     S
C749   C750    1.425   .     A
C749   C751    1.415   .     A
C750   C753    1.407   .     A
C750   C773    1.430   .     A
C751   C752    1.393   .     A
C751   Cl776   1.764   .     S
C752   H782    1.084   .     S
C752   C764    1.392   .     A
C753   H781    1.079   .     S
C753   C764    1.390   .     A
C754   C817    1.349   .     S
C754   H841    1.088   .     S
C755   C878    1.349   1_455 S
C755   C890    1.450   1_455 S
C756   C765    1.393   .     A
C756   C763    1.400   .     A
C756   H785    1.083   .     S
C757   C760    1.456   .     S
C757   C944    1.338   .     S
C757   C954    1.453   .     S
C758   C759    1.438   .     S
C759   O795    1.276   .     A
C759   O801    1.276   .     A
C760   O802    1.273   .     A
C760   O796    1.278   .     A
C761   O791    1.275   .     A
C761   O793    1.276   .     A
C761   C764    1.451   .     S
C762   O794    1.286   .     A
C762   C763    1.471   .     S
C762   O792    1.284   .     A
C763   C767    1.398   .     A
C765   C771    1.404   .     A
C765   H784    1.084   .     S
C766   N787    1.158   .     T
C766   C817    1.450   .     S
C767   H786    1.077   .     S
C767   C770    1.409   .     A
C768   N788    1.157   .     T
C769   N789    1.158   .     T
C769   C774    1.447   .     S
C770   C772    1.424   .     A
C770   C771    1.416   .     A
C771   C217    1.392   1_556 S
C772   C215    1.425   1_556 S
C773   C774    1.428   .     A
C774   C775    1.394   .     A
C775   H777    1.086   .     S
H779   C878    1.088   1_455 S
H780   C944    1.086   .     S
O790   Zn803   1.955   .     S
O790   Zn806   1.942   .     S
O790   Zn805   1.936   .     S
O790   Zn804   1.946   .     S
O791   Zn804   1.928   .     S
O792   Zn806   1.935   .     S
O793   Zn805   1.933   .     S
O794   Zn803   1.928   .     S
O795   Zn803   1.930   .     S
O796   Zn806   1.929   .     S
O797   Zn804   1.939   .     S
O798   Zn805   1.945   .     S
O799   Zn806   1.941   .     S
O800   Zn803   1.936   .     S
O801   Zn804   1.934   .     S
O802   Zn805   1.932   .     S
C807   C817    1.429   .     S
C807   O861    1.269   .     A
C807   O859    1.270   .     A
C808   H840    1.077   .     S
C808   C809    1.385   .     A
C808   C834    1.413   .     A
C809   H845    1.082   .     S
C809   C253    1.395   1_556 S
C810   O860    1.286   .     A
C810   O862    1.269   .     A
C810   C816    1.458   .     S
C811   C812    1.425   .     A
C811   C813    1.415   .     A
C812   C815    1.407   .     A
C812   C835    1.430   .     A
C813   C814    1.393   .     A
C813   Cl838   1.764   .     S
C814   H844    1.084   .     S
C814   C826    1.392   .     A
C815   H843    1.079   .     S
C815   C826    1.390   .     A
C816   C879    1.349   .     S
C816   H903    1.088   .     S
C818   C827    1.393   .     A
C818   C825    1.400   .     A
C818   H847    1.083   .     S
C819   C822    1.456   .     S
C819   C1006   1.338   .     S
C819   C1016   1.453   .     S
C820   C821    1.438   .     S
C821   O857    1.276   .     A
C821   O863    1.276   .     A
C822   O864    1.273   .     A
C822   O858    1.278   .     A
C823   O853    1.275   .     A
C823   O855    1.276   .     A
C823   C826    1.451   .     S
C824   O856    1.286   .     A
C824   C825    1.471   .     S
C824   O854    1.284   .     A
C825   C829    1.398   .     A
C827   C833    1.404   .     A
C827   H846    1.084   .     S
C828   N849    1.158   .     T
C828   C879    1.450   .     S
C829   H848    1.077   .     S
C829   C832    1.409   .     A
C830   N850    1.157   .     T
C831   N851    1.158   .     T
C831   C836    1.447   .     S
C832   C834    1.424   .     A
C832   C833    1.416   .     A
C833   C279    1.392   1_556 S
C834   C277    1.425   1_556 S
C835   C836    1.428   .     A
C836   C837    1.394   .     A
C837   H839    1.086   .     S
H842   C1006   1.086   .     S
O852   Zn865   1.955   .     S
O852   Zn868   1.942   .     S
O852   Zn867   1.936   .     S
O852   Zn866   1.946   .     S
O853   Zn866   1.928   .     S
O854   Zn868   1.935   .     S
O855   Zn867   1.933   .     S
O856   Zn865   1.928   .     S
O857   Zn865   1.930   .     S
O858   Zn868   1.929   .     S
O859   Zn866   1.939   .     S
O860   Zn867   1.945   .     S
O861   Zn868   1.941   .     S
O862   Zn865   1.936   .     S
O863   Zn866   1.934   .     S
O864   Zn867   1.932   .     S
C869   C879    1.429   .     S
C869   O923    1.269   .     A
C869   O921    1.270   .     A
C870   H902    1.077   .     S
C870   C871    1.385   .     A
C870   C896    1.413   .     A
C871   H907    1.082   .     S
C871   C315    1.395   1_556 S
C872   O922    1.286   .     A
C872   O924    1.269   .     A
C872   C878    1.458   .     S
C873   C874    1.425   .     A
C873   C875    1.415   .     A
C874   C877    1.407   .     A
C874   C897    1.430   .     A
C875   C876    1.393   .     A
C875   Cl900   1.764   .     S
C876   H906    1.084   .     S
C876   C888    1.392   .     A
C877   H905    1.079   .     S
C877   C888    1.390   .     A
C878   C755    1.349   1_655 S
C878   H779    1.088   1_655 S
C880   C889    1.393   .     A
C880   C887    1.400   .     A
C880   H909    1.083   .     S
C881   C884    1.456   .     S
C881   C1068   1.338   .     S
C881   C1078   1.453   .     S
C882   C883    1.438   .     S
C883   O919    1.276   .     A
C883   O925    1.276   .     A
C884   O926    1.273   .     A
C884   O920    1.278   .     A
C885   O915    1.275   .     A
C885   O917    1.276   .     A
C885   C888    1.451   .     S
C886   O918    1.286   .     A
C886   C887    1.471   .     S
C886   O916    1.284   .     A
C887   C891    1.398   .     A
C889   C895    1.404   .     A
C889   H908    1.084   .     S
C890   N911    1.158   .     T
C890   C755    1.450   1_655 S
C891   H910    1.077   .     S
C891   C894    1.409   .     A
C892   N912    1.157   .     T
C893   N913    1.158   .     T
C893   C898    1.447   .     S
C894   C896    1.424   .     A
C894   C895    1.416   .     A
C895   C341    1.392   1_556 S
C896   C339    1.425   1_556 S
C897   C898    1.428   .     A
C898   C899    1.394   .     A
C899   H901    1.086   .     S
H904   C1068   1.086   .     S
O914   Zn927   1.955   .     S
O914   Zn930   1.942   .     S
O914   Zn929   1.936   .     S
O914   Zn928   1.946   .     S
O915   Zn928   1.928   .     S
O916   Zn930   1.935   .     S
O917   Zn929   1.933   .     S
O918   Zn927   1.928   .     S
O919   Zn927   1.930   .     S
O920   Zn930   1.929   .     S
O921   Zn928   1.939   .     S
O922   Zn929   1.945   .     S
O923   Zn930   1.941   .     S
O924   Zn927   1.936   .     S
O925   Zn928   1.934   .     S
O926   Zn929   1.932   .     S
C931   C941    1.429   .     S
C931   O985    1.269   .     A
C931   O983    1.270   .     A
C932   H964    1.077   .     S
C932   C933    1.385   .     A
C932   C958    1.413   .     A
C933   H969    1.082   .     S
C933   C377    1.395   1_556 S
C934   O984    1.286   .     A
C934   O986    1.269   .     A
C934   C940    1.458   .     S
C935   C936    1.425   .     A
C935   C937    1.415   .     A
C936   C939    1.407   .     A
C936   C959    1.430   .     A
C937   C938    1.393   .     A
C937   Cl962   1.764   .     S
C938   H968    1.084   .     S
C938   C950    1.392   .     A
C939   H967    1.079   .     S
C939   C950    1.390   .     A
C940   C1003   1.349   .     S
C940   H1027   1.088   .     S
C941   C1064   1.349   1_455 S
C941   C1076   1.450   1_455 S
C942   C951    1.393   .     A
C942   C949    1.400   .     A
C942   H971    1.083   .     S
C943   C946    1.456   .     S
C943   C572    1.338   1_565 S
C943   C582    1.453   1_565 S
C944   C945    1.438   .     S
C945   O981    1.276   .     A
C945   O987    1.276   .     A
C946   O988    1.273   .     A
C946   O982    1.278   .     A
C947   O977    1.275   .     A
C947   O979    1.276   .     A
C947   C950    1.451   .     S
C948   O980    1.286   .     A
C948   C949    1.471   .     S
C948   O978    1.284   .     A
C949   C953    1.398   .     A
C951   C957    1.404   .     A
C951   H970    1.084   .     S
C952   N973    1.158   .     T
C952   C1003   1.450   .     S
C953   H972    1.077   .     S
C953   C956    1.409   .     A
C954   N974    1.157   .     T
C955   N975    1.158   .     T
C955   C960    1.447   .     S
C956   C958    1.424   .     A
C956   C957    1.416   .     A
C957   C403    1.392   1_556 S
C958   C401    1.425   1_556 S
C959   C960    1.428   .     A
C960   C961    1.394   .     A
C961   H963    1.086   .     S
H965   C1064   1.088   1_455 S
H966   C572    1.086   1_565 S
O976   Zn989   1.955   .     S
O976   Zn992   1.942   .     S
O976   Zn991   1.936   .     S
O976   Zn990   1.946   .     S
O977   Zn990   1.928   .     S
O978   Zn992   1.935   .     S
O979   Zn991   1.933   .     S
O980   Zn989   1.928   .     S
O981   Zn989   1.930   .     S
O982   Zn992   1.929   .     S
O983   Zn990   1.939   .     S
O984   Zn991   1.945   .     S
O985   Zn992   1.941   .     S
O986   Zn989   1.936   .     S
O987   Zn990   1.934   .     S
O988   Zn991   1.932   .     S
C993   C1003   1.429   .     S
C993   O1047   1.269   .     A
C993   O1045   1.270   .     A
C994   H1026   1.077   .     S
C994   C995    1.385   .     A
C994   C1020   1.413   .     A
C995   H1031   1.082   .     S
C995   C439    1.395   1_556 S
C996   O1046   1.286   .     A
C996   O1048   1.269   .     A
C996   C1002   1.458   .     S
C997   C998    1.425   .     A
C997   C999    1.415   .     A
C998   C1001   1.407   .     A
C998   C1021   1.430   .     A
C999   C1000   1.393   .     A
C999   Cl1024  1.764   .     S
C1000  H1030   1.084   .     S
C1000  C1012   1.392   .     A
C1001  H1029   1.079   .     S
C1001  C1012   1.390   .     A
C1002  C1065   1.349   .     S
C1002  H1089   1.088   .     S
C1004  C1013   1.393   .     A
C1004  C1011   1.400   .     A
C1004  H1033   1.083   .     S
C1005  C1008   1.456   .     S
C1005  C634    1.338   1_565 S
C1005  C644    1.453   1_565 S
C1006  C1007   1.438   .     S
C1007  O1043   1.276   .     A
C1007  O1049   1.276   .     A
C1008  O1050   1.273   .     A
C1008  O1044   1.278   .     A
C1009  O1039   1.275   .     A
C1009  O1041   1.276   .     A
C1009  C1012   1.451   .     S
C1010  O1042   1.286   .     A
C1010  C1011   1.471   .     S
C1010  O1040   1.284   .     A
C1011  C1015   1.398   .     A
C1013  C1019   1.404   .     A
C1013  H1032   1.084   .     S
C1014  N1035   1.158   .     T
C1014  C1065   1.450   .     S
C1015  H1034   1.077   .     S
C1015  C1018   1.409   .     A
C1016  N1036   1.157   .     T
C1017  N1037   1.158   .     T
C1017  C1022   1.447   .     S
C1018  C1020   1.424   .     A
C1018  C1019   1.416   .     A
C1019  C465    1.392   1_556 S
C1020  C463    1.425   1_556 S
C1021  C1022   1.428   .     A
C1022  C1023   1.394   .     A
C1023  H1025   1.086   .     S
H1028  C634    1.086   1_565 S
O1038  Zn1051  1.955   .     S
O1038  Zn1054  1.942   .     S
O1038  Zn1053  1.936   .     S
O1038  Zn1052  1.946   .     S
O1039  Zn1052  1.928   .     S
O1040  Zn1054  1.935   .     S
O1041  Zn1053  1.933   .     S
O1042  Zn1051  1.928   .     S
O1043  Zn1051  1.930   .     S
O1044  Zn1054  1.929   .     S
O1045  Zn1052  1.939   .     S
O1046  Zn1053  1.945   .     S
O1047  Zn1054  1.941   .     S
O1048  Zn1051  1.936   .     S
O1049  Zn1052  1.934   .     S
O1050  Zn1053  1.932   .     S
C1055  C1065   1.429   .     S
C1055  O1109   1.269   .     A
C1055  O1107   1.270   .     A
C1056  H1088   1.077   .     S
C1056  C1057   1.385   .     A
C1056  C1082   1.413   .     A
C1057  H1093   1.082   .     S
C1057  C501    1.395   1_556 S
C1058  O1108   1.286   .     A
C1058  O1110   1.269   .     A
C1058  C1064   1.458   .     S
C1059  C1060   1.425   .     A
C1059  C1061   1.415   .     A
C1060  C1063   1.407   .     A
C1060  C1083   1.430   .     A
C1061  C1062   1.393   .     A
C1061  Cl1086  1.764   .     S
C1062  H1092   1.084   .     S
C1062  C1074   1.392   .     A
C1063  H1091   1.079   .     S
C1063  C1074   1.390   .     A
C1064  C941    1.349   1_655 S
C1064  H965    1.088   1_655 S
C1066  C1075   1.393   .     A
C1066  C1073   1.400   .     A
C1066  H1095   1.083   .     S
C1067  C1070   1.456   .     S
C1067  C696    1.338   1_565 S
C1067  C706    1.453   1_565 S
C1068  C1069   1.438   .     S
C1069  O1105   1.276   .     A
C1069  O1111   1.276   .     A
C1070  O1112   1.273   .     A
C1070  O1106   1.278   .     A
C1071  O1101   1.275   .     A
C1071  O1103   1.276   .     A
C1071  C1074   1.451   .     S
C1072  O1104   1.286   .     A
C1072  C1073   1.471   .     S
C1072  O1102   1.284   .     A
C1073  C1077   1.398   .     A
C1075  C1081   1.404   .     A
C1075  H1094   1.084   .     S
C1076  N1097   1.158   .     T
C1076  C941    1.450   1_655 S
C1077  H1096   1.077   .     S
C1077  C1080   1.409   .     A
C1078  N1098   1.157   .     T
C1079  N1099   1.158   .     T
C1079  C1084   1.447   .     S
C1080  C1082   1.424   .     A
C1080  C1081   1.416   .     A
C1081  C527    1.392   1_556 S
C1082  C525    1.425   1_556 S
C1083  C1084   1.428   .     A
C1084  C1085   1.394   .     A
C1085  H1087   1.086   .     S
H1090  C696    1.086   1_565 S
O1100  Zn1113  1.955   .     S
O1100  Zn1116  1.942   .     S
O1100  Zn1115  1.936   .     S
O1100  Zn1114  1.946   .     S
O1101  Zn1114  1.928   .     S
O1102  Zn1116  1.935   .     S
O1103  Zn1115  1.933   .     S
O1104  Zn1113  1.928   .     S
O1105  Zn1113  1.930   .     S
O1106  Zn1116  1.929   .     S
O1107  Zn1114  1.939   .     S
O1108  Zn1115  1.945   .     S
O1109  Zn1116  1.941   .     S
O1110  Zn1113  1.936   .     S
O1111  Zn1114  1.934   .     S
O1112  Zn1115  1.932   .     S
