data_str_m1_o5_o17_pcu_sym.75
_audit_creation_date              2020-01-03
_audit_creation_method            'Materials Studio'
_symmetry_space_group_name_H-M    'P1'
_symmetry_Int_Tables_number       1
_symmetry_cell_setting            triclinic
loop_
_symmetry_equiv_pos_as_xyz
  x,y,z
_cell_length_a                    31.7926
_cell_length_b                    31.7832
_cell_length_c                    34.3964
_cell_angle_alpha                 89.8939
_cell_angle_beta                  90.0047
_cell_angle_gamma                 90.0609
loop_
_atom_site_label
_atom_site_type_symbol
_atom_site_fract_x
_atom_site_fract_y
_atom_site_fract_z
_atom_site_U_iso_or_equiv
_atom_site_adp_type
_atom_site_occupancy
C1     C     0.25122   0.00006   0.35591   0.00000  Uiso   1.00
C2     C     0.33003   0.41997   0.75002   0.00000  Uiso   1.00
C3     C     0.45097   0.19217   0.02195   0.00000  Uiso   1.00
C4     C     0.26258   0.07602   0.97938   0.00000  Uiso   1.00
C5     C     0.23751   0.42396   0.02062   0.00000  Uiso   1.00
C6     C     0.45002   0.19157   0.98095   0.00000  Uiso   1.00
C7     C     0.05130   0.30867   0.01920   0.00000  Uiso   1.00
C8     C     0.49879   0.34286   0.36572   0.00000  Uiso   1.00
C9     C     0.00239   0.15758   0.63443   0.00000  Uiso   1.00
C10    C     0.16061   0.00945   0.37740   0.00000  Uiso   1.00
C11    C     0.35531   0.49979   0.59736   0.00000  Uiso   1.00
C12    C     0.06625   0.16888   0.40168   0.00000  Uiso   1.00
C13    C     0.41997   0.16999   0.25000   0.00000  Uiso   1.00
C14    C     0.49754   0.34235   0.63412   0.00000  Uiso   1.00
C15    C     0.33337   0.04914   0.36742   0.00000  Uiso   1.00
C16    C     0.15956   0.00547   0.62313   0.00000  Uiso   1.00
C17    C     0.24885   0.09240   0.86550   0.00000  Uiso   1.00
C18    C     0.25120   0.40760   0.13452   0.00000  Uiso   1.00
C19    C     0.39535   0.24334   0.90588   0.00000  Uiso   1.00
C20    C     0.08055   0.30502   0.13050   0.00000  Uiso   1.00
C21    C     0.25003   0.40759   0.86592   0.00000  Uiso   1.00
C22    C     0.24992   0.09240   0.13408   0.00000  Uiso   1.00
C23    C     0.09064   0.24456   0.87493   0.00000  Uiso   1.00
C24    C     0.08002   0.33002   0.74999   0.00000  Uiso   1.00
C25    C     0.41036   0.25862   0.12430   0.00000  Uiso   1.00
C26    C     0.33002   0.41995   0.25000   0.00000  Uiso   1.00
C27    C     0.16998   0.08005   0.75000   0.00000  Uiso   1.00
C28    C     0.08003   0.33003   0.24998   0.00000  Uiso   1.00
C29    C     0.41998   0.16996   0.75000   0.00000  Uiso   1.00
C30    C     0.16998   0.41998   0.75001   0.00000  Uiso   1.00
C31    C     0.33003   0.08001   0.25000   0.00000  Uiso   1.00
C32    C     0.41998   0.33003   0.74998   0.00000  Uiso   1.00
C33    C     0.25034   0.00006   0.64408   0.00000  Uiso   1.00
C34    C     0.08003   0.16997   0.25001   0.00000  Uiso   1.00
C35    C     0.33002   0.08004   0.75000   0.00000  Uiso   1.00
C36    C     0.16999   0.41995   0.25000   0.00000  Uiso   1.00
C37    C     0.08002   0.16995   0.75001   0.00000  Uiso   1.00
C38    C     0.41997   0.33004   0.24999   0.00000  Uiso   1.00
C39    C     0.13835   0.38830   0.24998   0.00000  Uiso   1.00
C40    C     0.36166   0.11168   0.74999   0.00000  Uiso   1.00
C41    C     0.11168   0.13833   0.25002   0.00000  Uiso   1.00
C42    C     0.38833   0.36167   0.74998   0.00000  Uiso   1.00
C43    C     0.36168   0.11165   0.25001   0.00000  Uiso   1.00
C44    C     0.00006   0.25020   0.35585   0.00000  Uiso   1.00
C45    C     0.13833   0.38834   0.75001   0.00000  Uiso   1.00
C46    C     0.38833   0.36168   0.24998   0.00000  Uiso   1.00
C47    C     0.11166   0.13831   0.75001   0.00000  Uiso   1.00
C48    C     0.13834   0.11169   0.74999   0.00000  Uiso   1.00
C49    C     0.36166   0.38831   0.25000   0.00000  Uiso   1.00
C50    C     0.11167   0.36166   0.74999   0.00000  Uiso   1.00
C51    C     0.38833   0.13833   0.25002   0.00000  Uiso   1.00
C52    C     0.36168   0.38833   0.75001   0.00000  Uiso   1.00
C53    C     0.13832   0.11166   0.25000   0.00000  Uiso   1.00
C54    C     0.38834   0.13832   0.75001   0.00000  Uiso   1.00
C55    C     0.00001   0.24999   0.64415   0.00000  Uiso   1.00
C56    C     0.11167   0.36166   0.24996   0.00000  Uiso   1.00
C57    C     0.49599   0.28884   0.41833   0.00000  Uiso   1.00
C58    C     0.00577   0.21172   0.58187   0.00000  Uiso   1.00
C59    C     0.21792   0.48273   0.41908   0.00000  Uiso   1.00
C60    C     0.28410   0.02010   0.58181   0.00000  Uiso   1.00
C61    C     0.00697   0.21269   0.41827   0.00000  Uiso   1.00
C62    C     0.49539   0.28821   0.58167   0.00000  Uiso   1.00
C63    C     0.28606   0.01912   0.41832   0.00000  Uiso   1.00
C64    C     0.21747   0.48137   0.58076   0.00000  Uiso   1.00
C65    C     0.24554   0.03836   0.91817   0.00000  Uiso   1.00
C66    C     0.49929   0.24985   0.85593   0.00000  Uiso   1.00
C67    C     0.25451   0.46163   0.08184   0.00000  Uiso   1.00
C68    C     0.46829   0.22772   0.91908   0.00000  Uiso   1.00
C69    C     0.03385   0.27174   0.08102   0.00000  Uiso   1.00
C70    C     0.25402   0.46166   0.91832   0.00000  Uiso   1.00
C71    C     0.24598   0.03833   0.08168   0.00000  Uiso   1.00
C72    C     0.03361   0.26859   0.91836   0.00000  Uiso   1.00
C73    C     0.46713   0.23283   0.08155   0.00000  Uiso   1.00
C74    C     0.00061   0.25064   0.39815   0.00000  Uiso   1.00
C75    C     0.00012   0.24993   0.60189   0.00000  Uiso   1.00
C76    C     0.25173   0.00079   0.39831   0.00000  Uiso   1.00
C77    C     0.00149   0.25021   0.14409   0.00000  Uiso   1.00
C78    C     0.25050   0.00060   0.60165   0.00000  Uiso   1.00
C79    C     0.24993   0.00002   0.89811   0.00000  Uiso   1.00
C80    C     0.25007   0.49998   0.10189   0.00000  Uiso   1.00
C81    C     0.00026   0.24894   0.89835   0.00000  Uiso   1.00
C82    C     0.00102   0.25145   0.10168   0.00000  Uiso   1.00
C83    C     0.00088   0.21161   0.45892   0.00000  Uiso   1.00
C84    C     0.00247   0.28871   0.54106   0.00000  Uiso   1.00
C85    C     0.28258   0.02484   0.45902   0.00000  Uiso   1.00
C86    C     0.22346   0.47425   0.54057   0.00000  Uiso   1.00
C87    C     0.00276   0.28909   0.45905   0.00000  Uiso   1.00
C88    C     0.24999  -0.00000   0.85584   0.00000  Uiso   1.00
C89    C     0.00007   0.21120   0.54103   0.00000  Uiso   1.00
C90    C     0.22361   0.47490   0.45913   0.00000  Uiso   1.00
C91    C     0.28154   0.02528   0.54111   0.00000  Uiso   1.00
C92    C     0.24752   0.46137   0.95902   0.00000  Uiso   1.00
C93    C     0.25250   0.03862   0.04098   0.00000  Uiso   1.00
C94    C     0.02866   0.27579   0.95861   0.00000  Uiso   1.00
C95    C     0.47216   0.22514   0.04142   0.00000  Uiso   1.00
C96    C     0.25207   0.03874   0.95889   0.00000  Uiso   1.00
C97    C     0.24799   0.46125   0.04111   0.00000  Uiso   1.00
C98    C     0.47237   0.22279   0.95973   0.00000  Uiso   1.00
C99    C     0.25001   0.00000   0.14416   0.00000  Uiso   1.00
C100   C     0.02918   0.27729   0.04040   0.00000  Uiso   1.00
C101   C     0.00162   0.25022   0.47952   0.00000  Uiso   1.00
C102   C     0.00137   0.25002   0.52053   0.00000  Uiso   1.00
C103   C     0.25295   0.00000   0.47954   0.00000  Uiso   1.00
C104   C     0.25267   0.49992   0.52039   0.00000  Uiso   1.00
C105   C     0.24994   0.00002   0.97949   0.00000  Uiso   1.00
C106   C     0.25011   0.49996   0.02052   0.00000  Uiso   1.00
C107   C     0.00059   0.24972   0.97962   0.00000  Uiso   1.00
C108   C     0.00051   0.25085   0.02045   0.00000  Uiso   1.00
C109   C     0.49262   0.17358   0.47924   0.00000  Uiso   1.00
C110   C     0.16997   0.08002   0.24999   0.00000  Uiso   1.00
C111   C     0.01259   0.32620   0.52065   0.00000  Uiso   1.00
C112   C     0.30720   0.05465   0.47966   0.00000  Uiso   1.00
C113   C     0.20273   0.44158   0.52014   0.00000  Uiso   1.00
C114   C     0.01267   0.32641   0.47964   0.00000  Uiso   1.00
C115   C     0.49169   0.17354   0.52025   0.00000  Uiso   1.00
C116   C     0.20259   0.44204   0.47913   0.00000  Uiso   1.00
C117   C     0.30645   0.05509   0.52072   0.00000  Uiso   1.00
C118   C     0.23693   0.42415   0.97961   0.00000  Uiso   1.00
C119   C     0.26310   0.07584   0.02039   0.00000  Uiso   1.00
C120   C     0.04969   0.30873   0.97822   0.00000  Uiso   1.00
H121   H     0.46034   0.34485   0.41595   0.00000  Uiso   1.00
H122   H     0.12616   0.01226   0.38234   0.00000  Uiso   1.00
H123   H     0.16546   0.00253   0.34611   0.00000  Uiso   1.00
H124   H     0.17508   0.04028   0.38482   0.00000  Uiso   1.00
H125   H     0.31890   0.04060   0.63018   0.00000  Uiso   1.00
H126   H     0.38425   0.01138   0.61193   0.00000  Uiso   1.00
H127   H     0.36252   0.49501   0.56606   0.00000  Uiso   1.00
H128   H     0.34596   0.46933   0.61073   0.00000  Uiso   1.00
H129   H     0.01073   0.17274   0.36991   0.00000  Uiso   1.00
H130   H     0.07448   0.13894   0.38695   0.00000  Uiso   1.00
H131   H     0.07518   0.16614   0.43281   0.00000  Uiso   1.00
H132   H     0.49977   0.37764   0.36860   0.00000  Uiso   1.00
H133   H     0.08430   0.19493   0.38796   0.00000  Uiso   1.00
H134   H     0.45947   0.34402   0.58368   0.00000  Uiso   1.00
H135   H     0.49812   0.37713   0.63113   0.00000  Uiso   1.00
H136   H     0.03053   0.33121   0.63693   0.00000  Uiso   1.00
H137   H     0.47973   0.33471   0.66096   0.00000  Uiso   1.00
H138   H     0.35215   0.01750   0.41830   0.00000  Uiso   1.00
H139   H     0.36486   0.06412   0.36974   0.00000  Uiso   1.00
H140   H     0.30952   0.07465   0.36666   0.00000  Uiso   1.00
H141   H     0.33279   0.03093   0.33993   0.00000  Uiso   1.00
H142   H     0.15498   0.46145   0.58013   0.00000  Uiso   1.00
H143   H     0.48098   0.33539   0.33885   0.00000  Uiso   1.00
H144   H     0.12483   0.00655   0.61937   0.00000  Uiso   1.00
H145   H     0.17216   0.03706   0.61544   0.00000  Uiso   1.00
H146   H     0.16587   0.49843   0.65419   0.00000  Uiso   1.00
H147   H     0.20996   0.09441   0.91545   0.00000  Uiso   1.00
H148   H     0.24968   0.12719   0.86827   0.00000  Uiso   1.00
H149   H     0.23130   0.08482   0.83851   0.00000  Uiso   1.00
H150   H     0.28178   0.08098   0.86311   0.00000  Uiso   1.00
H151   H     0.29015   0.40563   0.08460   0.00000  Uiso   1.00
H152   H     0.25040   0.37281   0.13175   0.00000  Uiso   1.00
H153   H     0.21826   0.41900   0.13688   0.00000  Uiso   1.00
H154   H     0.03166   0.33134   0.36304   0.00000  Uiso   1.00
H155   H     0.26872   0.41521   0.16151   0.00000  Uiso   1.00
H156   H     0.43321   0.20544   0.87155   0.00000  Uiso   1.00
H157   H     0.36677   0.22999   0.89202   0.00000  Uiso   1.00
H158   H     0.40217   0.27451   0.89259   0.00000  Uiso   1.00
H159   H     0.38892   0.24728   0.93741   0.00000  Uiso   1.00
H160   H     0.09984   0.27398   0.07967   0.00000  Uiso   1.00
H161   H     0.11090   0.32200   0.12711   0.00000  Uiso   1.00
H162   H     0.08206   0.28719   0.15823   0.00000  Uiso   1.00
H163   H     0.05511   0.32892   0.13160   0.00000  Uiso   1.00
H164   H     0.28864   0.40503   0.91598   0.00000  Uiso   1.00
H165   H     0.04274   0.15658   0.58540   0.00000  Uiso   1.00
H166   H     0.24879   0.37281   0.86886   0.00000  Uiso   1.00
H167   H     0.26763   0.41494   0.83889   0.00000  Uiso   1.00
H168   H     0.21724   0.41939   0.86351   0.00000  Uiso   1.00
H169   H     0.21132   0.09494   0.08401   0.00000  Uiso   1.00
H170   H     0.25115   0.12718   0.13114   0.00000  Uiso   1.00
H171   H     0.28272   0.08062   0.13650   0.00000  Uiso   1.00
H172   H     0.23231   0.08504   0.16111   0.00000  Uiso   1.00
H173   H     0.09595   0.28909   0.91740   0.00000  Uiso   1.00
H174   H     0.12542   0.24347   0.87828   0.00000  Uiso   1.00
H175   H     0.08388   0.25147   0.84393   0.00000  Uiso   1.00
H176   H     0.00207   0.12281   0.63146   0.00000  Uiso   1.00
H177   H     0.07815   0.21299   0.88286   0.00000  Uiso   1.00
H178   H     0.40443   0.21344   0.08244   0.00000  Uiso   1.00
H179   H     0.37576   0.26098   0.12008   0.00000  Uiso   1.00
H180   H     0.42421   0.28969   0.11662   0.00000  Uiso   1.00
H181   H     0.41604   0.25160   0.15547   0.00000  Uiso   1.00
H182   H     0.46928   0.16859   0.63636   0.00000  Uiso   1.00
H183   H     0.01932   0.16521   0.66174   0.00000  Uiso   1.00
H184   H     0.15504   0.46392   0.41918   0.00000  Uiso   1.00
I185   I     0.47252   0.11756   0.44877   0.00000  Uiso   1.00
I186   I     0.29119   0.12845   0.05016   0.00000  Uiso   1.00
I187   I     0.06717   0.36474   0.94651   0.00000  Uiso   1.00
I188   I     0.43203   0.13694   0.05404   0.00000  Uiso   1.00
I189   I     0.28823   0.12986   0.94947   0.00000  Uiso   1.00
I190   I     0.21202   0.37004   0.05053   0.00000  Uiso   1.00
I191   I     0.42168   0.13850   0.95218   0.00000  Uiso   1.00
I192   I     0.07930   0.36160   0.04796   0.00000  Uiso   1.00
I193   I     0.03902   0.37943   0.55072   0.00000  Uiso   1.00
I194   I     0.33801   0.10549   0.44972   0.00000  Uiso   1.00
I195   I     0.18303   0.38563   0.55061   0.00000  Uiso   1.00
I196   I     0.03901   0.38002   0.44988   0.00000  Uiso   1.00
I197   I     0.46681   0.11888   0.54941   0.00000  Uiso   1.00
I198   I     0.18196   0.38710   0.44785   0.00000  Uiso   1.00
I199   I     0.33577   0.10677   0.55107   0.00000  Uiso   1.00
I200   I     0.20874   0.37159   0.94985   0.00000  Uiso   1.00
N201   N     0.47763   0.32439   0.39907   0.00000  Uiso   1.00
N202   N     0.27261   0.42605   0.10128   0.00000  Uiso   1.00
N203   N     0.43046   0.21516   0.89996   0.00000  Uiso   1.00
N204   N     0.07461   0.27605   0.09844   0.00000  Uiso   1.00
N205   N     0.27169   0.42580   0.89906   0.00000  Uiso   1.00
N206   N     0.22829   0.07418   0.10093   0.00000  Uiso   1.00
N207   N     0.07297   0.27742   0.89931   0.00000  Uiso   1.00
N208   N     0.42751   0.22501   0.10047   0.00000  Uiso   1.00
N209   N     0.02419   0.17652   0.60165   0.00000  Uiso   1.00
N210   N     0.17787   0.47546   0.40081   0.00000  Uiso   1.00
N211   N     0.32201   0.03034   0.60196   0.00000  Uiso   1.00
N212   N     0.02159   0.17644   0.39794   0.00000  Uiso   1.00
N213   N     0.47669   0.32364   0.60076   0.00000  Uiso   1.00
N214   N     0.32659   0.02103   0.40010   0.00000  Uiso   1.00
N215   N     0.17757   0.47271   0.59885   0.00000  Uiso   1.00
N216   N     0.22745   0.07397   0.89874   0.00000  Uiso   1.00
O217   O     0.25000  -0.00000   0.25000   0.00000  Uiso   1.00
O218   O     0.25000   0.46538   0.66251   0.00000  Uiso   1.00
O219   O     0.46538   0.25000   0.33749   0.00000  Uiso   1.00
O220   O     0.03461   0.25000   0.66251   0.00000  Uiso   1.00
O221   O     0.00000   0.21538   0.83749   0.00000  Uiso   1.00
O222   O    -0.00000   0.28461   0.16251   0.00000  Uiso   1.00
O223   O     0.28461  -0.00000   0.83749   0.00000  Uiso   1.00
O224   O     0.21538  -0.00000   0.16251   0.00000  Uiso   1.00
O225   O    -0.00000   0.28461   0.83749   0.00000  Uiso   1.00
O226   O     0.00000   0.21538   0.16251   0.00000  Uiso   1.00
O227   O     0.21538  -0.00000   0.83749   0.00000  Uiso   1.00
O228   O     0.25000  -0.00000   0.75000   0.00000  Uiso   1.00
O229   O     0.28461  -0.00000   0.16251   0.00000  Uiso   1.00
O230   O     0.20126   0.08332   0.27298   0.00000  Uiso   1.00
O231   O     0.29873   0.41668   0.72702   0.00000  Uiso   1.00
O232   O     0.41668   0.20126   0.27298   0.00000  Uiso   1.00
O233   O     0.08332   0.29873   0.72702   0.00000  Uiso   1.00
O234   O     0.29873   0.41668   0.27298   0.00000  Uiso   1.00
O235   O     0.20126   0.08332   0.72702   0.00000  Uiso   1.00
O236   O     0.08332   0.29873   0.27298   0.00000  Uiso   1.00
O237   O     0.41668   0.20126   0.72702   0.00000  Uiso   1.00
O238   O     0.20126   0.41668   0.72702   0.00000  Uiso   1.00
O239   O     0.00000   0.25000   0.25000   0.00000  Uiso   1.00
O240   O     0.29873   0.08332   0.27298   0.00000  Uiso   1.00
O241   O     0.41668   0.29873   0.72702   0.00000  Uiso   1.00
O242   O     0.08332   0.20126   0.27298   0.00000  Uiso   1.00
O243   O     0.29873   0.08332   0.72702   0.00000  Uiso   1.00
O244   O     0.20126   0.41668   0.27298   0.00000  Uiso   1.00
O245   O     0.08332   0.20126   0.72702   0.00000  Uiso   1.00
O246   O     0.41668   0.29873   0.27298   0.00000  Uiso   1.00
O247   O     0.45126   0.33332   0.77298   0.00000  Uiso   1.00
O248   O     0.04873   0.16668   0.22702   0.00000  Uiso   1.00
O249   O     0.16668   0.45126   0.77298   0.00000  Uiso   1.00
O250   O     0.00000   0.25000   0.75000   0.00000  Uiso   1.00
O251   O     0.33332   0.04873   0.22702   0.00000  Uiso   1.00
O252   O     0.04873   0.16668   0.77298   0.00000  Uiso   1.00
O253   O     0.45126   0.33332   0.22702   0.00000  Uiso   1.00
O254   O     0.33332   0.04873   0.77298   0.00000  Uiso   1.00
O255   O     0.16668   0.45126   0.22702   0.00000  Uiso   1.00
O256   O     0.45126   0.16668   0.22702   0.00000  Uiso   1.00
O257   O     0.04873   0.33332   0.77298   0.00000  Uiso   1.00
O258   O     0.16668   0.04873   0.22702   0.00000  Uiso   1.00
O259   O     0.33332   0.45126   0.77298   0.00000  Uiso   1.00
O260   O     0.04873   0.33332   0.22702   0.00000  Uiso   1.00
O261   O     0.25000   0.46538   0.33749   0.00000  Uiso   1.00
O262   O     0.45126   0.16668   0.77298   0.00000  Uiso   1.00
O263   O     0.33332   0.45126   0.22702   0.00000  Uiso   1.00
O264   O     0.16668   0.04873   0.77298   0.00000  Uiso   1.00
O265   O     0.25000   0.03461   0.66251   0.00000  Uiso   1.00
O266   O     0.03461   0.25000   0.33749   0.00000  Uiso   1.00
O267   O     0.46538   0.25000   0.66251   0.00000  Uiso   1.00
O268   O     0.25000   0.03461   0.33749   0.00000  Uiso   1.00
Zn269  Zn    0.20052  -0.00000   0.21730   0.00000  Uiso   1.00
Zn270  Zn    0.04947   0.25000   0.28270   0.00000  Uiso   1.00
Zn271  Zn    0.25000   0.45052   0.71730   0.00000  Uiso   1.00
Zn272  Zn    0.25000   0.04947   0.28270   0.00000  Uiso   1.00
Zn273  Zn    0.04947   0.25000   0.71730   0.00000  Uiso   1.00
Zn274  Zn    0.45052   0.25000   0.28270   0.00000  Uiso   1.00
Zn275  Zn    0.25000   0.04947   0.71730   0.00000  Uiso   1.00
Zn276  Zn    0.25000   0.45052   0.28270   0.00000  Uiso   1.00
Zn277  Zn    0.29947  -0.00000   0.78270   0.00000  Uiso   1.00
Zn278  Zn   -0.00000   0.20052   0.21730   0.00000  Uiso   1.00
Zn279  Zn   -0.00000   0.29947   0.78270   0.00000  Uiso   1.00
Zn280  Zn    0.29947  -0.00000   0.21730   0.00000  Uiso   1.00
Zn281  Zn    0.20052  -0.00000   0.78270   0.00000  Uiso   1.00
Zn282  Zn   -0.00000   0.29947   0.21730   0.00000  Uiso   1.00
Zn283  Zn   -0.00000   0.20052   0.78270   0.00000  Uiso   1.00
Zn284  Zn    0.45052   0.25000   0.71730   0.00000  Uiso   1.00
C285   C     0.75122   0.00006   0.35591   0.00000  Uiso   1.00
C286   C     0.83003   0.41997   0.75002   0.00000  Uiso   1.00
C287   C     0.95097   0.19217   0.02195   0.00000  Uiso   1.00
C288   C     0.76258   0.07602   0.97938   0.00000  Uiso   1.00
C289   C     0.73751   0.42396   0.02062   0.00000  Uiso   1.00
C290   C     0.95002   0.19157   0.98095   0.00000  Uiso   1.00
C291   C     0.55130   0.30867   0.01920   0.00000  Uiso   1.00
C292   C     0.99879   0.34286   0.36572   0.00000  Uiso   1.00
C293   C     0.50239   0.15758   0.63443   0.00000  Uiso   1.00
C294   C     0.66061   0.00945   0.37740   0.00000  Uiso   1.00
C295   C     0.85531   0.49979   0.59736   0.00000  Uiso   1.00
C296   C     0.56625   0.16888   0.40168   0.00000  Uiso   1.00
C297   C     0.91997   0.16999   0.25000   0.00000  Uiso   1.00
C298   C     0.99754   0.34235   0.63412   0.00000  Uiso   1.00
C299   C     0.83337   0.04914   0.36742   0.00000  Uiso   1.00
C300   C     0.65956   0.00547   0.62313   0.00000  Uiso   1.00
C301   C     0.74885   0.09240   0.86550   0.00000  Uiso   1.00
C302   C     0.75120   0.40760   0.13452   0.00000  Uiso   1.00
C303   C     0.89535   0.24334   0.90588   0.00000  Uiso   1.00
C304   C     0.58055   0.30502   0.13050   0.00000  Uiso   1.00
C305   C     0.75003   0.40759   0.86592   0.00000  Uiso   1.00
C306   C     0.74992   0.09240   0.13408   0.00000  Uiso   1.00
C307   C     0.59064   0.24456   0.87493   0.00000  Uiso   1.00
C308   C     0.58002   0.33002   0.74999   0.00000  Uiso   1.00
C309   C     0.91036   0.25862   0.12430   0.00000  Uiso   1.00
C310   C     0.83002   0.41995   0.25000   0.00000  Uiso   1.00
C311   C     0.66998   0.08005   0.75000   0.00000  Uiso   1.00
C312   C     0.58003   0.33003   0.24998   0.00000  Uiso   1.00
C313   C     0.91998   0.16996   0.75000   0.00000  Uiso   1.00
C314   C     0.66998   0.41998   0.75001   0.00000  Uiso   1.00
C315   C     0.83003   0.08001   0.25000   0.00000  Uiso   1.00
C316   C     0.91998   0.33003   0.74998   0.00000  Uiso   1.00
C317   C     0.75034   0.00006   0.64408   0.00000  Uiso   1.00
C318   C     0.58003   0.16997   0.25001   0.00000  Uiso   1.00
C319   C     0.83002   0.08004   0.75000   0.00000  Uiso   1.00
C320   C     0.66999   0.41995   0.25000   0.00000  Uiso   1.00
C321   C     0.58002   0.16995   0.75001   0.00000  Uiso   1.00
C322   C     0.91997   0.33004   0.24999   0.00000  Uiso   1.00
C323   C     0.63835   0.38830   0.24998   0.00000  Uiso   1.00
C324   C     0.86166   0.11168   0.74999   0.00000  Uiso   1.00
C325   C     0.61168   0.13833   0.25002   0.00000  Uiso   1.00
C326   C     0.88833   0.36167   0.74998   0.00000  Uiso   1.00
C327   C     0.86168   0.11165   0.25001   0.00000  Uiso   1.00
C328   C     0.50006   0.25020   0.35585   0.00000  Uiso   1.00
C329   C     0.63833   0.38834   0.75001   0.00000  Uiso   1.00
C330   C     0.88833   0.36168   0.24998   0.00000  Uiso   1.00
C331   C     0.61166   0.13831   0.75001   0.00000  Uiso   1.00
C332   C     0.63834   0.11169   0.74999   0.00000  Uiso   1.00
C333   C     0.86166   0.38831   0.25000   0.00000  Uiso   1.00
C334   C     0.61167   0.36166   0.74999   0.00000  Uiso   1.00
C335   C     0.88833   0.13833   0.25002   0.00000  Uiso   1.00
C336   C     0.86168   0.38833   0.75001   0.00000  Uiso   1.00
C337   C     0.63832   0.11166   0.25000   0.00000  Uiso   1.00
C338   C     0.88834   0.13832   0.75001   0.00000  Uiso   1.00
C339   C     0.50001   0.24999   0.64415   0.00000  Uiso   1.00
C340   C     0.61167   0.36166   0.24996   0.00000  Uiso   1.00
C341   C     0.99599   0.28884   0.41833   0.00000  Uiso   1.00
C342   C     0.50577   0.21172   0.58187   0.00000  Uiso   1.00
C343   C     0.71792   0.48273   0.41908   0.00000  Uiso   1.00
C344   C     0.78410   0.02010   0.58181   0.00000  Uiso   1.00
C345   C     0.50697   0.21269   0.41827   0.00000  Uiso   1.00
C346   C     0.99539   0.28821   0.58167   0.00000  Uiso   1.00
C347   C     0.78606   0.01912   0.41832   0.00000  Uiso   1.00
C348   C     0.71747   0.48137   0.58076   0.00000  Uiso   1.00
C349   C     0.74554   0.03836   0.91817   0.00000  Uiso   1.00
C350   C     0.99929   0.24985   0.85593   0.00000  Uiso   1.00
C351   C     0.75451   0.46163   0.08184   0.00000  Uiso   1.00
C352   C     0.96829   0.22772   0.91908   0.00000  Uiso   1.00
C353   C     0.53385   0.27174   0.08102   0.00000  Uiso   1.00
C354   C     0.75402   0.46166   0.91832   0.00000  Uiso   1.00
C355   C     0.74598   0.03833   0.08168   0.00000  Uiso   1.00
C356   C     0.53361   0.26859   0.91836   0.00000  Uiso   1.00
C357   C     0.96713   0.23283   0.08155   0.00000  Uiso   1.00
C358   C     0.50061   0.25064   0.39815   0.00000  Uiso   1.00
C359   C     0.50012   0.24993   0.60189   0.00000  Uiso   1.00
C360   C     0.75173   0.00079   0.39831   0.00000  Uiso   1.00
C361   C     0.50149   0.25021   0.14409   0.00000  Uiso   1.00
C362   C     0.75050   0.00060   0.60165   0.00000  Uiso   1.00
C363   C     0.74993   0.00002   0.89811   0.00000  Uiso   1.00
C364   C     0.75007   0.49998   0.10189   0.00000  Uiso   1.00
C365   C     0.50026   0.24894   0.89835   0.00000  Uiso   1.00
C366   C     0.50102   0.25145   0.10168   0.00000  Uiso   1.00
C367   C     0.50088   0.21161   0.45892   0.00000  Uiso   1.00
C368   C     0.50247   0.28871   0.54106   0.00000  Uiso   1.00
C369   C     0.78258   0.02484   0.45902   0.00000  Uiso   1.00
C370   C     0.72346   0.47425   0.54057   0.00000  Uiso   1.00
C371   C     0.50276   0.28909   0.45905   0.00000  Uiso   1.00
C372   C     0.74999  -0.00000   0.85584   0.00000  Uiso   1.00
C373   C     0.50007   0.21120   0.54103   0.00000  Uiso   1.00
C374   C     0.72361   0.47490   0.45913   0.00000  Uiso   1.00
C375   C     0.78154   0.02528   0.54111   0.00000  Uiso   1.00
C376   C     0.74752   0.46137   0.95902   0.00000  Uiso   1.00
C377   C     0.75250   0.03862   0.04098   0.00000  Uiso   1.00
C378   C     0.52866   0.27579   0.95861   0.00000  Uiso   1.00
C379   C     0.97216   0.22514   0.04142   0.00000  Uiso   1.00
C380   C     0.75207   0.03874   0.95889   0.00000  Uiso   1.00
C381   C     0.74799   0.46125   0.04111   0.00000  Uiso   1.00
C382   C     0.97237   0.22279   0.95973   0.00000  Uiso   1.00
C383   C     0.75001   0.00000   0.14416   0.00000  Uiso   1.00
C384   C     0.52918   0.27729   0.04040   0.00000  Uiso   1.00
C385   C     0.50162   0.25022   0.47952   0.00000  Uiso   1.00
C386   C     0.50137   0.25002   0.52053   0.00000  Uiso   1.00
C387   C     0.75295   0.00000   0.47954   0.00000  Uiso   1.00
C388   C     0.75267   0.49992   0.52039   0.00000  Uiso   1.00
C389   C     0.74994   0.00002   0.97949   0.00000  Uiso   1.00
C390   C     0.75011   0.49996   0.02052   0.00000  Uiso   1.00
C391   C     0.50059   0.24972   0.97962   0.00000  Uiso   1.00
C392   C     0.50051   0.25085   0.02045   0.00000  Uiso   1.00
C393   C     0.99262   0.17358   0.47924   0.00000  Uiso   1.00
C394   C     0.66997   0.08002   0.24999   0.00000  Uiso   1.00
C395   C     0.51259   0.32620   0.52065   0.00000  Uiso   1.00
C396   C     0.80720   0.05465   0.47966   0.00000  Uiso   1.00
C397   C     0.70273   0.44158   0.52014   0.00000  Uiso   1.00
C398   C     0.51267   0.32641   0.47964   0.00000  Uiso   1.00
C399   C     0.99169   0.17354   0.52025   0.00000  Uiso   1.00
C400   C     0.70259   0.44204   0.47913   0.00000  Uiso   1.00
C401   C     0.80645   0.05509   0.52072   0.00000  Uiso   1.00
C402   C     0.73693   0.42415   0.97961   0.00000  Uiso   1.00
C403   C     0.76310   0.07584   0.02039   0.00000  Uiso   1.00
C404   C     0.54969   0.30873   0.97822   0.00000  Uiso   1.00
H405   H     0.96034   0.34485   0.41595   0.00000  Uiso   1.00
H406   H     0.62616   0.01226   0.38234   0.00000  Uiso   1.00
H407   H     0.66546   0.00253   0.34611   0.00000  Uiso   1.00
H408   H     0.67508   0.04028   0.38482   0.00000  Uiso   1.00
H409   H     0.81890   0.04060   0.63018   0.00000  Uiso   1.00
H410   H     0.88425   0.01138   0.61193   0.00000  Uiso   1.00
H411   H     0.86252   0.49501   0.56606   0.00000  Uiso   1.00
H412   H     0.84596   0.46933   0.61073   0.00000  Uiso   1.00
H413   H     0.51073   0.17274   0.36991   0.00000  Uiso   1.00
H414   H     0.57448   0.13894   0.38695   0.00000  Uiso   1.00
H415   H     0.57518   0.16614   0.43281   0.00000  Uiso   1.00
H416   H     0.99977   0.37764   0.36860   0.00000  Uiso   1.00
H417   H     0.58430   0.19493   0.38796   0.00000  Uiso   1.00
H418   H     0.95947   0.34402   0.58368   0.00000  Uiso   1.00
H419   H     0.99812   0.37713   0.63113   0.00000  Uiso   1.00
H420   H     0.53053   0.33121   0.63693   0.00000  Uiso   1.00
H421   H     0.97973   0.33471   0.66096   0.00000  Uiso   1.00
H422   H     0.85215   0.01750   0.41830   0.00000  Uiso   1.00
H423   H     0.86486   0.06412   0.36974   0.00000  Uiso   1.00
H424   H     0.80952   0.07465   0.36666   0.00000  Uiso   1.00
H425   H     0.83279   0.03093   0.33993   0.00000  Uiso   1.00
H426   H     0.65498   0.46145   0.58013   0.00000  Uiso   1.00
H427   H     0.98098   0.33539   0.33885   0.00000  Uiso   1.00
H428   H     0.62483   0.00655   0.61937   0.00000  Uiso   1.00
H429   H     0.67216   0.03706   0.61544   0.00000  Uiso   1.00
H430   H     0.66587   0.49843   0.65419   0.00000  Uiso   1.00
H431   H     0.70996   0.09441   0.91545   0.00000  Uiso   1.00
H432   H     0.74968   0.12719   0.86827   0.00000  Uiso   1.00
H433   H     0.73130   0.08482   0.83851   0.00000  Uiso   1.00
H434   H     0.78178   0.08098   0.86311   0.00000  Uiso   1.00
H435   H     0.79015   0.40563   0.08460   0.00000  Uiso   1.00
H436   H     0.75040   0.37281   0.13175   0.00000  Uiso   1.00
H437   H     0.71826   0.41900   0.13688   0.00000  Uiso   1.00
H438   H     0.53166   0.33134   0.36304   0.00000  Uiso   1.00
H439   H     0.76872   0.41521   0.16151   0.00000  Uiso   1.00
H440   H     0.93321   0.20544   0.87155   0.00000  Uiso   1.00
H441   H     0.86677   0.22999   0.89202   0.00000  Uiso   1.00
H442   H     0.90217   0.27451   0.89259   0.00000  Uiso   1.00
H443   H     0.88892   0.24728   0.93741   0.00000  Uiso   1.00
H444   H     0.59984   0.27398   0.07967   0.00000  Uiso   1.00
H445   H     0.61090   0.32200   0.12711   0.00000  Uiso   1.00
H446   H     0.58206   0.28719   0.15823   0.00000  Uiso   1.00
H447   H     0.55511   0.32892   0.13160   0.00000  Uiso   1.00
H448   H     0.78864   0.40503   0.91598   0.00000  Uiso   1.00
H449   H     0.54274   0.15658   0.58540   0.00000  Uiso   1.00
H450   H     0.74879   0.37281   0.86886   0.00000  Uiso   1.00
H451   H     0.76763   0.41494   0.83889   0.00000  Uiso   1.00
H452   H     0.71724   0.41939   0.86351   0.00000  Uiso   1.00
H453   H     0.71132   0.09494   0.08401   0.00000  Uiso   1.00
H454   H     0.75115   0.12718   0.13114   0.00000  Uiso   1.00
H455   H     0.78272   0.08062   0.13650   0.00000  Uiso   1.00
H456   H     0.73231   0.08504   0.16111   0.00000  Uiso   1.00
H457   H     0.59595   0.28909   0.91740   0.00000  Uiso   1.00
H458   H     0.62542   0.24347   0.87828   0.00000  Uiso   1.00
H459   H     0.58388   0.25147   0.84393   0.00000  Uiso   1.00
H460   H     0.50207   0.12281   0.63146   0.00000  Uiso   1.00
H461   H     0.57815   0.21299   0.88286   0.00000  Uiso   1.00
H462   H     0.90443   0.21344   0.08244   0.00000  Uiso   1.00
H463   H     0.87576   0.26098   0.12008   0.00000  Uiso   1.00
H464   H     0.92421   0.28969   0.11662   0.00000  Uiso   1.00
H465   H     0.91604   0.25160   0.15547   0.00000  Uiso   1.00
H466   H     0.96928   0.16859   0.63636   0.00000  Uiso   1.00
H467   H     0.51932   0.16521   0.66174   0.00000  Uiso   1.00
H468   H     0.65504   0.46392   0.41918   0.00000  Uiso   1.00
I469   I     0.97252   0.11756   0.44877   0.00000  Uiso   1.00
I470   I     0.79119   0.12845   0.05016   0.00000  Uiso   1.00
I471   I     0.56717   0.36474   0.94651   0.00000  Uiso   1.00
I472   I     0.93203   0.13694   0.05404   0.00000  Uiso   1.00
I473   I     0.78823   0.12986   0.94947   0.00000  Uiso   1.00
I474   I     0.71202   0.37004   0.05053   0.00000  Uiso   1.00
I475   I     0.92168   0.13850   0.95218   0.00000  Uiso   1.00
I476   I     0.57930   0.36160   0.04796   0.00000  Uiso   1.00
I477   I     0.53902   0.37943   0.55072   0.00000  Uiso   1.00
I478   I     0.83801   0.10549   0.44972   0.00000  Uiso   1.00
I479   I     0.68303   0.38563   0.55061   0.00000  Uiso   1.00
I480   I     0.53901   0.38002   0.44988   0.00000  Uiso   1.00
I481   I     0.96681   0.11888   0.54941   0.00000  Uiso   1.00
I482   I     0.68196   0.38710   0.44785   0.00000  Uiso   1.00
I483   I     0.83577   0.10677   0.55107   0.00000  Uiso   1.00
I484   I     0.70874   0.37159   0.94985   0.00000  Uiso   1.00
N485   N     0.97763   0.32439   0.39907   0.00000  Uiso   1.00
N486   N     0.77261   0.42605   0.10128   0.00000  Uiso   1.00
N487   N     0.93046   0.21516   0.89996   0.00000  Uiso   1.00
N488   N     0.57461   0.27605   0.09844   0.00000  Uiso   1.00
N489   N     0.77169   0.42580   0.89906   0.00000  Uiso   1.00
N490   N     0.72829   0.07418   0.10093   0.00000  Uiso   1.00
N491   N     0.57297   0.27742   0.89931   0.00000  Uiso   1.00
N492   N     0.92751   0.22501   0.10047   0.00000  Uiso   1.00
N493   N     0.52419   0.17652   0.60165   0.00000  Uiso   1.00
N494   N     0.67787   0.47546   0.40081   0.00000  Uiso   1.00
N495   N     0.82201   0.03034   0.60196   0.00000  Uiso   1.00
N496   N     0.52159   0.17644   0.39794   0.00000  Uiso   1.00
N497   N     0.97669   0.32364   0.60076   0.00000  Uiso   1.00
N498   N     0.82659   0.02103   0.40010   0.00000  Uiso   1.00
N499   N     0.67757   0.47271   0.59885   0.00000  Uiso   1.00
N500   N     0.72745   0.07397   0.89874   0.00000  Uiso   1.00
O501   O     0.75000  -0.00000   0.25000   0.00000  Uiso   1.00
O502   O     0.75000   0.46538   0.66251   0.00000  Uiso   1.00
O503   O     0.96538   0.25000   0.33749   0.00000  Uiso   1.00
O504   O     0.53461   0.25000   0.66251   0.00000  Uiso   1.00
O505   O     0.50000   0.21538   0.83749   0.00000  Uiso   1.00
O506   O     0.50000   0.28461   0.16251   0.00000  Uiso   1.00
O507   O     0.78461  -0.00000   0.83749   0.00000  Uiso   1.00
O508   O     0.71538  -0.00000   0.16251   0.00000  Uiso   1.00
O509   O     0.50000   0.28461   0.83749   0.00000  Uiso   1.00
O510   O     0.50000   0.21538   0.16251   0.00000  Uiso   1.00
O511   O     0.71538  -0.00000   0.83749   0.00000  Uiso   1.00
O512   O     0.75000  -0.00000   0.75000   0.00000  Uiso   1.00
O513   O     0.78461  -0.00000   0.16251   0.00000  Uiso   1.00
O514   O     0.70126   0.08332   0.27298   0.00000  Uiso   1.00
O515   O     0.79873   0.41668   0.72702   0.00000  Uiso   1.00
O516   O     0.91668   0.20126   0.27298   0.00000  Uiso   1.00
O517   O     0.58332   0.29873   0.72702   0.00000  Uiso   1.00
O518   O     0.79873   0.41668   0.27298   0.00000  Uiso   1.00
O519   O     0.70126   0.08332   0.72702   0.00000  Uiso   1.00
O520   O     0.58332   0.29873   0.27298   0.00000  Uiso   1.00
O521   O     0.91668   0.20126   0.72702   0.00000  Uiso   1.00
O522   O     0.70126   0.41668   0.72702   0.00000  Uiso   1.00
O523   O     0.50000   0.25000   0.25000   0.00000  Uiso   1.00
O524   O     0.79873   0.08332   0.27298   0.00000  Uiso   1.00
O525   O     0.91668   0.29873   0.72702   0.00000  Uiso   1.00
O526   O     0.58332   0.20126   0.27298   0.00000  Uiso   1.00
O527   O     0.79873   0.08332   0.72702   0.00000  Uiso   1.00
O528   O     0.70126   0.41668   0.27298   0.00000  Uiso   1.00
O529   O     0.58332   0.20126   0.72702   0.00000  Uiso   1.00
O530   O     0.91668   0.29873   0.27298   0.00000  Uiso   1.00
O531   O     0.95126   0.33332   0.77298   0.00000  Uiso   1.00
O532   O     0.54873   0.16668   0.22702   0.00000  Uiso   1.00
O533   O     0.66668   0.45126   0.77298   0.00000  Uiso   1.00
O534   O     0.50000   0.25000   0.75000   0.00000  Uiso   1.00
O535   O     0.83332   0.04873   0.22702   0.00000  Uiso   1.00
O536   O     0.54873   0.16668   0.77298   0.00000  Uiso   1.00
O537   O     0.95126   0.33332   0.22702   0.00000  Uiso   1.00
O538   O     0.83332   0.04873   0.77298   0.00000  Uiso   1.00
O539   O     0.66668   0.45126   0.22702   0.00000  Uiso   1.00
O540   O     0.95126   0.16668   0.22702   0.00000  Uiso   1.00
O541   O     0.54873   0.33332   0.77298   0.00000  Uiso   1.00
O542   O     0.66668   0.04873   0.22702   0.00000  Uiso   1.00
O543   O     0.83332   0.45126   0.77298   0.00000  Uiso   1.00
O544   O     0.54873   0.33332   0.22702   0.00000  Uiso   1.00
O545   O     0.75000   0.46538   0.33749   0.00000  Uiso   1.00
O546   O     0.95126   0.16668   0.77298   0.00000  Uiso   1.00
O547   O     0.83332   0.45126   0.22702   0.00000  Uiso   1.00
O548   O     0.66668   0.04873   0.77298   0.00000  Uiso   1.00
O549   O     0.75000   0.03461   0.66251   0.00000  Uiso   1.00
O550   O     0.53461   0.25000   0.33749   0.00000  Uiso   1.00
O551   O     0.96538   0.25000   0.66251   0.00000  Uiso   1.00
O552   O     0.75000   0.03461   0.33749   0.00000  Uiso   1.00
Zn553  Zn    0.70052  -0.00000   0.21730   0.00000  Uiso   1.00
Zn554  Zn    0.54947   0.25000   0.28270   0.00000  Uiso   1.00
Zn555  Zn    0.75000   0.45052   0.71730   0.00000  Uiso   1.00
Zn556  Zn    0.75000   0.04947   0.28270   0.00000  Uiso   1.00
Zn557  Zn    0.54947   0.25000   0.71730   0.00000  Uiso   1.00
Zn558  Zn    0.95052   0.25000   0.28270   0.00000  Uiso   1.00
Zn559  Zn    0.75000   0.04947   0.71730   0.00000  Uiso   1.00
Zn560  Zn    0.75000   0.45052   0.28270   0.00000  Uiso   1.00
Zn561  Zn    0.79947  -0.00000   0.78270   0.00000  Uiso   1.00
Zn562  Zn    0.50000   0.20052   0.21730   0.00000  Uiso   1.00
Zn563  Zn    0.50000   0.29947   0.78270   0.00000  Uiso   1.00
Zn564  Zn    0.79947  -0.00000   0.21730   0.00000  Uiso   1.00
Zn565  Zn    0.70052  -0.00000   0.78270   0.00000  Uiso   1.00
Zn566  Zn    0.50000   0.29947   0.21730   0.00000  Uiso   1.00
Zn567  Zn    0.50000   0.20052   0.78270   0.00000  Uiso   1.00
Zn568  Zn    0.95052   0.25000   0.71730   0.00000  Uiso   1.00
C569   C     0.25122   0.50006   0.35591   0.00000  Uiso   1.00
C570   C     0.33003   0.91997   0.75002   0.00000  Uiso   1.00
C571   C     0.45097   0.69217   0.02195   0.00000  Uiso   1.00
C572   C     0.26258   0.57602   0.97938   0.00000  Uiso   1.00
C573   C     0.23751   0.92396   0.02062   0.00000  Uiso   1.00
C574   C     0.45002   0.69157   0.98095   0.00000  Uiso   1.00
C575   C     0.05130   0.80867   0.01920   0.00000  Uiso   1.00
C576   C     0.49879   0.84286   0.36572   0.00000  Uiso   1.00
C577   C     0.00239   0.65758   0.63443   0.00000  Uiso   1.00
C578   C     0.16061   0.50945   0.37740   0.00000  Uiso   1.00
C579   C     0.35531   0.99979   0.59736   0.00000  Uiso   1.00
C580   C     0.06625   0.66888   0.40168   0.00000  Uiso   1.00
C581   C     0.41997   0.66999   0.25000   0.00000  Uiso   1.00
C582   C     0.49754   0.84235   0.63412   0.00000  Uiso   1.00
C583   C     0.33337   0.54914   0.36742   0.00000  Uiso   1.00
C584   C     0.15956   0.50547   0.62313   0.00000  Uiso   1.00
C585   C     0.24885   0.59240   0.86550   0.00000  Uiso   1.00
C586   C     0.25120   0.90760   0.13452   0.00000  Uiso   1.00
C587   C     0.39535   0.74334   0.90588   0.00000  Uiso   1.00
C588   C     0.08055   0.80502   0.13050   0.00000  Uiso   1.00
C589   C     0.25003   0.90759   0.86592   0.00000  Uiso   1.00
C590   C     0.24992   0.59240   0.13408   0.00000  Uiso   1.00
C591   C     0.09064   0.74456   0.87493   0.00000  Uiso   1.00
C592   C     0.08002   0.83002   0.74999   0.00000  Uiso   1.00
C593   C     0.41036   0.75862   0.12430   0.00000  Uiso   1.00
C594   C     0.33002   0.91995   0.25000   0.00000  Uiso   1.00
C595   C     0.16998   0.58005   0.75000   0.00000  Uiso   1.00
C596   C     0.08003   0.83003   0.24998   0.00000  Uiso   1.00
C597   C     0.41998   0.66996   0.75000   0.00000  Uiso   1.00
C598   C     0.16998   0.91998   0.75001   0.00000  Uiso   1.00
C599   C     0.33003   0.58001   0.25000   0.00000  Uiso   1.00
C600   C     0.41998   0.83003   0.74998   0.00000  Uiso   1.00
C601   C     0.25034   0.50006   0.64408   0.00000  Uiso   1.00
C602   C     0.08003   0.66997   0.25001   0.00000  Uiso   1.00
C603   C     0.33002   0.58004   0.75000   0.00000  Uiso   1.00
C604   C     0.16999   0.91995   0.25000   0.00000  Uiso   1.00
C605   C     0.08002   0.66995   0.75001   0.00000  Uiso   1.00
C606   C     0.41997   0.83004   0.24999   0.00000  Uiso   1.00
C607   C     0.13835   0.88830   0.24998   0.00000  Uiso   1.00
C608   C     0.36166   0.61168   0.74999   0.00000  Uiso   1.00
C609   C     0.11168   0.63833   0.25002   0.00000  Uiso   1.00
C610   C     0.38833   0.86167   0.74998   0.00000  Uiso   1.00
C611   C     0.36168   0.61165   0.25001   0.00000  Uiso   1.00
C612   C     0.00006   0.75020   0.35585   0.00000  Uiso   1.00
C613   C     0.13833   0.88834   0.75001   0.00000  Uiso   1.00
C614   C     0.38833   0.86168   0.24998   0.00000  Uiso   1.00
C615   C     0.11166   0.63831   0.75001   0.00000  Uiso   1.00
C616   C     0.13834   0.61169   0.74999   0.00000  Uiso   1.00
C617   C     0.36166   0.88831   0.25000   0.00000  Uiso   1.00
C618   C     0.11167   0.86166   0.74999   0.00000  Uiso   1.00
C619   C     0.38833   0.63833   0.25002   0.00000  Uiso   1.00
C620   C     0.36168   0.88833   0.75001   0.00000  Uiso   1.00
C621   C     0.13832   0.61166   0.25000   0.00000  Uiso   1.00
C622   C     0.38834   0.63832   0.75001   0.00000  Uiso   1.00
C623   C     0.00001   0.74999   0.64415   0.00000  Uiso   1.00
C624   C     0.11167   0.86166   0.24996   0.00000  Uiso   1.00
C625   C     0.49599   0.78884   0.41833   0.00000  Uiso   1.00
C626   C     0.00577   0.71172   0.58187   0.00000  Uiso   1.00
C627   C     0.21792   0.98273   0.41908   0.00000  Uiso   1.00
C628   C     0.28410   0.52010   0.58181   0.00000  Uiso   1.00
C629   C     0.00697   0.71269   0.41827   0.00000  Uiso   1.00
C630   C     0.49539   0.78821   0.58167   0.00000  Uiso   1.00
C631   C     0.28606   0.51912   0.41832   0.00000  Uiso   1.00
C632   C     0.21747   0.98137   0.58076   0.00000  Uiso   1.00
C633   C     0.24554   0.53836   0.91817   0.00000  Uiso   1.00
C634   C     0.49929   0.74985   0.85593   0.00000  Uiso   1.00
C635   C     0.25451   0.96163   0.08184   0.00000  Uiso   1.00
C636   C     0.46829   0.72772   0.91908   0.00000  Uiso   1.00
C637   C     0.03385   0.77174   0.08102   0.00000  Uiso   1.00
C638   C     0.25402   0.96166   0.91832   0.00000  Uiso   1.00
C639   C     0.24598   0.53833   0.08168   0.00000  Uiso   1.00
C640   C     0.03361   0.76859   0.91836   0.00000  Uiso   1.00
C641   C     0.46713   0.73283   0.08155   0.00000  Uiso   1.00
C642   C     0.00061   0.75064   0.39815   0.00000  Uiso   1.00
C643   C     0.00012   0.74993   0.60189   0.00000  Uiso   1.00
C644   C     0.25173   0.50079   0.39831   0.00000  Uiso   1.00
C645   C     0.00149   0.75021   0.14409   0.00000  Uiso   1.00
C646   C     0.25050   0.50060   0.60165   0.00000  Uiso   1.00
C647   C     0.24993   0.50002   0.89811   0.00000  Uiso   1.00
C648   C     0.25007   0.99998   0.10189   0.00000  Uiso   1.00
C649   C     0.00026   0.74894   0.89835   0.00000  Uiso   1.00
C650   C     0.00102   0.75145   0.10168   0.00000  Uiso   1.00
C651   C     0.00088   0.71161   0.45892   0.00000  Uiso   1.00
C652   C     0.00247   0.78871   0.54106   0.00000  Uiso   1.00
C653   C     0.28258   0.52484   0.45902   0.00000  Uiso   1.00
C654   C     0.22346   0.97425   0.54057   0.00000  Uiso   1.00
C655   C     0.00276   0.78909   0.45905   0.00000  Uiso   1.00
C656   C     0.24999   0.50000   0.85584   0.00000  Uiso   1.00
C657   C     0.00007   0.71120   0.54103   0.00000  Uiso   1.00
C658   C     0.22361   0.97490   0.45913   0.00000  Uiso   1.00
C659   C     0.28154   0.52528   0.54111   0.00000  Uiso   1.00
C660   C     0.24752   0.96137   0.95902   0.00000  Uiso   1.00
C661   C     0.25250   0.53862   0.04098   0.00000  Uiso   1.00
C662   C     0.02866   0.77579   0.95861   0.00000  Uiso   1.00
C663   C     0.47216   0.72514   0.04142   0.00000  Uiso   1.00
C664   C     0.25207   0.53874   0.95889   0.00000  Uiso   1.00
C665   C     0.24799   0.96125   0.04111   0.00000  Uiso   1.00
C666   C     0.47237   0.72279   0.95973   0.00000  Uiso   1.00
C667   C     0.25001   0.50000   0.14416   0.00000  Uiso   1.00
C668   C     0.02918   0.77729   0.04040   0.00000  Uiso   1.00
C669   C     0.00162   0.75022   0.47952   0.00000  Uiso   1.00
C670   C     0.00137   0.75002   0.52053   0.00000  Uiso   1.00
C671   C     0.25295   0.50000   0.47954   0.00000  Uiso   1.00
C672   C     0.25267   0.99992   0.52039   0.00000  Uiso   1.00
C673   C     0.24994   0.50002   0.97949   0.00000  Uiso   1.00
C674   C     0.25011   0.99996   0.02052   0.00000  Uiso   1.00
C675   C     0.00059   0.74972   0.97962   0.00000  Uiso   1.00
C676   C     0.00051   0.75085   0.02045   0.00000  Uiso   1.00
C677   C     0.49262   0.67358   0.47924   0.00000  Uiso   1.00
C678   C     0.16997   0.58002   0.24999   0.00000  Uiso   1.00
C679   C     0.01259   0.82620   0.52065   0.00000  Uiso   1.00
C680   C     0.30720   0.55465   0.47966   0.00000  Uiso   1.00
C681   C     0.20273   0.94158   0.52014   0.00000  Uiso   1.00
C682   C     0.01267   0.82641   0.47964   0.00000  Uiso   1.00
C683   C     0.49169   0.67354   0.52025   0.00000  Uiso   1.00
C684   C     0.20259   0.94204   0.47913   0.00000  Uiso   1.00
C685   C     0.30645   0.55509   0.52072   0.00000  Uiso   1.00
C686   C     0.23693   0.92415   0.97961   0.00000  Uiso   1.00
C687   C     0.26310   0.57584   0.02039   0.00000  Uiso   1.00
C688   C     0.04969   0.80873   0.97822   0.00000  Uiso   1.00
H689   H     0.46034   0.84485   0.41595   0.00000  Uiso   1.00
H690   H     0.12616   0.51226   0.38234   0.00000  Uiso   1.00
H691   H     0.16546   0.50253   0.34611   0.00000  Uiso   1.00
H692   H     0.17508   0.54028   0.38482   0.00000  Uiso   1.00
H693   H     0.31890   0.54060   0.63018   0.00000  Uiso   1.00
H694   H     0.38425   0.51138   0.61193   0.00000  Uiso   1.00
H695   H     0.36252   0.99501   0.56606   0.00000  Uiso   1.00
H696   H     0.34596   0.96933   0.61073   0.00000  Uiso   1.00
H697   H     0.01073   0.67274   0.36991   0.00000  Uiso   1.00
H698   H     0.07448   0.63894   0.38695   0.00000  Uiso   1.00
H699   H     0.07518   0.66614   0.43281   0.00000  Uiso   1.00
H700   H     0.49977   0.87764   0.36860   0.00000  Uiso   1.00
H701   H     0.08430   0.69493   0.38796   0.00000  Uiso   1.00
H702   H     0.45947   0.84402   0.58368   0.00000  Uiso   1.00
H703   H     0.49812   0.87713   0.63113   0.00000  Uiso   1.00
H704   H     0.03053   0.83121   0.63693   0.00000  Uiso   1.00
H705   H     0.47973   0.83471   0.66096   0.00000  Uiso   1.00
H706   H     0.35215   0.51750   0.41830   0.00000  Uiso   1.00
H707   H     0.36486   0.56412   0.36974   0.00000  Uiso   1.00
H708   H     0.30952   0.57465   0.36666   0.00000  Uiso   1.00
H709   H     0.33279   0.53093   0.33993   0.00000  Uiso   1.00
H710   H     0.15498   0.96145   0.58013   0.00000  Uiso   1.00
H711   H     0.48098   0.83539   0.33885   0.00000  Uiso   1.00
H712   H     0.12483   0.50655   0.61937   0.00000  Uiso   1.00
H713   H     0.17216   0.53706   0.61544   0.00000  Uiso   1.00
H714   H     0.16587   0.99843   0.65419   0.00000  Uiso   1.00
H715   H     0.20996   0.59441   0.91545   0.00000  Uiso   1.00
H716   H     0.24968   0.62719   0.86827   0.00000  Uiso   1.00
H717   H     0.23130   0.58482   0.83851   0.00000  Uiso   1.00
H718   H     0.28178   0.58098   0.86311   0.00000  Uiso   1.00
H719   H     0.29015   0.90563   0.08460   0.00000  Uiso   1.00
H720   H     0.25040   0.87281   0.13175   0.00000  Uiso   1.00
H721   H     0.21826   0.91900   0.13688   0.00000  Uiso   1.00
H722   H     0.03166   0.83134   0.36304   0.00000  Uiso   1.00
H723   H     0.26872   0.91521   0.16151   0.00000  Uiso   1.00
H724   H     0.43321   0.70544   0.87155   0.00000  Uiso   1.00
H725   H     0.36677   0.72999   0.89202   0.00000  Uiso   1.00
H726   H     0.40217   0.77451   0.89259   0.00000  Uiso   1.00
H727   H     0.38892   0.74728   0.93741   0.00000  Uiso   1.00
H728   H     0.09984   0.77398   0.07967   0.00000  Uiso   1.00
H729   H     0.11090   0.82200   0.12711   0.00000  Uiso   1.00
H730   H     0.08206   0.78719   0.15823   0.00000  Uiso   1.00
H731   H     0.05511   0.82892   0.13160   0.00000  Uiso   1.00
H732   H     0.28864   0.90503   0.91598   0.00000  Uiso   1.00
H733   H     0.04274   0.65658   0.58540   0.00000  Uiso   1.00
H734   H     0.24879   0.87281   0.86886   0.00000  Uiso   1.00
H735   H     0.26763   0.91494   0.83889   0.00000  Uiso   1.00
H736   H     0.21724   0.91939   0.86351   0.00000  Uiso   1.00
H737   H     0.21132   0.59494   0.08401   0.00000  Uiso   1.00
H738   H     0.25115   0.62718   0.13114   0.00000  Uiso   1.00
H739   H     0.28272   0.58062   0.13650   0.00000  Uiso   1.00
H740   H     0.23231   0.58504   0.16111   0.00000  Uiso   1.00
H741   H     0.09595   0.78909   0.91740   0.00000  Uiso   1.00
H742   H     0.12542   0.74347   0.87828   0.00000  Uiso   1.00
H743   H     0.08388   0.75147   0.84393   0.00000  Uiso   1.00
H744   H     0.00207   0.62281   0.63146   0.00000  Uiso   1.00
H745   H     0.07815   0.71299   0.88286   0.00000  Uiso   1.00
H746   H     0.40443   0.71344   0.08244   0.00000  Uiso   1.00
H747   H     0.37576   0.76098   0.12008   0.00000  Uiso   1.00
H748   H     0.42421   0.78969   0.11662   0.00000  Uiso   1.00
H749   H     0.41604   0.75160   0.15547   0.00000  Uiso   1.00
H750   H     0.46928   0.66859   0.63636   0.00000  Uiso   1.00
H751   H     0.01932   0.66521   0.66174   0.00000  Uiso   1.00
H752   H     0.15504   0.96392   0.41918   0.00000  Uiso   1.00
I753   I     0.47252   0.61756   0.44877   0.00000  Uiso   1.00
I754   I     0.29119   0.62845   0.05016   0.00000  Uiso   1.00
I755   I     0.06717   0.86474   0.94651   0.00000  Uiso   1.00
I756   I     0.43203   0.63694   0.05404   0.00000  Uiso   1.00
I757   I     0.28823   0.62986   0.94947   0.00000  Uiso   1.00
I758   I     0.21202   0.87004   0.05053   0.00000  Uiso   1.00
I759   I     0.42168   0.63850   0.95218   0.00000  Uiso   1.00
I760   I     0.07930   0.86160   0.04796   0.00000  Uiso   1.00
I761   I     0.03902   0.87943   0.55072   0.00000  Uiso   1.00
I762   I     0.33801   0.60549   0.44972   0.00000  Uiso   1.00
I763   I     0.18303   0.88563   0.55061   0.00000  Uiso   1.00
I764   I     0.03901   0.88002   0.44988   0.00000  Uiso   1.00
I765   I     0.46681   0.61888   0.54941   0.00000  Uiso   1.00
I766   I     0.18196   0.88710   0.44785   0.00000  Uiso   1.00
I767   I     0.33577   0.60677   0.55107   0.00000  Uiso   1.00
I768   I     0.20874   0.87159   0.94985   0.00000  Uiso   1.00
N769   N     0.47763   0.82439   0.39907   0.00000  Uiso   1.00
N770   N     0.27261   0.92605   0.10128   0.00000  Uiso   1.00
N771   N     0.43046   0.71516   0.89996   0.00000  Uiso   1.00
N772   N     0.07461   0.77605   0.09844   0.00000  Uiso   1.00
N773   N     0.27169   0.92580   0.89906   0.00000  Uiso   1.00
N774   N     0.22829   0.57418   0.10093   0.00000  Uiso   1.00
N775   N     0.07297   0.77742   0.89931   0.00000  Uiso   1.00
N776   N     0.42751   0.72501   0.10047   0.00000  Uiso   1.00
N777   N     0.02419   0.67652   0.60165   0.00000  Uiso   1.00
N778   N     0.17787   0.97546   0.40081   0.00000  Uiso   1.00
N779   N     0.32201   0.53034   0.60196   0.00000  Uiso   1.00
N780   N     0.02159   0.67644   0.39794   0.00000  Uiso   1.00
N781   N     0.47669   0.82364   0.60076   0.00000  Uiso   1.00
N782   N     0.32659   0.52103   0.40010   0.00000  Uiso   1.00
N783   N     0.17757   0.97271   0.59885   0.00000  Uiso   1.00
N784   N     0.22745   0.57397   0.89874   0.00000  Uiso   1.00
O785   O     0.25000   0.50000   0.25000   0.00000  Uiso   1.00
O786   O     0.25000   0.96538   0.66251   0.00000  Uiso   1.00
O787   O     0.46538   0.75000   0.33749   0.00000  Uiso   1.00
O788   O     0.03461   0.75000   0.66251   0.00000  Uiso   1.00
O789   O     0.00000   0.71538   0.83749   0.00000  Uiso   1.00
O790   O    -0.00000   0.78461   0.16251   0.00000  Uiso   1.00
O791   O     0.28461   0.50000   0.83749   0.00000  Uiso   1.00
O792   O     0.21538   0.50000   0.16251   0.00000  Uiso   1.00
O793   O    -0.00000   0.78461   0.83749   0.00000  Uiso   1.00
O794   O     0.00000   0.71538   0.16251   0.00000  Uiso   1.00
O795   O     0.21538   0.50000   0.83749   0.00000  Uiso   1.00
O796   O     0.25000   0.50000   0.75000   0.00000  Uiso   1.00
O797   O     0.28461   0.50000   0.16251   0.00000  Uiso   1.00
O798   O     0.20126   0.58332   0.27298   0.00000  Uiso   1.00
O799   O     0.29873   0.91668   0.72702   0.00000  Uiso   1.00
O800   O     0.41668   0.70126   0.27298   0.00000  Uiso   1.00
O801   O     0.08332   0.79873   0.72702   0.00000  Uiso   1.00
O802   O     0.29873   0.91668   0.27298   0.00000  Uiso   1.00
O803   O     0.20126   0.58332   0.72702   0.00000  Uiso   1.00
O804   O     0.08332   0.79873   0.27298   0.00000  Uiso   1.00
O805   O     0.41668   0.70126   0.72702   0.00000  Uiso   1.00
O806   O     0.20126   0.91668   0.72702   0.00000  Uiso   1.00
O807   O     0.00000   0.75000   0.25000   0.00000  Uiso   1.00
O808   O     0.29873   0.58332   0.27298   0.00000  Uiso   1.00
O809   O     0.41668   0.79873   0.72702   0.00000  Uiso   1.00
O810   O     0.08332   0.70126   0.27298   0.00000  Uiso   1.00
O811   O     0.29873   0.58332   0.72702   0.00000  Uiso   1.00
O812   O     0.20126   0.91668   0.27298   0.00000  Uiso   1.00
O813   O     0.08332   0.70126   0.72702   0.00000  Uiso   1.00
O814   O     0.41668   0.79873   0.27298   0.00000  Uiso   1.00
O815   O     0.45126   0.83332   0.77298   0.00000  Uiso   1.00
O816   O     0.04873   0.66668   0.22702   0.00000  Uiso   1.00
O817   O     0.16668   0.95126   0.77298   0.00000  Uiso   1.00
O818   O     0.00000   0.75000   0.75000   0.00000  Uiso   1.00
O819   O     0.33332   0.54873   0.22702   0.00000  Uiso   1.00
O820   O     0.04873   0.66668   0.77298   0.00000  Uiso   1.00
O821   O     0.45126   0.83332   0.22702   0.00000  Uiso   1.00
O822   O     0.33332   0.54873   0.77298   0.00000  Uiso   1.00
O823   O     0.16668   0.95126   0.22702   0.00000  Uiso   1.00
O824   O     0.45126   0.66668   0.22702   0.00000  Uiso   1.00
O825   O     0.04873   0.83332   0.77298   0.00000  Uiso   1.00
O826   O     0.16668   0.54873   0.22702   0.00000  Uiso   1.00
O827   O     0.33332   0.95126   0.77298   0.00000  Uiso   1.00
O828   O     0.04873   0.83332   0.22702   0.00000  Uiso   1.00
O829   O     0.25000   0.96538   0.33749   0.00000  Uiso   1.00
O830   O     0.45126   0.66668   0.77298   0.00000  Uiso   1.00
O831   O     0.33332   0.95126   0.22702   0.00000  Uiso   1.00
O832   O     0.16668   0.54873   0.77298   0.00000  Uiso   1.00
O833   O     0.25000   0.53461   0.66251   0.00000  Uiso   1.00
O834   O     0.03461   0.75000   0.33749   0.00000  Uiso   1.00
O835   O     0.46538   0.75000   0.66251   0.00000  Uiso   1.00
O836   O     0.25000   0.53461   0.33749   0.00000  Uiso   1.00
Zn837  Zn    0.20052   0.50000   0.21730   0.00000  Uiso   1.00
Zn838  Zn    0.04947   0.75000   0.28270   0.00000  Uiso   1.00
Zn839  Zn    0.25000   0.95052   0.71730   0.00000  Uiso   1.00
Zn840  Zn    0.25000   0.54947   0.28270   0.00000  Uiso   1.00
Zn841  Zn    0.04947   0.75000   0.71730   0.00000  Uiso   1.00
Zn842  Zn    0.45052   0.75000   0.28270   0.00000  Uiso   1.00
Zn843  Zn    0.25000   0.54947   0.71730   0.00000  Uiso   1.00
Zn844  Zn    0.25000   0.95052   0.28270   0.00000  Uiso   1.00
Zn845  Zn    0.29947   0.50000   0.78270   0.00000  Uiso   1.00
Zn846  Zn   -0.00000   0.70052   0.21730   0.00000  Uiso   1.00
Zn847  Zn   -0.00000   0.79947   0.78270   0.00000  Uiso   1.00
Zn848  Zn    0.29947   0.50000   0.21730   0.00000  Uiso   1.00
Zn849  Zn    0.20052   0.50000   0.78270   0.00000  Uiso   1.00
Zn850  Zn   -0.00000   0.79947   0.21730   0.00000  Uiso   1.00
Zn851  Zn   -0.00000   0.70052   0.78270   0.00000  Uiso   1.00
Zn852  Zn    0.45052   0.75000   0.71730   0.00000  Uiso   1.00
C853   C     0.75122   0.50006   0.35591   0.00000  Uiso   1.00
C854   C     0.83003   0.91997   0.75002   0.00000  Uiso   1.00
C855   C     0.95097   0.69217   0.02195   0.00000  Uiso   1.00
C856   C     0.76258   0.57602   0.97938   0.00000  Uiso   1.00
C857   C     0.73751   0.92396   0.02062   0.00000  Uiso   1.00
C858   C     0.95002   0.69157   0.98095   0.00000  Uiso   1.00
C859   C     0.55130   0.80867   0.01920   0.00000  Uiso   1.00
C860   C     0.99879   0.84286   0.36572   0.00000  Uiso   1.00
C861   C     0.50239   0.65758   0.63443   0.00000  Uiso   1.00
C862   C     0.66061   0.50945   0.37740   0.00000  Uiso   1.00
C863   C     0.85531   0.99979   0.59736   0.00000  Uiso   1.00
C864   C     0.56625   0.66888   0.40168   0.00000  Uiso   1.00
C865   C     0.91997   0.66999   0.25000   0.00000  Uiso   1.00
C866   C     0.99754   0.84235   0.63412   0.00000  Uiso   1.00
C867   C     0.83337   0.54914   0.36742   0.00000  Uiso   1.00
C868   C     0.65956   0.50547   0.62313   0.00000  Uiso   1.00
C869   C     0.74885   0.59240   0.86550   0.00000  Uiso   1.00
C870   C     0.75120   0.90760   0.13452   0.00000  Uiso   1.00
C871   C     0.89535   0.74334   0.90588   0.00000  Uiso   1.00
C872   C     0.58055   0.80502   0.13050   0.00000  Uiso   1.00
C873   C     0.75003   0.90759   0.86592   0.00000  Uiso   1.00
C874   C     0.74992   0.59240   0.13408   0.00000  Uiso   1.00
C875   C     0.59064   0.74456   0.87493   0.00000  Uiso   1.00
C876   C     0.58002   0.83002   0.74999   0.00000  Uiso   1.00
C877   C     0.91036   0.75862   0.12430   0.00000  Uiso   1.00
C878   C     0.83002   0.91995   0.25000   0.00000  Uiso   1.00
C879   C     0.66998   0.58005   0.75000   0.00000  Uiso   1.00
C880   C     0.58003   0.83003   0.24998   0.00000  Uiso   1.00
C881   C     0.91998   0.66996   0.75000   0.00000  Uiso   1.00
C882   C     0.66998   0.91998   0.75001   0.00000  Uiso   1.00
C883   C     0.83003   0.58001   0.25000   0.00000  Uiso   1.00
C884   C     0.91998   0.83003   0.74998   0.00000  Uiso   1.00
C885   C     0.75034   0.50006   0.64408   0.00000  Uiso   1.00
C886   C     0.58003   0.66997   0.25001   0.00000  Uiso   1.00
C887   C     0.83002   0.58004   0.75000   0.00000  Uiso   1.00
C888   C     0.66999   0.91995   0.25000   0.00000  Uiso   1.00
C889   C     0.58002   0.66995   0.75001   0.00000  Uiso   1.00
C890   C     0.91997   0.83004   0.24999   0.00000  Uiso   1.00
C891   C     0.63835   0.88830   0.24998   0.00000  Uiso   1.00
C892   C     0.86166   0.61168   0.74999   0.00000  Uiso   1.00
C893   C     0.61168   0.63833   0.25002   0.00000  Uiso   1.00
C894   C     0.88833   0.86167   0.74998   0.00000  Uiso   1.00
C895   C     0.86168   0.61165   0.25001   0.00000  Uiso   1.00
C896   C     0.50006   0.75020   0.35585   0.00000  Uiso   1.00
C897   C     0.63833   0.88834   0.75001   0.00000  Uiso   1.00
C898   C     0.88833   0.86168   0.24998   0.00000  Uiso   1.00
C899   C     0.61166   0.63831   0.75001   0.00000  Uiso   1.00
C900   C     0.63834   0.61169   0.74999   0.00000  Uiso   1.00
C901   C     0.86166   0.88831   0.25000   0.00000  Uiso   1.00
C902   C     0.61167   0.86166   0.74999   0.00000  Uiso   1.00
C903   C     0.88833   0.63833   0.25002   0.00000  Uiso   1.00
C904   C     0.86168   0.88833   0.75001   0.00000  Uiso   1.00
C905   C     0.63832   0.61166   0.25000   0.00000  Uiso   1.00
C906   C     0.88834   0.63832   0.75001   0.00000  Uiso   1.00
C907   C     0.50001   0.74999   0.64415   0.00000  Uiso   1.00
C908   C     0.61167   0.86166   0.24996   0.00000  Uiso   1.00
C909   C     0.99599   0.78884   0.41833   0.00000  Uiso   1.00
C910   C     0.50577   0.71172   0.58187   0.00000  Uiso   1.00
C911   C     0.71792   0.98273   0.41908   0.00000  Uiso   1.00
C912   C     0.78410   0.52010   0.58181   0.00000  Uiso   1.00
C913   C     0.50697   0.71269   0.41827   0.00000  Uiso   1.00
C914   C     0.99539   0.78821   0.58167   0.00000  Uiso   1.00
C915   C     0.78606   0.51912   0.41832   0.00000  Uiso   1.00
C916   C     0.71747   0.98137   0.58076   0.00000  Uiso   1.00
C917   C     0.74554   0.53836   0.91817   0.00000  Uiso   1.00
C918   C     0.99929   0.74985   0.85593   0.00000  Uiso   1.00
C919   C     0.75451   0.96163   0.08184   0.00000  Uiso   1.00
C920   C     0.96829   0.72772   0.91908   0.00000  Uiso   1.00
C921   C     0.53385   0.77174   0.08102   0.00000  Uiso   1.00
C922   C     0.75402   0.96166   0.91832   0.00000  Uiso   1.00
C923   C     0.74598   0.53833   0.08168   0.00000  Uiso   1.00
C924   C     0.53361   0.76859   0.91836   0.00000  Uiso   1.00
C925   C     0.96713   0.73283   0.08155   0.00000  Uiso   1.00
C926   C     0.50061   0.75064   0.39815   0.00000  Uiso   1.00
C927   C     0.50012   0.74993   0.60189   0.00000  Uiso   1.00
C928   C     0.75173   0.50079   0.39831   0.00000  Uiso   1.00
C929   C     0.50149   0.75021   0.14409   0.00000  Uiso   1.00
C930   C     0.75050   0.50060   0.60165   0.00000  Uiso   1.00
C931   C     0.74993   0.50002   0.89811   0.00000  Uiso   1.00
C932   C     0.75007   0.99998   0.10189   0.00000  Uiso   1.00
C933   C     0.50026   0.74894   0.89835   0.00000  Uiso   1.00
C934   C     0.50102   0.75145   0.10168   0.00000  Uiso   1.00
C935   C     0.50088   0.71161   0.45892   0.00000  Uiso   1.00
C936   C     0.50247   0.78871   0.54106   0.00000  Uiso   1.00
C937   C     0.78258   0.52484   0.45902   0.00000  Uiso   1.00
C938   C     0.72346   0.97425   0.54057   0.00000  Uiso   1.00
C939   C     0.50276   0.78909   0.45905   0.00000  Uiso   1.00
C940   C     0.74999   0.50000   0.85584   0.00000  Uiso   1.00
C941   C     0.50007   0.71120   0.54103   0.00000  Uiso   1.00
C942   C     0.72361   0.97490   0.45913   0.00000  Uiso   1.00
C943   C     0.78154   0.52528   0.54111   0.00000  Uiso   1.00
C944   C     0.74752   0.96137   0.95902   0.00000  Uiso   1.00
C945   C     0.75250   0.53862   0.04098   0.00000  Uiso   1.00
C946   C     0.52866   0.77579   0.95861   0.00000  Uiso   1.00
C947   C     0.97216   0.72514   0.04142   0.00000  Uiso   1.00
C948   C     0.75207   0.53874   0.95889   0.00000  Uiso   1.00
C949   C     0.74799   0.96125   0.04111   0.00000  Uiso   1.00
C950   C     0.97237   0.72279   0.95973   0.00000  Uiso   1.00
C951   C     0.75001   0.50000   0.14416   0.00000  Uiso   1.00
C952   C     0.52918   0.77729   0.04040   0.00000  Uiso   1.00
C953   C     0.50162   0.75022   0.47952   0.00000  Uiso   1.00
C954   C     0.50137   0.75002   0.52053   0.00000  Uiso   1.00
C955   C     0.75295   0.50000   0.47954   0.00000  Uiso   1.00
C956   C     0.75267   0.99992   0.52039   0.00000  Uiso   1.00
C957   C     0.74994   0.50002   0.97949   0.00000  Uiso   1.00
C958   C     0.75011   0.99996   0.02052   0.00000  Uiso   1.00
C959   C     0.50059   0.74972   0.97962   0.00000  Uiso   1.00
C960   C     0.50051   0.75085   0.02045   0.00000  Uiso   1.00
C961   C     0.99262   0.67358   0.47924   0.00000  Uiso   1.00
C962   C     0.66997   0.58002   0.24999   0.00000  Uiso   1.00
C963   C     0.51259   0.82620   0.52065   0.00000  Uiso   1.00
C964   C     0.80720   0.55465   0.47966   0.00000  Uiso   1.00
C965   C     0.70273   0.94158   0.52014   0.00000  Uiso   1.00
C966   C     0.51267   0.82641   0.47964   0.00000  Uiso   1.00
C967   C     0.99169   0.67354   0.52025   0.00000  Uiso   1.00
C968   C     0.70259   0.94204   0.47913   0.00000  Uiso   1.00
C969   C     0.80645   0.55509   0.52072   0.00000  Uiso   1.00
C970   C     0.73693   0.92415   0.97961   0.00000  Uiso   1.00
C971   C     0.76310   0.57584   0.02039   0.00000  Uiso   1.00
C972   C     0.54969   0.80873   0.97822   0.00000  Uiso   1.00
H973   H     0.96034   0.84485   0.41595   0.00000  Uiso   1.00
H974   H     0.62616   0.51226   0.38234   0.00000  Uiso   1.00
H975   H     0.66546   0.50253   0.34611   0.00000  Uiso   1.00
H976   H     0.67508   0.54028   0.38482   0.00000  Uiso   1.00
H977   H     0.81890   0.54060   0.63018   0.00000  Uiso   1.00
H978   H     0.88425   0.51138   0.61193   0.00000  Uiso   1.00
H979   H     0.86252   0.99501   0.56606   0.00000  Uiso   1.00
H980   H     0.84596   0.96933   0.61073   0.00000  Uiso   1.00
H981   H     0.51073   0.67274   0.36991   0.00000  Uiso   1.00
H982   H     0.57448   0.63894   0.38695   0.00000  Uiso   1.00
H983   H     0.57518   0.66614   0.43281   0.00000  Uiso   1.00
H984   H     0.99977   0.87764   0.36860   0.00000  Uiso   1.00
H985   H     0.58430   0.69493   0.38796   0.00000  Uiso   1.00
H986   H     0.95947   0.84402   0.58368   0.00000  Uiso   1.00
H987   H     0.99812   0.87713   0.63113   0.00000  Uiso   1.00
H988   H     0.53053   0.83121   0.63693   0.00000  Uiso   1.00
H989   H     0.97973   0.83471   0.66096   0.00000  Uiso   1.00
H990   H     0.85215   0.51750   0.41830   0.00000  Uiso   1.00
H991   H     0.86486   0.56412   0.36974   0.00000  Uiso   1.00
H992   H     0.80952   0.57465   0.36666   0.00000  Uiso   1.00
H993   H     0.83279   0.53093   0.33993   0.00000  Uiso   1.00
H994   H     0.65498   0.96145   0.58013   0.00000  Uiso   1.00
H995   H     0.98098   0.83539   0.33885   0.00000  Uiso   1.00
H996   H     0.62483   0.50655   0.61937   0.00000  Uiso   1.00
H997   H     0.67216   0.53706   0.61544   0.00000  Uiso   1.00
H998   H     0.66587   0.99843   0.65419   0.00000  Uiso   1.00
H999   H     0.70996   0.59441   0.91545   0.00000  Uiso   1.00
H1000  H     0.74968   0.62719   0.86827   0.00000  Uiso   1.00
H1001  H     0.73130   0.58482   0.83851   0.00000  Uiso   1.00
H1002  H     0.78178   0.58098   0.86311   0.00000  Uiso   1.00
H1003  H     0.79015   0.90563   0.08460   0.00000  Uiso   1.00
H1004  H     0.75040   0.87281   0.13175   0.00000  Uiso   1.00
H1005  H     0.71826   0.91900   0.13688   0.00000  Uiso   1.00
H1006  H     0.53166   0.83134   0.36304   0.00000  Uiso   1.00
H1007  H     0.76872   0.91521   0.16151   0.00000  Uiso   1.00
H1008  H     0.93321   0.70544   0.87155   0.00000  Uiso   1.00
H1009  H     0.86677   0.72999   0.89202   0.00000  Uiso   1.00
H1010  H     0.90217   0.77451   0.89259   0.00000  Uiso   1.00
H1011  H     0.88892   0.74728   0.93741   0.00000  Uiso   1.00
H1012  H     0.59984   0.77398   0.07967   0.00000  Uiso   1.00
H1013  H     0.61090   0.82200   0.12711   0.00000  Uiso   1.00
H1014  H     0.58206   0.78719   0.15823   0.00000  Uiso   1.00
H1015  H     0.55511   0.82892   0.13160   0.00000  Uiso   1.00
H1016  H     0.78864   0.90503   0.91598   0.00000  Uiso   1.00
H1017  H     0.54274   0.65658   0.58540   0.00000  Uiso   1.00
H1018  H     0.74879   0.87281   0.86886   0.00000  Uiso   1.00
H1019  H     0.76763   0.91494   0.83889   0.00000  Uiso   1.00
H1020  H     0.71724   0.91939   0.86351   0.00000  Uiso   1.00
H1021  H     0.71132   0.59494   0.08401   0.00000  Uiso   1.00
H1022  H     0.75115   0.62718   0.13114   0.00000  Uiso   1.00
H1023  H     0.78272   0.58062   0.13650   0.00000  Uiso   1.00
H1024  H     0.73231   0.58504   0.16111   0.00000  Uiso   1.00
H1025  H     0.59595   0.78909   0.91740   0.00000  Uiso   1.00
H1026  H     0.62542   0.74347   0.87828   0.00000  Uiso   1.00
H1027  H     0.58388   0.75147   0.84393   0.00000  Uiso   1.00
H1028  H     0.50207   0.62281   0.63146   0.00000  Uiso   1.00
H1029  H     0.57815   0.71299   0.88286   0.00000  Uiso   1.00
H1030  H     0.90443   0.71344   0.08244   0.00000  Uiso   1.00
H1031  H     0.87576   0.76098   0.12008   0.00000  Uiso   1.00
H1032  H     0.92421   0.78969   0.11662   0.00000  Uiso   1.00
H1033  H     0.91604   0.75160   0.15547   0.00000  Uiso   1.00
H1034  H     0.96928   0.66859   0.63636   0.00000  Uiso   1.00
H1035  H     0.51932   0.66521   0.66174   0.00000  Uiso   1.00
H1036  H     0.65504   0.96392   0.41918   0.00000  Uiso   1.00
I1037  I     0.97252   0.61756   0.44877   0.00000  Uiso   1.00
I1038  I     0.79119   0.62845   0.05016   0.00000  Uiso   1.00
I1039  I     0.56717   0.86474   0.94651   0.00000  Uiso   1.00
I1040  I     0.93203   0.63694   0.05404   0.00000  Uiso   1.00
I1041  I     0.78823   0.62986   0.94947   0.00000  Uiso   1.00
I1042  I     0.71202   0.87004   0.05053   0.00000  Uiso   1.00
I1043  I     0.92168   0.63850   0.95218   0.00000  Uiso   1.00
I1044  I     0.57930   0.86160   0.04796   0.00000  Uiso   1.00
I1045  I     0.53902   0.87943   0.55072   0.00000  Uiso   1.00
I1046  I     0.83801   0.60549   0.44972   0.00000  Uiso   1.00
I1047  I     0.68303   0.88563   0.55061   0.00000  Uiso   1.00
I1048  I     0.53901   0.88002   0.44988   0.00000  Uiso   1.00
I1049  I     0.96681   0.61888   0.54941   0.00000  Uiso   1.00
I1050  I     0.68196   0.88710   0.44785   0.00000  Uiso   1.00
I1051  I     0.83577   0.60677   0.55107   0.00000  Uiso   1.00
I1052  I     0.70874   0.87159   0.94985   0.00000  Uiso   1.00
N1053  N     0.97763   0.82439   0.39907   0.00000  Uiso   1.00
N1054  N     0.77261   0.92605   0.10128   0.00000  Uiso   1.00
N1055  N     0.93046   0.71516   0.89996   0.00000  Uiso   1.00
N1056  N     0.57461   0.77605   0.09844   0.00000  Uiso   1.00
N1057  N     0.77169   0.92580   0.89906   0.00000  Uiso   1.00
N1058  N     0.72829   0.57418   0.10093   0.00000  Uiso   1.00
N1059  N     0.57297   0.77742   0.89931   0.00000  Uiso   1.00
N1060  N     0.92751   0.72501   0.10047   0.00000  Uiso   1.00
N1061  N     0.52419   0.67652   0.60165   0.00000  Uiso   1.00
N1062  N     0.67787   0.97546   0.40081   0.00000  Uiso   1.00
N1063  N     0.82201   0.53034   0.60196   0.00000  Uiso   1.00
N1064  N     0.52159   0.67644   0.39794   0.00000  Uiso   1.00
N1065  N     0.97669   0.82364   0.60076   0.00000  Uiso   1.00
N1066  N     0.82659   0.52103   0.40010   0.00000  Uiso   1.00
N1067  N     0.67757   0.97271   0.59885   0.00000  Uiso   1.00
N1068  N     0.72745   0.57397   0.89874   0.00000  Uiso   1.00
O1069  O     0.75000   0.50000   0.25000   0.00000  Uiso   1.00
O1070  O     0.75000   0.96538   0.66251   0.00000  Uiso   1.00
O1071  O     0.96538   0.75000   0.33749   0.00000  Uiso   1.00
O1072  O     0.53461   0.75000   0.66251   0.00000  Uiso   1.00
O1073  O     0.50000   0.71538   0.83749   0.00000  Uiso   1.00
O1074  O     0.50000   0.78461   0.16251   0.00000  Uiso   1.00
O1075  O     0.78461   0.50000   0.83749   0.00000  Uiso   1.00
O1076  O     0.71538   0.50000   0.16251   0.00000  Uiso   1.00
O1077  O     0.50000   0.78461   0.83749   0.00000  Uiso   1.00
O1078  O     0.50000   0.71538   0.16251   0.00000  Uiso   1.00
O1079  O     0.71538   0.50000   0.83749   0.00000  Uiso   1.00
O1080  O     0.75000   0.50000   0.75000   0.00000  Uiso   1.00
O1081  O     0.78461   0.50000   0.16251   0.00000  Uiso   1.00
O1082  O     0.70126   0.58332   0.27298   0.00000  Uiso   1.00
O1083  O     0.79873   0.91668   0.72702   0.00000  Uiso   1.00
O1084  O     0.91668   0.70126   0.27298   0.00000  Uiso   1.00
O1085  O     0.58332   0.79873   0.72702   0.00000  Uiso   1.00
O1086  O     0.79873   0.91668   0.27298   0.00000  Uiso   1.00
O1087  O     0.70126   0.58332   0.72702   0.00000  Uiso   1.00
O1088  O     0.58332   0.79873   0.27298   0.00000  Uiso   1.00
O1089  O     0.91668   0.70126   0.72702   0.00000  Uiso   1.00
O1090  O     0.70126   0.91668   0.72702   0.00000  Uiso   1.00
O1091  O     0.50000   0.75000   0.25000   0.00000  Uiso   1.00
O1092  O     0.79873   0.58332   0.27298   0.00000  Uiso   1.00
O1093  O     0.91668   0.79873   0.72702   0.00000  Uiso   1.00
O1094  O     0.58332   0.70126   0.27298   0.00000  Uiso   1.00
O1095  O     0.79873   0.58332   0.72702   0.00000  Uiso   1.00
O1096  O     0.70126   0.91668   0.27298   0.00000  Uiso   1.00
O1097  O     0.58332   0.70126   0.72702   0.00000  Uiso   1.00
O1098  O     0.91668   0.79873   0.27298   0.00000  Uiso   1.00
O1099  O     0.95126   0.83332   0.77298   0.00000  Uiso   1.00
O1100  O     0.54873   0.66668   0.22702   0.00000  Uiso   1.00
O1101  O     0.66668   0.95126   0.77298   0.00000  Uiso   1.00
O1102  O     0.50000   0.75000   0.75000   0.00000  Uiso   1.00
O1103  O     0.83332   0.54873   0.22702   0.00000  Uiso   1.00
O1104  O     0.54873   0.66668   0.77298   0.00000  Uiso   1.00
O1105  O     0.95126   0.83332   0.22702   0.00000  Uiso   1.00
O1106  O     0.83332   0.54873   0.77298   0.00000  Uiso   1.00
O1107  O     0.66668   0.95126   0.22702   0.00000  Uiso   1.00
O1108  O     0.95126   0.66668   0.22702   0.00000  Uiso   1.00
O1109  O     0.54873   0.83332   0.77298   0.00000  Uiso   1.00
O1110  O     0.66668   0.54873   0.22702   0.00000  Uiso   1.00
O1111  O     0.83332   0.95126   0.77298   0.00000  Uiso   1.00
O1112  O     0.54873   0.83332   0.22702   0.00000  Uiso   1.00
O1113  O     0.75000   0.96538   0.33749   0.00000  Uiso   1.00
O1114  O     0.95126   0.66668   0.77298   0.00000  Uiso   1.00
O1115  O     0.83332   0.95126   0.22702   0.00000  Uiso   1.00
O1116  O     0.66668   0.54873   0.77298   0.00000  Uiso   1.00
O1117  O     0.75000   0.53461   0.66251   0.00000  Uiso   1.00
O1118  O     0.53461   0.75000   0.33749   0.00000  Uiso   1.00
O1119  O     0.96538   0.75000   0.66251   0.00000  Uiso   1.00
O1120  O     0.75000   0.53461   0.33749   0.00000  Uiso   1.00
Zn1121 Zn    0.70052   0.50000   0.21730   0.00000  Uiso   1.00
Zn1122 Zn    0.54947   0.75000   0.28270   0.00000  Uiso   1.00
Zn1123 Zn    0.75000   0.95052   0.71730   0.00000  Uiso   1.00
Zn1124 Zn    0.75000   0.54947   0.28270   0.00000  Uiso   1.00
Zn1125 Zn    0.54947   0.75000   0.71730   0.00000  Uiso   1.00
Zn1126 Zn    0.95052   0.75000   0.28270   0.00000  Uiso   1.00
Zn1127 Zn    0.75000   0.54947   0.71730   0.00000  Uiso   1.00
Zn1128 Zn    0.75000   0.95052   0.28270   0.00000  Uiso   1.00
Zn1129 Zn    0.79947   0.50000   0.78270   0.00000  Uiso   1.00
Zn1130 Zn    0.50000   0.70052   0.21730   0.00000  Uiso   1.00
Zn1131 Zn    0.50000   0.79947   0.78270   0.00000  Uiso   1.00
Zn1132 Zn    0.79947   0.50000   0.21730   0.00000  Uiso   1.00
Zn1133 Zn    0.70052   0.50000   0.78270   0.00000  Uiso   1.00
Zn1134 Zn    0.50000   0.79947   0.21730   0.00000  Uiso   1.00
Zn1135 Zn    0.50000   0.70052   0.78270   0.00000  Uiso   1.00
Zn1136 Zn    0.95052   0.75000   0.71730   0.00000  Uiso   1.00
loop_
_geom_bond_atom_site_label_1
_geom_bond_atom_site_label_2
_geom_bond_distance
_geom_bond_site_symmetry_2
_ccdc_geom_bond_type
C1     O268    1.267   .     A
C1     C76     1.459   .     S
C1     O829    1.273   1_545 S
C2     O259    1.276   .     A
C2     O231    1.275   .     A
C2     C52     1.423   .     S
C3     I188    2.157   .     S
C3     C95     1.415   .     A
C3     C6      1.411   1_554 S
C4     C96     1.419   .     A
C4     I189    2.155   .     S
C4     C119    1.411   1_556 S
C5     C97     1.419   .     A
C5     I190    2.155   .     S
C5     C118    1.411   1_554 S
C6     C98     1.421   .     A
C6     I191    2.154   .     S
C6     C3      1.411   1_556 S
C7     C100    1.420   .     A
C7     I192    2.146   .     S
C7     C120    1.411   1_554 S
C8     N201    1.453   .     S
C8     H143    1.110   .     S
C8     H132    1.110   .     S
C8     H438    1.111   .     S
C9     H176    1.110   .     S
C9     N209    1.453   .     S
C9     H183    1.110   .     S
C9     H466    1.111   1_455 S
C10    H124    1.112   .     S
C10    H123    1.110   .     S
C10    H122    1.112   .     S
C10    N778    1.454   1_545 S
C11    H128    1.111   .     S
C11    H127    1.111   .     S
C11    H694    1.110   .     S
C11    N779    1.446   .     S
C12    H131    1.111   .     S
C12    H130    1.110   .     S
C12    N212    1.446   .     S
C12    H133    1.111   .     S
C13    C51     1.422   .     S
C13    O256    1.275   .     A
C13    O232    1.276   .     A
C14    H135    1.110   .     S
C14    N213    1.453   .     S
C14    H137    1.110   .     S
C14    H420    1.111   .     S
C15    N214    1.451   .     S
C15    H139    1.111   .     S
C15    H140    1.111   .     S
C15    H141    1.110   .     S
C16    H144    1.112   .     S
C16    H145    1.112   .     S
C16    H714    1.110   1_545 S
C16    N783    1.454   1_545 S
C17    H150    1.111   .     S
C17    H148    1.110   .     S
C17    N216    1.453   .     S
C17    H149    1.110   .     S
C18    H152    1.110   .     S
C18    N202    1.453   .     S
C18    H153    1.111   .     S
C18    H155    1.110   .     S
C19    N203    1.446   .     S
C19    H157    1.110   .     S
C19    H158    1.111   .     S
C19    H159    1.111   .     S
C20    H161    1.111   .     S
C20    N204    1.450   .     S
C20    H162    1.110   .     S
C20    H163    1.111   .     S
C21    N205    1.453   .     S
C21    H166    1.110   .     S
C21    H168    1.111   .     S
C21    H167    1.110   .     S
C22    N206    1.453   .     S
C22    H170    1.110   .     S
C22    H171    1.111   .     S
C22    H172    1.110   .     S
C23    H175    1.110   .     S
C23    H177    1.112   .     S
C23    H174    1.112   .     S
C23    N207    1.454   .     S
C24    O233    1.276   .     A
C24    C50     1.422   .     S
C24    O257    1.275   .     A
C25    H180    1.112   .     S
C25    N208    1.454   .     S
C25    H181    1.110   .     S
C25    H179    1.112   .     S
C26    O234    1.275   .     A
C26    C49     1.423   .     S
C26    O263    1.274   .     A
C27    C48     1.423   .     S
C27    O235    1.275   .     A
C27    O264    1.274   .     A
C28    C56     1.422   .     S
C28    O260    1.274   .     A
C28    O236    1.274   .     A
C29    O237    1.274   .     A
C29    O262    1.275   .     A
C29    C54     1.422   .     S
C30    C45     1.422   .     S
C30    O238    1.275   .     A
C30    O249    1.276   .     A
C31    O240    1.275   .     A
C31    C43     1.422   .     S
C31    O251    1.276   .     A
C32    O241    1.275   .     A
C32    O247    1.275   .     A
C32    C42     1.423   .     S
C33    C78     1.459   .     S
C33    O265    1.269   .     A
C33    O786    1.271   1_545 S
C34    O242    1.275   .     A
C34    C41     1.423   .     S
C34    O248    1.275   .     A
C35    O243    1.275   .     A
C35    O254    1.274   .     A
C35    C40     1.422   .     S
C36    O244    1.275   .     A
C36    C39     1.422   .     S
C36    O255    1.274   .     A
C37    O245    1.274   .     A
C37    C47     1.423   .     S
C37    O252    1.275   .     A
C38    O246    1.274   .     A
C38    C46     1.423   .     S
C38    O253    1.275   .     A
C39    C56     1.198   .     T
C40    C54     1.198   .     T
C41    C53     1.199   .     T
C42    C52     1.199   .     T
C43    C51     1.198   .     T
C44    O266    1.267   .     A
C44    C74     1.455   .     S
C44    O503    1.270   1_455 S
C45    C50     1.198   .     T
C46    C49     1.199   .     T
C47    C48     1.199   .     T
C53    C110    1.423   .     S
C55    O220    1.268   .     A
C55    C75     1.454   .     S
C55    O551    1.269   1_455 S
C57    N201    1.433   .     S
C57    C358    1.408   .     S
C57    C371    1.417   .     S
C58    N209    1.434   .     S
C58    C75     1.409   .     A
C58    C89     1.417   .     A
C59    N210    1.439   .     S
C59    C90     1.411   .     A
C59    C644    1.411   .     S
C60    C78     1.410   .     A
C60    C91     1.412   .     A
C60    N211    1.428   .     S
C61    C83     1.412   .     A
C61    N212    1.427   .     S
C61    C74     1.404   .     A
C62    N213    1.434   .     S
C62    C359    1.408   .     S
C62    C368    1.415   .     S
C63    C85     1.416   .     A
C63    N214    1.434   .     S
C63    C76     1.416   .     A
C64    N215    1.439   .     S
C64    C86     1.414   .     A
C64    C646    1.412   .     S
C65    C79     1.409   .     A
C65    N216    1.434   .     S
C65    C96     1.416   .     A
C66    O509    1.273   .     A
C66    C365    1.460   .     S
C66    O505    1.267   .     S
C67    C97     1.416   .     A
C67    C80     1.409   .     A
C67    N202    1.434   .     S
C68    N203    1.428   .     S
C68    C98     1.412   .     A
C68    C365    1.412   .     S
C69    C82     1.417   .     A
C69    C100    1.416   .     A
C69    N204    1.434   .     S
C70    N205    1.434   .     S
C70    C92     1.415   .     A
C70    C647    1.408   .     S
C71    N206    1.434   .     S
C71    C93     1.415   .     A
C71    C648    1.408   1_545 S
C72    C81     1.410   .     A
C72    C94     1.413   .     A
C72    N207    1.440   .     S
C73    N208    1.439   .     S
C73    C95     1.411   .     A
C73    C366    1.411   .     S
C74    C341    1.408   1_455 S
C75    C346    1.408   1_455 S
C76    C627    1.411   1_545 S
C77    O226    1.275   .     A
C77    C82     1.459   .     S
C77    O222    1.266   .     S
C78    C632    1.412   1_545 S
C79    C638    1.408   1_545 S
C79    C88     1.454   .     S
C80    C639    1.408   .     S
C80    C667    1.454   .     S
C81    C352    1.412   1_455 S
C81    C350    1.460   1_455 S
C82    C357    1.411   1_455 S
C83    C101    1.418   .     A
C83    C393    1.420   1_455 S
C84    C102    1.420   .     A
C84    C111    1.419   .     A
C84    C346    1.415   1_455 S
C85    C103    1.416   .     A
C85    C112    1.420   .     A
C86    C104    1.417   .     A
C86    C113    1.417   .     A
C87    C114    1.418   .     A
C87    C101    1.421   .     A
C87    C341    1.417   1_455 S
C88    O223    1.269   .     S
C88    O227    1.268   .     S
C89    C102    1.420   .     A
C89    C399    1.420   1_455 S
C90    C116    1.417   .     A
C90    C671    1.414   .     S
C91    C117    1.419   .     A
C91    C672    1.414   1_545 S
C92    C118    1.418   .     A
C92    C673    1.419   .     S
C93    C119    1.418   .     A
C93    C674    1.419   1_545 S
C94    C120    1.414   .     A
C94    C107    1.415   .     A
C95    C392    1.413   .     S
C96    C105    1.420   .     A
C97    C106    1.420   .     A
C98    C391    1.416   .     S
C99    C648    1.454   1_545 S
C99    O224    1.269   .     S
C99    O229    1.268   .     S
C100   C108    1.417   .     A
C101   C102    1.411   .     A
C103   C658    1.414   1_545 S
C103   C672    1.405   1_545 S
C104   C671    1.405   .     S
C104   C659    1.414   .     S
C105   C660    1.419   1_545 S
C105   C674    1.411   1_546 S
C106   C661    1.419   .     S
C106   C673    1.411   1_554 S
C107   C382    1.416   1_455 S
C107   C108    1.405   1_556 S
C108   C379    1.413   1_455 S
C108   C107    1.405   1_554 S
C109   I185    2.163   .     S
C109   C115    1.411   .     A
C109   C367    1.420   .     S
C110   O258    1.276   .     A
C110   O230    1.275   .     A
C111   I193    2.155   .     S
C111   C114    1.411   .     A
C112   C117    1.412   .     A
C112   I194    2.150   .     S
C113   C116    1.411   .     A
C113   I195    2.155   .     S
C114   I196    2.155   .     S
C115   I197    2.154   .     S
C115   C373    1.420   .     S
C116   I198    2.154   .     S
C117   I199    2.159   .     S
C118   I200    2.155   .     S
C118   C5      1.411   1_556 S
C119   I186    2.155   .     S
C119   C4      1.411   1_554 S
C120   I187    2.158   .     S
C120   C7      1.411   1_556 S
H121   N201    1.031   .     S
H125   N211    1.029   .     S
H126   C579    1.110   1_545 S
H129   N212    1.031   .     S
H134   N213    1.031   .     S
H136   C298    1.111   1_455 S
H138   N214    1.032   .     S
H142   N215    1.029   .     S
H146   C584    1.110   .     S
H147   N216    1.031   .     S
H151   N202    1.031   .     S
H154   C292    1.111   1_455 S
H156   N203    1.029   .     S
H160   N204    1.032   .     S
H164   N205    1.031   .     S
H165   N209    1.031   .     S
H169   N206    1.031   .     S
H173   N207    1.029   .     S
H178   N208    1.029   .     S
H182   C293    1.111   .     S
H184   N210    1.029   .     S
N210   C578    1.454   .     S
N211   C579    1.446   1_545 S
N215   C584    1.454   .     S
O217   Zn272   1.935   .     S
O217   Zn269   1.934   .     S
O217   Zn844   1.932   1_545 S
O217   Zn280   1.934   .     S
O218   Zn271   1.942   .     S
O218   C601    1.271   .     S
O219   Zn274   1.943   .     S
O219   C328    1.270   .     S
O220   Zn273   1.943   .     S
O221   C350    1.267   1_455 S
O221   Zn283   1.944   .     S
O222   Zn282   1.944   .     S
O223   Zn277   1.943   .     S
O224   Zn269   1.943   .     S
O225   Zn279   1.942   .     S
O225   C350    1.273   1_455 A
O226   Zn278   1.942   .     S
O227   Zn281   1.943   .     S
O228   Zn281   1.934   .     S
O228   Zn839   1.935   1_545 S
O228   Zn277   1.934   .     S
O228   Zn275   1.932   .     S
O229   Zn280   1.943   .     S
O230   Zn272   1.916   .     S
O231   Zn271   1.916   .     S
O232   Zn274   1.915   .     S
O233   Zn273   1.915   .     S
O234   Zn276   1.917   .     S
O235   Zn275   1.917   .     S
O236   Zn270   1.914   .     S
O237   Zn284   1.914   .     S
O238   Zn271   1.914   .     S
O239   Zn270   1.934   .     S
O239   Zn558   1.934   1_455 S
O239   Zn278   1.935   .     S
O239   Zn282   1.932   .     S
O240   Zn272   1.914   .     S
O241   Zn284   1.917   .     S
O242   Zn270   1.917   .     S
O243   Zn275   1.915   .     S
O244   Zn276   1.915   .     S
O245   Zn273   1.916   .     S
O246   Zn274   1.916   .     S
O247   Zn563   1.916   .     S
O248   Zn278   1.916   .     S
O249   Zn849   1.915   .     S
O250   Zn273   1.934   .     S
O250   Zn279   1.935   .     S
O250   Zn283   1.932   .     S
O250   Zn568   1.934   1_455 S
O251   Zn280   1.915   .     S
O252   Zn283   1.917   .     S
O253   Zn566   1.917   .     S
O254   Zn277   1.914   .     S
O255   Zn837   1.914   .     S
O256   Zn562   1.914   .     S
O257   Zn279   1.914   .     S
O258   Zn269   1.917   .     S
O259   Zn845   1.917   .     S
O260   Zn282   1.915   .     S
O261   Zn276   1.944   .     S
O261   C569    1.273   .     S
O262   Zn567   1.915   .     S
O263   Zn848   1.916   .     S
O264   Zn281   1.916   .     S
O265   Zn275   1.944   .     S
O266   Zn270   1.943   .     S
O267   Zn284   1.943   .     S
O267   C339    1.269   .     S
O268   Zn272   1.942   .     S
Zn269  O823    1.914   1_545 S
Zn271  O796    1.935   .     S
Zn274  O523    1.934   .     S
Zn276  O785    1.932   .     S
Zn277  O827    1.917   1_545 S
Zn278  O540    1.914   1_455 S
Zn279  O531    1.916   1_455 S
Zn280  O831    1.916   1_545 S
Zn281  O817    1.915   1_545 S
Zn282  O537    1.917   1_455 S
Zn283  O546    1.915   1_455 S
Zn284  O534    1.934   .     S
C285   O552    1.267   .     A
C285   C360    1.459   .     S
C285   O1113   1.273   1_545 S
C286   O543    1.276   .     A
C286   O515    1.275   .     A
C286   C336    1.423   .     S
C287   I472    2.157   .     S
C287   C379    1.415   .     A
C287   C290    1.411   1_554 S
C288   C380    1.419   .     A
C288   I473    2.155   .     S
C288   C403    1.411   1_556 S
C289   C381    1.419   .     A
C289   I474    2.155   .     S
C289   C402    1.411   1_554 S
C290   C382    1.421   .     A
C290   I475    2.154   .     S
C290   C287    1.411   1_556 S
C291   C384    1.420   .     A
C291   I476    2.146   .     S
C291   C404    1.411   1_554 S
C292   N485    1.453   .     S
C292   H427    1.110   .     S
C292   H416    1.110   .     S
C292   H154    1.111   1_655 S
C293   H460    1.110   .     S
C293   N493    1.453   .     S
C293   H467    1.110   .     S
C294   H408    1.112   .     S
C294   H407    1.110   .     S
C294   H406    1.112   .     S
C294   N1062   1.454   1_545 S
C295   H412    1.111   .     S
C295   H411    1.111   .     S
C295   H978    1.110   .     S
C295   N1063   1.446   .     S
C296   H415    1.111   .     S
C296   H414    1.110   .     S
C296   N496    1.446   .     S
C296   H417    1.111   .     S
C297   C335    1.422   .     S
C297   O540    1.275   .     A
C297   O516    1.276   .     A
C298   H419    1.110   .     S
C298   N497    1.453   .     S
C298   H421    1.110   .     S
C298   H136    1.111   1_655 S
C299   N498    1.451   .     S
C299   H423    1.111   .     S
C299   H424    1.111   .     S
C299   H425    1.110   .     S
C300   H428    1.112   .     S
C300   H429    1.112   .     S
C300   H998    1.110   1_545 S
C300   N1067   1.454   1_545 S
C301   H434    1.111   .     S
C301   H432    1.110   .     S
C301   N500    1.453   .     S
C301   H433    1.110   .     S
C302   H436    1.110   .     S
C302   N486    1.453   .     S
C302   H437    1.111   .     S
C302   H439    1.110   .     S
C303   N487    1.446   .     S
C303   H441    1.110   .     S
C303   H442    1.111   .     S
C303   H443    1.111   .     S
C304   H445    1.111   .     S
C304   N488    1.450   .     S
C304   H446    1.110   .     S
C304   H447    1.111   .     S
C305   N489    1.453   .     S
C305   H450    1.110   .     S
C305   H452    1.111   .     S
C305   H451    1.110   .     S
C306   N490    1.453   .     S
C306   H454    1.110   .     S
C306   H455    1.111   .     S
C306   H456    1.110   .     S
C307   H459    1.110   .     S
C307   H461    1.112   .     S
C307   H458    1.112   .     S
C307   N491    1.454   .     S
C308   O517    1.276   .     A
C308   C334    1.422   .     S
C308   O541    1.275   .     A
C309   H464    1.112   .     S
C309   N492    1.454   .     S
C309   H465    1.110   .     S
C309   H463    1.112   .     S
C310   O518    1.275   .     A
C310   C333    1.423   .     S
C310   O547    1.274   .     A
C311   C332    1.423   .     S
C311   O519    1.275   .     A
C311   O548    1.274   .     A
C312   C340    1.422   .     S
C312   O544    1.274   .     A
C312   O520    1.274   .     A
C313   O521    1.274   .     A
C313   O546    1.275   .     A
C313   C338    1.422   .     S
C314   C329    1.422   .     S
C314   O522    1.275   .     A
C314   O533    1.276   .     A
C315   O524    1.275   .     A
C315   C327    1.422   .     S
C315   O535    1.276   .     A
C316   O525    1.275   .     A
C316   O531    1.275   .     A
C316   C326    1.423   .     S
C317   C362    1.459   .     S
C317   O549    1.269   .     A
C317   O1070   1.271   1_545 S
C318   O526    1.275   .     A
C318   C325    1.423   .     S
C318   O532    1.275   .     A
C319   O527    1.275   .     A
C319   O538    1.274   .     A
C319   C324    1.422   .     S
C320   O528    1.275   .     A
C320   C323    1.422   .     S
C320   O539    1.274   .     A
C321   O529    1.274   .     A
C321   C331    1.423   .     S
C321   O536    1.275   .     A
C322   O530    1.274   .     A
C322   C330    1.423   .     S
C322   O537    1.275   .     A
C323   C340    1.198   .     T
C324   C338    1.198   .     T
C325   C337    1.199   .     T
C326   C336    1.199   .     T
C327   C335    1.198   .     T
C328   O550    1.267   .     A
C328   C358    1.455   .     S
C329   C334    1.198   .     T
C330   C333    1.199   .     T
C331   C332    1.199   .     T
C337   C394    1.423   .     S
C339   O504    1.268   .     A
C339   C359    1.454   .     S
C341   N485    1.433   .     S
C341   C74     1.408   1_655 S
C341   C87     1.417   1_655 S
C342   N493    1.434   .     S
C342   C359    1.409   .     A
C342   C373    1.417   .     A
C343   N494    1.439   .     S
C343   C374    1.411   .     A
C343   C928    1.411   .     S
C344   C362    1.410   .     A
C344   C375    1.412   .     A
C344   N495    1.428   .     S
C345   C367    1.412   .     A
C345   N496    1.427   .     S
C345   C358    1.404   .     A
C346   N497    1.434   .     S
C346   C75     1.408   1_655 S
C346   C84     1.415   1_655 S
C347   C369    1.416   .     A
C347   N498    1.434   .     S
C347   C360    1.416   .     A
C348   N499    1.439   .     S
C348   C370    1.414   .     A
C348   C930    1.412   .     S
C349   C363    1.409   .     A
C349   N500    1.434   .     S
C349   C380    1.416   .     A
C350   O225    1.273   1_655 A
C350   C81     1.460   1_655 S
C350   O221    1.267   1_655 S
C351   C381    1.416   .     A
C351   C364    1.409   .     A
C351   N486    1.434   .     S
C352   N487    1.428   .     S
C352   C382    1.412   .     A
C352   C81     1.412   1_655 S
C353   C366    1.417   .     A
C353   C384    1.416   .     A
C353   N488    1.434   .     S
C354   N489    1.434   .     S
C354   C376    1.415   .     A
C354   C931    1.408   .     S
C355   N490    1.434   .     S
C355   C377    1.415   .     A
C355   C932    1.408   1_545 S
C356   C365    1.410   .     A
C356   C378    1.413   .     A
C356   N491    1.440   .     S
C357   N492    1.439   .     S
C357   C379    1.411   .     A
C357   C82     1.411   1_655 S
C360   C911    1.411   1_545 S
C361   O510    1.275   .     A
C361   C366    1.459   .     S
C361   O506    1.266   .     S
C362   C916    1.412   1_545 S
C363   C922    1.408   1_545 S
C363   C372    1.454   .     S
C364   C923    1.408   .     S
C364   C951    1.454   .     S
C367   C385    1.418   .     A
C368   C386    1.420   .     A
C368   C395    1.419   .     A
C369   C387    1.416   .     A
C369   C396    1.420   .     A
C370   C388    1.417   .     A
C370   C397    1.417   .     A
C371   C398    1.418   .     A
C371   C385    1.421   .     A
C372   O507    1.269   .     S
C372   O511    1.268   .     S
C373   C386    1.420   .     A
C374   C400    1.417   .     A
C374   C955    1.414   .     S
C375   C401    1.419   .     A
C375   C956    1.414   1_545 S
C376   C402    1.418   .     A
C376   C957    1.419   .     S
C377   C403    1.418   .     A
C377   C958    1.419   1_545 S
C378   C404    1.414   .     A
C378   C391    1.415   .     A
C379   C108    1.413   1_655 S
C380   C389    1.420   .     A
C381   C390    1.420   .     A
C382   C107    1.416   1_655 S
C383   C932    1.454   1_545 S
C383   O508    1.269   .     S
C383   O513    1.268   .     S
C384   C392    1.417   .     A
C385   C386    1.411   .     A
C387   C942    1.414   1_545 S
C387   C956    1.405   1_545 S
C388   C955    1.405   .     S
C388   C943    1.414   .     S
C389   C944    1.419   1_545 S
C389   C958    1.411   1_546 S
C390   C945    1.419   .     S
C390   C957    1.411   1_554 S
C391   C392    1.405   1_556 S
C392   C391    1.405   1_554 S
C393   I469    2.163   .     S
C393   C399    1.411   .     A
C393   C83     1.420   1_655 S
C394   O542    1.276   .     A
C394   O514    1.275   .     A
C395   I477    2.155   .     S
C395   C398    1.411   .     A
C396   C401    1.412   .     A
C396   I478    2.150   .     S
C397   C400    1.411   .     A
C397   I479    2.155   .     S
C398   I480    2.155   .     S
C399   I481    2.154   .     S
C399   C89     1.420   1_655 S
C400   I482    2.154   .     S
C401   I483    2.159   .     S
C402   I484    2.155   .     S
C402   C289    1.411   1_556 S
C403   I470    2.155   .     S
C403   C288    1.411   1_554 S
C404   I471    2.158   .     S
C404   C291    1.411   1_556 S
H405   N485    1.031   .     S
H409   N495    1.029   .     S
H410   C863    1.110   1_545 S
H413   N496    1.031   .     S
H418   N497    1.031   .     S
H422   N498    1.032   .     S
H426   N499    1.029   .     S
H430   C868    1.110   .     S
H431   N500    1.031   .     S
H435   N486    1.031   .     S
H440   N487    1.029   .     S
H444   N488    1.032   .     S
H448   N489    1.031   .     S
H449   N493    1.031   .     S
H453   N490    1.031   .     S
H457   N491    1.029   .     S
H462   N492    1.029   .     S
H466   C9      1.111   1_655 S
H468   N494    1.029   .     S
N494   C862    1.454   .     S
N495   C863    1.446   1_545 S
N499   C868    1.454   .     S
O501   Zn556   1.935   .     S
O501   Zn553   1.934   .     S
O501   Zn1128  1.932   1_545 S
O501   Zn564   1.934   .     S
O502   Zn555   1.942   .     S
O502   C885    1.271   .     S
O503   Zn558   1.943   .     S
O503   C44     1.270   1_655 S
O504   Zn557   1.943   .     S
O505   Zn567   1.944   .     S
O506   Zn566   1.944   .     S
O507   Zn561   1.943   .     S
O508   Zn553   1.943   .     S
O509   Zn563   1.942   .     S
O510   Zn562   1.942   .     S
O511   Zn565   1.943   .     S
O512   Zn565   1.934   .     S
O512   Zn1123  1.935   1_545 S
O512   Zn561   1.934   .     S
O512   Zn559   1.932   .     S
O513   Zn564   1.943   .     S
O514   Zn556   1.916   .     S
O515   Zn555   1.916   .     S
O516   Zn558   1.915   .     S
O517   Zn557   1.915   .     S
O518   Zn560   1.917   .     S
O519   Zn559   1.917   .     S
O520   Zn554   1.914   .     S
O521   Zn568   1.914   .     S
O522   Zn555   1.914   .     S
O523   Zn554   1.934   .     S
O523   Zn562   1.935   .     S
O523   Zn566   1.932   .     S
O524   Zn556   1.914   .     S
O525   Zn568   1.917   .     S
O526   Zn554   1.917   .     S
O527   Zn559   1.915   .     S
O528   Zn560   1.915   .     S
O529   Zn557   1.916   .     S
O530   Zn558   1.916   .     S
O531   Zn279   1.916   1_655 S
O532   Zn562   1.916   .     S
O533   Zn1133  1.915   .     S
O534   Zn557   1.934   .     S
O534   Zn563   1.935   .     S
O534   Zn567   1.932   .     S
O535   Zn564   1.915   .     S
O536   Zn567   1.917   .     S
O537   Zn282   1.917   1_655 S
O538   Zn561   1.914   .     S
O539   Zn1121  1.914   .     S
O540   Zn278   1.914   1_655 S
O541   Zn563   1.914   .     S
O542   Zn553   1.917   .     S
O543   Zn1129  1.917   .     S
O544   Zn566   1.915   .     S
O545   Zn560   1.944   .     S
O545   C853    1.273   .     S
O546   Zn283   1.915   1_655 S
O547   Zn1132  1.916   .     S
O548   Zn565   1.916   .     S
O549   Zn559   1.944   .     S
O550   Zn554   1.943   .     S
O551   Zn568   1.943   .     S
O551   C55     1.269   1_655 S
O552   Zn556   1.942   .     S
Zn553  O1107   1.914   1_545 S
Zn555  O1080   1.935   .     S
Zn558  O239    1.934   1_655 S
Zn560  O1069   1.932   .     S
Zn561  O1111   1.917   1_545 S
Zn564  O1115   1.916   1_545 S
Zn565  O1101   1.915   1_545 S
Zn568  O250    1.934   1_655 S
C569   O836    1.267   .     A
C569   C644    1.459   .     S
C570   O827    1.276   .     A
C570   O799    1.275   .     A
C570   C620    1.423   .     S
C571   I756    2.157   .     S
C571   C663    1.415   .     A
C571   C574    1.411   1_554 S
C572   C664    1.419   .     A
C572   I757    2.155   .     S
C572   C687    1.411   1_556 S
C573   C665    1.419   .     A
C573   I758    2.155   .     S
C573   C686    1.411   1_554 S
C574   C666    1.421   .     A
C574   I759    2.154   .     S
C574   C571    1.411   1_556 S
C575   C668    1.420   .     A
C575   I760    2.146   .     S
C575   C688    1.411   1_554 S
C576   N769    1.453   .     S
C576   H711    1.110   .     S
C576   H700    1.110   .     S
C576   H1006   1.111   .     S
C577   H744    1.110   .     S
C577   N777    1.453   .     S
C577   H751    1.110   .     S
C577   H1034   1.111   1_455 S
C578   H692    1.112   .     S
C578   H691    1.110   .     S
C578   H690    1.112   .     S
C579   H696    1.111   .     S
C579   H695    1.111   .     S
C579   H126    1.110   1_565 S
C579   N211    1.446   1_565 S
C580   H699    1.111   .     S
C580   H698    1.110   .     S
C580   N780    1.446   .     S
C580   H701    1.111   .     S
C581   C619    1.422   .     S
C581   O824    1.275   .     A
C581   O800    1.276   .     A
C582   H703    1.110   .     S
C582   N781    1.453   .     S
C582   H705    1.110   .     S
C582   H988    1.111   .     S
C583   N782    1.451   .     S
C583   H707    1.111   .     S
C583   H708    1.111   .     S
C583   H709    1.110   .     S
C584   H712    1.112   .     S
C584   H713    1.112   .     S
C585   H718    1.111   .     S
C585   H716    1.110   .     S
C585   N784    1.453   .     S
C585   H717    1.110   .     S
C586   H720    1.110   .     S
C586   N770    1.453   .     S
C586   H721    1.111   .     S
C586   H723    1.110   .     S
C587   N771    1.446   .     S
C587   H725    1.110   .     S
C587   H726    1.111   .     S
C587   H727    1.111   .     S
C588   H729    1.111   .     S
C588   N772    1.450   .     S
C588   H730    1.110   .     S
C588   H731    1.111   .     S
C589   N773    1.453   .     S
C589   H734    1.110   .     S
C589   H736    1.111   .     S
C589   H735    1.110   .     S
C590   N774    1.453   .     S
C590   H738    1.110   .     S
C590   H739    1.111   .     S
C590   H740    1.110   .     S
C591   H743    1.110   .     S
C591   H745    1.112   .     S
C591   H742    1.112   .     S
C591   N775    1.454   .     S
C592   O801    1.276   .     A
C592   C618    1.422   .     S
C592   O825    1.275   .     A
C593   H748    1.112   .     S
C593   N776    1.454   .     S
C593   H749    1.110   .     S
C593   H747    1.112   .     S
C594   O802    1.275   .     A
C594   C617    1.423   .     S
C594   O831    1.274   .     A
C595   C616    1.423   .     S
C595   O803    1.275   .     A
C595   O832    1.274   .     A
C596   C624    1.422   .     S
C596   O828    1.274   .     A
C596   O804    1.274   .     A
C597   O805    1.274   .     A
C597   O830    1.275   .     A
C597   C622    1.422   .     S
C598   C613    1.422   .     S
C598   O806    1.275   .     A
C598   O817    1.276   .     A
C599   O808    1.275   .     A
C599   C611    1.422   .     S
C599   O819    1.276   .     A
C600   O809    1.275   .     A
C600   O815    1.275   .     A
C600   C610    1.423   .     S
C601   C646    1.459   .     S
C601   O833    1.269   .     A
C602   O810    1.275   .     A
C602   C609    1.423   .     S
C602   O816    1.275   .     A
C603   O811    1.275   .     A
C603   O822    1.274   .     A
C603   C608    1.422   .     S
C604   O812    1.275   .     A
C604   C607    1.422   .     S
C604   O823    1.274   .     A
C605   O813    1.274   .     A
C605   C615    1.423   .     S
C605   O820    1.275   .     A
C606   O814    1.274   .     A
C606   C614    1.423   .     S
C606   O821    1.275   .     A
C607   C624    1.198   .     T
C608   C622    1.198   .     T
C609   C621    1.199   .     T
C610   C620    1.199   .     T
C611   C619    1.198   .     T
C612   O834    1.267   .     A
C612   C642    1.455   .     S
C612   O1071   1.270   1_455 S
C613   C618    1.198   .     T
C614   C617    1.199   .     T
C615   C616    1.199   .     T
C621   C678    1.423   .     S
C623   O788    1.268   .     A
C623   C643    1.454   .     S
C623   O1119   1.269   1_455 S
C625   N769    1.433   .     S
C625   C926    1.408   .     S
C625   C939    1.417   .     S
C626   N777    1.434   .     S
C626   C643    1.409   .     A
C626   C657    1.417   .     A
C627   N778    1.439   .     S
C627   C658    1.411   .     A
C627   C76     1.411   1_565 S
C628   C646    1.410   .     A
C628   C659    1.412   .     A
C628   N779    1.428   .     S
C629   C651    1.412   .     A
C629   N780    1.427   .     S
C629   C642    1.404   .     A
C630   N781    1.434   .     S
C630   C927    1.408   .     S
C630   C936    1.415   .     S
C631   C653    1.416   .     A
C631   N782    1.434   .     S
C631   C644    1.416   .     A
C632   N783    1.439   .     S
C632   C654    1.414   .     A
C632   C78     1.412   1_565 S
C633   C647    1.409   .     A
C633   N784    1.434   .     S
C633   C664    1.416   .     A
C634   O1077   1.273   .     A
C634   C933    1.460   .     S
C634   O1073   1.267   .     S
C635   C665    1.416   .     A
C635   C648    1.409   .     A
C635   N770    1.434   .     S
C636   N771    1.428   .     S
C636   C666    1.412   .     A
C636   C933    1.412   .     S
C637   C650    1.417   .     A
C637   C668    1.416   .     A
C637   N772    1.434   .     S
C638   N773    1.434   .     S
C638   C660    1.415   .     A
C638   C79     1.408   1_565 S
C639   N774    1.434   .     S
C639   C661    1.415   .     A
C640   C649    1.410   .     A
C640   C662    1.413   .     A
C640   N775    1.440   .     S
C641   N776    1.439   .     S
C641   C663    1.411   .     A
C641   C934    1.411   .     S
C642   C909    1.408   1_455 S
C643   C914    1.408   1_455 S
C645   O794    1.275   .     A
C645   C650    1.459   .     S
C645   O790    1.266   .     S
C647   C656    1.454   .     S
C648   C71     1.408   1_565 S
C648   C99     1.454   1_565 S
C649   C920    1.412   1_455 S
C649   C918    1.460   1_455 S
C650   C925    1.411   1_455 S
C651   C669    1.418   .     A
C651   C961    1.420   1_455 S
C652   C670    1.420   .     A
C652   C679    1.419   .     A
C652   C914    1.415   1_455 S
C653   C671    1.416   .     A
C653   C680    1.420   .     A
C654   C672    1.417   .     A
C654   C681    1.417   .     A
C655   C682    1.418   .     A
C655   C669    1.421   .     A
C655   C909    1.417   1_455 S
C656   O791    1.269   .     S
C656   O795    1.268   .     S
C657   C670    1.420   .     A
C657   C967    1.420   1_455 S
C658   C684    1.417   .     A
C658   C103    1.414   1_565 S
C659   C685    1.419   .     A
C660   C686    1.418   .     A
C660   C105    1.419   1_565 S
C661   C687    1.418   .     A
C662   C688    1.414   .     A
C662   C675    1.415   .     A
C663   C960    1.413   .     S
C664   C673    1.420   .     A
C665   C674    1.420   .     A
C666   C959    1.416   .     S
C667   O792    1.269   .     S
C667   O797    1.268   .     S
C668   C676    1.417   .     A
C669   C670    1.411   .     A
C672   C103    1.405   1_565 S
C672   C91     1.414   1_565 S
C673   C106    1.411   1_556 S
C674   C93     1.419   1_565 S
C674   C105    1.411   1_564 S
C675   C950    1.416   1_455 S
C675   C676    1.405   1_556 S
C676   C947    1.413   1_455 S
C676   C675    1.405   1_554 S
C677   I753    2.163   .     S
C677   C683    1.411   .     A
C677   C935    1.420   .     S
C678   O826    1.276   .     A
C678   O798    1.275   .     A
C679   I761    2.155   .     S
C679   C682    1.411   .     A
C680   C685    1.412   .     A
C680   I762    2.150   .     S
C681   C684    1.411   .     A
C681   I763    2.155   .     S
C682   I764    2.155   .     S
C683   I765    2.154   .     S
C683   C941    1.420   .     S
C684   I766    2.154   .     S
C685   I767    2.159   .     S
C686   I768    2.155   .     S
C686   C573    1.411   1_556 S
C687   I754    2.155   .     S
C687   C572    1.411   1_554 S
C688   I755    2.158   .     S
C688   C575    1.411   1_556 S
H689   N769    1.031   .     S
H693   N779    1.029   .     S
H697   N780    1.031   .     S
H702   N781    1.031   .     S
H704   C866    1.111   1_455 S
H706   N782    1.032   .     S
H710   N783    1.029   .     S
H714   C16     1.110   1_565 S
H715   N784    1.031   .     S
H719   N770    1.031   .     S
H722   C860    1.111   1_455 S
H724   N771    1.029   .     S
H728   N772    1.032   .     S
H732   N773    1.031   .     S
H733   N777    1.031   .     S
H737   N774    1.031   .     S
H741   N775    1.029   .     S
H746   N776    1.029   .     S
H750   C861    1.111   .     S
H752   N778    1.029   .     S
N778   C10     1.454   1_565 S
N783   C16     1.454   1_565 S
O785   Zn840   1.935   .     S
O785   Zn837   1.934   .     S
O785   Zn848   1.934   .     S
O786   Zn839   1.942   .     S
O786   C33     1.271   1_565 S
O787   Zn842   1.943   .     S
O787   C896    1.270   .     S
O788   Zn841   1.943   .     S
O789   C918    1.267   1_455 S
O789   Zn851   1.944   .     S
O790   Zn850   1.944   .     S
O791   Zn845   1.943   .     S
O792   Zn837   1.943   .     S
O793   Zn847   1.942   .     S
O793   C918    1.273   1_455 A
O794   Zn846   1.942   .     S
O795   Zn849   1.943   .     S
O796   Zn849   1.934   .     S
O796   Zn845   1.934   .     S
O796   Zn843   1.932   .     S
O797   Zn848   1.943   .     S
O798   Zn840   1.916   .     S
O799   Zn839   1.916   .     S
O800   Zn842   1.915   .     S
O801   Zn841   1.915   .     S
O802   Zn844   1.917   .     S
O803   Zn843   1.917   .     S
O804   Zn838   1.914   .     S
O805   Zn852   1.914   .     S
O806   Zn839   1.914   .     S
O807   Zn838   1.934   .     S
O807   Zn1126  1.934   1_455 S
O807   Zn846   1.935   .     S
O807   Zn850   1.932   .     S
O808   Zn840   1.914   .     S
O809   Zn852   1.917   .     S
O810   Zn838   1.917   .     S
O811   Zn843   1.915   .     S
O812   Zn844   1.915   .     S
O813   Zn841   1.916   .     S
O814   Zn842   1.916   .     S
O815   Zn1131  1.916   .     S
O816   Zn846   1.916   .     S
O817   Zn281   1.915   1_565 S
O818   Zn841   1.934   .     S
O818   Zn847   1.935   .     S
O818   Zn851   1.932   .     S
O818   Zn1136  1.934   1_455 S
O819   Zn848   1.915   .     S
O820   Zn851   1.917   .     S
O821   Zn1134  1.917   .     S
O822   Zn845   1.914   .     S
O823   Zn269   1.914   1_565 S
O824   Zn1130  1.914   .     S
O825   Zn847   1.914   .     S
O826   Zn837   1.917   .     S
O827   Zn277   1.917   1_565 S
O828   Zn850   1.915   .     S
O829   Zn844   1.944   .     S
O829   C1      1.273   1_565 S
O830   Zn1135  1.915   .     S
O831   Zn280   1.916   1_565 S
O832   Zn849   1.916   .     S
O833   Zn843   1.944   .     S
O834   Zn838   1.943   .     S
O835   Zn852   1.943   .     S
O835   C907    1.269   .     S
O836   Zn840   1.942   .     S
Zn839  O228    1.935   1_565 S
Zn842  O1091   1.934   .     S
Zn844  O217    1.932   1_565 S
Zn846  O1108   1.914   1_455 S
Zn847  O1099   1.916   1_455 S
Zn850  O1105   1.917   1_455 S
Zn851  O1114   1.915   1_455 S
Zn852  O1102   1.934   .     S
C853   O1120   1.267   .     A
C853   C928    1.459   .     S
C854   O1111   1.276   .     A
C854   O1083   1.275   .     A
C854   C904    1.423   .     S
C855   I1040   2.157   .     S
C855   C947    1.415   .     A
C855   C858    1.411   1_554 S
C856   C948    1.419   .     A
C856   I1041   2.155   .     S
C856   C971    1.411   1_556 S
C857   C949    1.419   .     A
C857   I1042   2.155   .     S
C857   C970    1.411   1_554 S
C858   C950    1.421   .     A
C858   I1043   2.154   .     S
C858   C855    1.411   1_556 S
C859   C952    1.420   .     A
C859   I1044   2.146   .     S
C859   C972    1.411   1_554 S
C860   N1053   1.453   .     S
C860   H995    1.110   .     S
C860   H984    1.110   .     S
C860   H722    1.111   1_655 S
C861   H1028   1.110   .     S
C861   N1061   1.453   .     S
C861   H1035   1.110   .     S
C862   H976    1.112   .     S
C862   H975    1.110   .     S
C862   H974    1.112   .     S
C863   H980    1.111   .     S
C863   H979    1.111   .     S
C863   H410    1.110   1_565 S
C863   N495    1.446   1_565 S
C864   H983    1.111   .     S
C864   H982    1.110   .     S
C864   N1064   1.446   .     S
C864   H985    1.111   .     S
C865   C903    1.422   .     S
C865   O1108   1.275   .     A
C865   O1084   1.276   .     A
C866   H987    1.110   .     S
C866   N1065   1.453   .     S
C866   H989    1.110   .     S
C866   H704    1.111   1_655 S
C867   N1066   1.451   .     S
C867   H991    1.111   .     S
C867   H992    1.111   .     S
C867   H993    1.110   .     S
C868   H996    1.112   .     S
C868   H997    1.112   .     S
C869   H1002   1.111   .     S
C869   H1000   1.110   .     S
C869   N1068   1.453   .     S
C869   H1001   1.110   .     S
C870   H1004   1.110   .     S
C870   N1054   1.453   .     S
C870   H1005   1.111   .     S
C870   H1007   1.110   .     S
C871   N1055   1.446   .     S
C871   H1009   1.110   .     S
C871   H1010   1.111   .     S
C871   H1011   1.111   .     S
C872   H1013   1.111   .     S
C872   N1056   1.450   .     S
C872   H1014   1.110   .     S
C872   H1015   1.111   .     S
C873   N1057   1.453   .     S
C873   H1018   1.110   .     S
C873   H1020   1.111   .     S
C873   H1019   1.110   .     S
C874   N1058   1.453   .     S
C874   H1022   1.110   .     S
C874   H1023   1.111   .     S
C874   H1024   1.110   .     S
C875   H1027   1.110   .     S
C875   H1029   1.112   .     S
C875   H1026   1.112   .     S
C875   N1059   1.454   .     S
C876   O1085   1.276   .     A
C876   C902    1.422   .     S
C876   O1109   1.275   .     A
C877   H1032   1.112   .     S
C877   N1060   1.454   .     S
C877   H1033   1.110   .     S
C877   H1031   1.112   .     S
C878   O1086   1.275   .     A
C878   C901    1.423   .     S
C878   O1115   1.274   .     A
C879   C900    1.423   .     S
C879   O1087   1.275   .     A
C879   O1116   1.274   .     A
C880   C908    1.422   .     S
C880   O1112   1.274   .     A
C880   O1088   1.274   .     A
C881   O1089   1.274   .     A
C881   O1114   1.275   .     A
C881   C906    1.422   .     S
C882   C897    1.422   .     S
C882   O1090   1.275   .     A
C882   O1101   1.276   .     A
C883   O1092   1.275   .     A
C883   C895    1.422   .     S
C883   O1103   1.276   .     A
C884   O1093   1.275   .     A
C884   O1099   1.275   .     A
C884   C894    1.423   .     S
C885   C930    1.459   .     S
C885   O1117   1.269   .     A
C886   O1094   1.275   .     A
C886   C893    1.423   .     S
C886   O1100   1.275   .     A
C887   O1095   1.275   .     A
C887   O1106   1.274   .     A
C887   C892    1.422   .     S
C888   O1096   1.275   .     A
C888   C891    1.422   .     S
C888   O1107   1.274   .     A
C889   O1097   1.274   .     A
C889   C899    1.423   .     S
C889   O1104   1.275   .     A
C890   O1098   1.274   .     A
C890   C898    1.423   .     S
C890   O1105   1.275   .     A
C891   C908    1.198   .     T
C892   C906    1.198   .     T
C893   C905    1.199   .     T
C894   C904    1.199   .     T
C895   C903    1.198   .     T
C896   O1118   1.267   .     A
C896   C926    1.455   .     S
C897   C902    1.198   .     T
C898   C901    1.199   .     T
C899   C900    1.199   .     T
C905   C962    1.423   .     S
C907   O1072   1.268   .     A
C907   C927    1.454   .     S
C909   N1053   1.433   .     S
C909   C642    1.408   1_655 S
C909   C655    1.417   1_655 S
C910   N1061   1.434   .     S
C910   C927    1.409   .     A
C910   C941    1.417   .     A
C911   N1062   1.439   .     S
C911   C942    1.411   .     A
C911   C360    1.411   1_565 S
C912   C930    1.410   .     A
C912   C943    1.412   .     A
C912   N1063   1.428   .     S
C913   C935    1.412   .     A
C913   N1064   1.427   .     S
C913   C926    1.404   .     A
C914   N1065   1.434   .     S
C914   C643    1.408   1_655 S
C914   C652    1.415   1_655 S
C915   C937    1.416   .     A
C915   N1066   1.434   .     S
C915   C928    1.416   .     A
C916   N1067   1.439   .     S
C916   C938    1.414   .     A
C916   C362    1.412   1_565 S
C917   C931    1.409   .     A
C917   N1068   1.434   .     S
C917   C948    1.416   .     A
C918   O793    1.273   1_655 A
C918   C649    1.460   1_655 S
C918   O789    1.267   1_655 S
C919   C949    1.416   .     A
C919   C932    1.409   .     A
C919   N1054   1.434   .     S
C920   N1055   1.428   .     S
C920   C950    1.412   .     A
C920   C649    1.412   1_655 S
C921   C934    1.417   .     A
C921   C952    1.416   .     A
C921   N1056   1.434   .     S
C922   N1057   1.434   .     S
C922   C944    1.415   .     A
C922   C363    1.408   1_565 S
C923   N1058   1.434   .     S
C923   C945    1.415   .     A
C924   C933    1.410   .     A
C924   C946    1.413   .     A
C924   N1059   1.440   .     S
C925   N1060   1.439   .     S
C925   C947    1.411   .     A
C925   C650    1.411   1_655 S
C929   O1078   1.275   .     A
C929   C934    1.459   .     S
C929   O1074   1.266   .     S
C931   C940    1.454   .     S
C932   C355    1.408   1_565 S
C932   C383    1.454   1_565 S
C935   C953    1.418   .     A
C936   C954    1.420   .     A
C936   C963    1.419   .     A
C937   C955    1.416   .     A
C937   C964    1.420   .     A
C938   C956    1.417   .     A
C938   C965    1.417   .     A
C939   C966    1.418   .     A
C939   C953    1.421   .     A
C940   O1075   1.269   .     S
C940   O1079   1.268   .     S
C941   C954    1.420   .     A
C942   C968    1.417   .     A
C942   C387    1.414   1_565 S
C943   C969    1.419   .     A
C944   C970    1.418   .     A
C944   C389    1.419   1_565 S
C945   C971    1.418   .     A
C946   C972    1.414   .     A
C946   C959    1.415   .     A
C947   C676    1.413   1_655 S
C948   C957    1.420   .     A
C949   C958    1.420   .     A
C950   C675    1.416   1_655 S
C951   O1076   1.269   .     S
C951   O1081   1.268   .     S
C952   C960    1.417   .     A
C953   C954    1.411   .     A
C956   C387    1.405   1_565 S
C956   C375    1.414   1_565 S
C957   C390    1.411   1_556 S
C958   C377    1.419   1_565 S
C958   C389    1.411   1_564 S
C959   C960    1.405   1_556 S
C960   C959    1.405   1_554 S
C961   I1037   2.163   .     S
C961   C967    1.411   .     A
C961   C651    1.420   1_655 S
C962   O1110   1.276   .     A
C962   O1082   1.275   .     A
C963   I1045   2.155   .     S
C963   C966    1.411   .     A
C964   C969    1.412   .     A
C964   I1046   2.150   .     S
C965   C968    1.411   .     A
C965   I1047   2.155   .     S
C966   I1048   2.155   .     S
C967   I1049   2.154   .     S
C967   C657    1.420   1_655 S
C968   I1050   2.154   .     S
C969   I1051   2.159   .     S
C970   I1052   2.155   .     S
C970   C857    1.411   1_556 S
C971   I1038   2.155   .     S
C971   C856    1.411   1_554 S
C972   I1039   2.158   .     S
C972   C859    1.411   1_556 S
H973   N1053   1.031   .     S
H977   N1063   1.029   .     S
H981   N1064   1.031   .     S
H986   N1065   1.031   .     S
H990   N1066   1.032   .     S
H994   N1067   1.029   .     S
H998   C300    1.110   1_565 S
H999   N1068   1.031   .     S
H1003  N1054   1.031   .     S
H1008  N1055   1.029   .     S
H1012  N1056   1.032   .     S
H1016  N1057   1.031   .     S
H1017  N1061   1.031   .     S
H1021  N1058   1.031   .     S
H1025  N1059   1.029   .     S
H1030  N1060   1.029   .     S
H1034  C577    1.111   1_655 S
H1036  N1062   1.029   .     S
N1062  C294    1.454   1_565 S
N1067  C300    1.454   1_565 S
O1069  Zn1124  1.935   .     S
O1069  Zn1121  1.934   .     S
O1069  Zn1132  1.934   .     S
O1070  Zn1123  1.942   .     S
O1070  C317    1.271   1_565 S
O1071  Zn1126  1.943   .     S
O1071  C612    1.270   1_655 S
O1072  Zn1125  1.943   .     S
O1073  Zn1135  1.944   .     S
O1074  Zn1134  1.944   .     S
O1075  Zn1129  1.943   .     S
O1076  Zn1121  1.943   .     S
O1077  Zn1131  1.942   .     S
O1078  Zn1130  1.942   .     S
O1079  Zn1133  1.943   .     S
O1080  Zn1133  1.934   .     S
O1080  Zn1129  1.934   .     S
O1080  Zn1127  1.932   .     S
O1081  Zn1132  1.943   .     S
O1082  Zn1124  1.916   .     S
O1083  Zn1123  1.916   .     S
O1084  Zn1126  1.915   .     S
O1085  Zn1125  1.915   .     S
O1086  Zn1128  1.917   .     S
O1087  Zn1127  1.917   .     S
O1088  Zn1122  1.914   .     S
O1089  Zn1136  1.914   .     S
O1090  Zn1123  1.914   .     S
O1091  Zn1122  1.934   .     S
O1091  Zn1130  1.935   .     S
O1091  Zn1134  1.932   .     S
O1092  Zn1124  1.914   .     S
O1093  Zn1136  1.917   .     S
O1094  Zn1122  1.917   .     S
O1095  Zn1127  1.915   .     S
O1096  Zn1128  1.915   .     S
O1097  Zn1125  1.916   .     S
O1098  Zn1126  1.916   .     S
O1099  Zn847   1.916   1_655 S
O1100  Zn1130  1.916   .     S
O1101  Zn565   1.915   1_565 S
O1102  Zn1125  1.934   .     S
O1102  Zn1131  1.935   .     S
O1102  Zn1135  1.932   .     S
O1103  Zn1132  1.915   .     S
O1104  Zn1135  1.917   .     S
O1105  Zn850   1.917   1_655 S
O1106  Zn1129  1.914   .     S
O1107  Zn553   1.914   1_565 S
O1108  Zn846   1.914   1_655 S
O1109  Zn1131  1.914   .     S
O1110  Zn1121  1.917   .     S
O1111  Zn561   1.917   1_565 S
O1112  Zn1134  1.915   .     S
O1113  Zn1128  1.944   .     S
O1113  C285    1.273   1_565 S
O1114  Zn851   1.915   1_655 S
O1115  Zn564   1.916   1_565 S
O1116  Zn1133  1.916   .     S
O1117  Zn1127  1.944   .     S
O1118  Zn1122  1.943   .     S
O1119  Zn1136  1.943   .     S
O1119  C623    1.269   1_655 S
O1120  Zn1124  1.942   .     S
Zn1123 O512    1.935   1_565 S
Zn1126 O807    1.934   1_655 S
Zn1128 O501    1.932   1_565 S
Zn1136 O818    1.934   1_655 S
