data_str_m1_o10_o16_pcu_sym.4
_audit_creation_date              2020-01-03
_audit_creation_method            'Materials Studio'
_symmetry_space_group_name_H-M    'P1'
_symmetry_Int_Tables_number       1
_symmetry_cell_setting            triclinic
loop_
_symmetry_equiv_pos_as_xyz
  x,y,z
_cell_length_a                    32.6531
_cell_length_b                    32.5066
_cell_length_c                    30.9166
_cell_angle_alpha                 96.8008
_cell_angle_beta                  75.1845
_cell_angle_gamma                 98.9965
loop_
_atom_site_label
_atom_site_type_symbol
_atom_site_fract_x
_atom_site_fract_y
_atom_site_fract_z
_atom_site_U_iso_or_equiv
_atom_site_adp_type
_atom_site_occupancy
Br1    Br    0.22942   0.01476   0.19318   0.00000  Uiso   1.00
Br2    Br    0.20862   0.22445   0.06557   0.00000  Uiso   1.00
Br3    Br    0.10962   0.29458   0.01157   0.00000  Uiso   1.00
Br4    Br    0.11568   0.08990   0.39141   0.00000  Uiso   1.00
C5     C     0.05289   0.15934   0.25967   0.00000  Uiso   1.00
C6     C     0.18605   0.16672   0.05319   0.00000  Uiso   1.00
C7     C     0.19047   0.09530   0.06549   0.00000  Uiso   1.00
C8     C     0.28070   0.17418   0.24054   0.00000  Uiso   1.00
C9     C     0.13978   0.19150   0.42014   0.00000  Uiso   1.00
C10    C     0.32620   0.17993   0.24021   0.00000  Uiso   1.00
C11    C     0.00752   0.15489   0.26309   0.00000  Uiso   1.00
C12    C     0.18119   0.32263   0.23637   0.00000  Uiso   1.00
C13    C     0.15196   0.01155   0.26296   0.00000  Uiso   1.00
C14    C     0.15566   0.05582   0.26044   0.00000  Uiso   1.00
C15    C     0.17670   0.27790   0.24010   0.00000  Uiso   1.00
C16    C     0.12716   0.24210   0.48474   0.00000  Uiso   1.00
C17    C     0.18494   0.14793   0.12916   0.00000  Uiso   1.00
C18    C     0.14783   0.18389   0.37100   0.00000  Uiso   1.00
C19    C     0.18293   0.08148   0.02376   0.00000  Uiso   1.00
C20    C     0.19101   0.13757   0.08087   0.00000  Uiso   1.00
C21    C     0.12907   0.23087   0.43961   0.00000  Uiso   1.00
C22    C     0.31789   0.11540   0.32474   0.00000  Uiso   1.00
C23    C     0.00699   0.07761   0.32538   0.00000  Uiso   1.00
C24    C     0.00579   0.06936   0.37326   0.00000  Uiso   1.00
C25    C     0.01538   0.24986   0.23810   0.00000  Uiso   1.00
C26    C     0.04988   0.28236   0.21373   0.00000  Uiso   1.00
C27    C     0.13961   0.21576   0.00993   0.00000  Uiso   1.00
C28    C     0.04460   0.32636   0.23586   0.00000  Uiso   1.00
C29    C     0.15412   0.17753   0.49037   0.00000  Uiso   1.00
C30    C     0.14727   0.16254   0.44729   0.00000  Uiso   1.00
C31    C     0.17089   0.15194   0.01412   0.00000  Uiso   1.00
C32    C     0.17171   0.10904   0.49865   0.00000  Uiso   1.00
C33    C     0.15877   0.09319   0.45971   0.00000  Uiso   1.00
C34    C     0.14589   0.11902   0.43443   0.00000  Uiso   1.00
H35    H     0.19447   0.07266   0.08666   0.00000  Uiso   1.00
H36    H     0.04081   0.08314   0.30607   0.00000  Uiso   1.00
H37    H     0.02138   0.09718   0.39027   0.00000  Uiso   1.00
H38    H     0.02306   0.04236   0.37256   0.00000  Uiso   1.00
H39    H     0.30556   0.06193   0.39265   0.00000  Uiso   1.00
H40    H     0.01848   0.25070   0.27333   0.00000  Uiso   1.00
H41    H     0.31681   0.25817   0.23845   0.00000  Uiso   1.00
H42    H     0.08193   0.27498   0.21406   0.00000  Uiso   1.00
H43    H     0.04794   0.28125   0.17822   0.00000  Uiso   1.00
H44    H     0.01289   0.00118   0.23556   0.00000  Uiso   1.00
H45    H     0.06974   0.01584   0.21701   0.00000  Uiso   1.00
H46    H     0.12450   0.33047   0.28682   0.00000  Uiso   1.00
H47    H     0.04765   0.32859   0.27106   0.00000  Uiso   1.00
H48    H     0.15693   0.05994   0.44978   0.00000  Uiso   1.00
H49    H     0.18282   0.04857   0.01263   0.00000  Uiso   1.00
H50    H     0.12246   0.25318   0.41970   0.00000  Uiso   1.00
H51    H     0.13556   0.22463   0.04533   0.00000  Uiso   1.00
H52    H     0.28468   0.10996   0.34570   0.00000  Uiso   1.00
H53    H     0.00045   0.14393   0.34079   0.00000  Uiso   1.00
H54    H     0.32418   0.04952   0.30930   0.00000  Uiso   1.00
O55    O     0.16667   0.16667   0.25000   0.00000  Uiso   1.00
O56    O     0.15451   0.12637   0.15459   0.00000  Uiso   1.00
O57    O     0.12940   0.20391   0.34968   0.00000  Uiso   1.00
O58    O     0.20824   0.17759   0.14606   0.00000  Uiso   1.00
O59    O     0.17451   0.15880   0.34968   0.00000  Uiso   1.00
O60    O     0.31525   0.11932   0.28042   0.00000  Uiso   1.00
O61    O     0.02090   0.21006   0.21530   0.00000  Uiso   1.00
O62    O     0.17930   0.08019   0.28214   0.00000  Uiso   1.00
O63    O     0.14632   0.26085   0.27014   0.00000  Uiso   1.00
O64    O     0.07412   0.13291   0.23413   0.00000  Uiso   1.00
O65    O     0.26693   0.19272   0.21361   0.00000  Uiso   1.00
O66    O     0.07071   0.18878   0.28213   0.00000  Uiso   1.00
O67    O     0.25491   0.15226   0.27014   0.00000  Uiso   1.00
O68    O     0.13760   0.06944   0.23413   0.00000  Uiso   1.00
O69    O     0.20345   0.25620   0.21361   0.00000  Uiso   1.00
Zn70   Zn    0.19338   0.13994   0.28734   0.00000  Uiso   1.00
Zn71   Zn    0.13379   0.12458   0.21876   0.00000  Uiso   1.00
Zn72   Zn    0.21056   0.19775   0.20657   0.00000  Uiso   1.00
Zn73   Zn    0.12893   0.20439   0.28734   0.00000  Uiso   1.00
Br74   Br    0.56275   0.01476   0.19318   0.00000  Uiso   1.00
Br75   Br    0.54195   0.22445   0.06557   0.00000  Uiso   1.00
Br76   Br    0.44295   0.29458   0.01157   0.00000  Uiso   1.00
Br77   Br    0.44902   0.08990   0.39141   0.00000  Uiso   1.00
C78    C     0.38622   0.15934   0.25967   0.00000  Uiso   1.00
C79    C     0.51939   0.16672   0.05319   0.00000  Uiso   1.00
C80    C     0.52380   0.09530   0.06549   0.00000  Uiso   1.00
C81    C     0.61404   0.17418   0.24054   0.00000  Uiso   1.00
C82    C     0.47312   0.19150   0.42014   0.00000  Uiso   1.00
C83    C     0.65953   0.17993   0.24021   0.00000  Uiso   1.00
C84    C     0.34085   0.15489   0.26309   0.00000  Uiso   1.00
C85    C     0.51453   0.32263   0.23637   0.00000  Uiso   1.00
C86    C     0.48530   0.01155   0.26296   0.00000  Uiso   1.00
C87    C     0.48900   0.05582   0.26044   0.00000  Uiso   1.00
C88    C     0.51003   0.27790   0.24010   0.00000  Uiso   1.00
C89    C     0.46049   0.24210   0.48474   0.00000  Uiso   1.00
C90    C     0.51827   0.14793   0.12916   0.00000  Uiso   1.00
C91    C     0.48116   0.18389   0.37100   0.00000  Uiso   1.00
C92    C     0.51627   0.08148   0.02376   0.00000  Uiso   1.00
C93    C     0.52434   0.13757   0.08087   0.00000  Uiso   1.00
C94    C     0.46241   0.23087   0.43961   0.00000  Uiso   1.00
C95    C     0.65123   0.11540   0.32474   0.00000  Uiso   1.00
C96    C     0.34032   0.07761   0.32538   0.00000  Uiso   1.00
C97    C     0.33912   0.06936   0.37326   0.00000  Uiso   1.00
C98    C     0.34871   0.24986   0.23810   0.00000  Uiso   1.00
C99    C     0.38321   0.28236   0.21373   0.00000  Uiso   1.00
C100   C     0.47294   0.21576   0.00993   0.00000  Uiso   1.00
C101   C     0.37793   0.32636   0.23586   0.00000  Uiso   1.00
C102   C     0.48745   0.17753   0.49037   0.00000  Uiso   1.00
C103   C     0.48060   0.16254   0.44729   0.00000  Uiso   1.00
C104   C     0.50422   0.15194   0.01412   0.00000  Uiso   1.00
C105   C     0.50505   0.10904   0.49865   0.00000  Uiso   1.00
C106   C     0.49210   0.09319   0.45971   0.00000  Uiso   1.00
C107   C     0.47922   0.11902   0.43443   0.00000  Uiso   1.00
H108   H     0.52781   0.07266   0.08666   0.00000  Uiso   1.00
H109   H     0.37414   0.08314   0.30607   0.00000  Uiso   1.00
H110   H     0.35471   0.09718   0.39027   0.00000  Uiso   1.00
H111   H     0.35640   0.04236   0.37256   0.00000  Uiso   1.00
H112   H     0.63889   0.06193   0.39265   0.00000  Uiso   1.00
H113   H     0.35181   0.25070   0.27333   0.00000  Uiso   1.00
H114   H     0.65014   0.25817   0.23845   0.00000  Uiso   1.00
H115   H     0.41526   0.27498   0.21406   0.00000  Uiso   1.00
H116   H     0.38128   0.28125   0.17822   0.00000  Uiso   1.00
H117   H     0.34622   0.00118   0.23556   0.00000  Uiso   1.00
H118   H     0.40307   0.01584   0.21701   0.00000  Uiso   1.00
H119   H     0.45783   0.33047   0.28682   0.00000  Uiso   1.00
H120   H     0.38099   0.32859   0.27106   0.00000  Uiso   1.00
H121   H     0.49026   0.05994   0.44978   0.00000  Uiso   1.00
H122   H     0.51615   0.04857   0.01263   0.00000  Uiso   1.00
H123   H     0.45579   0.25318   0.41970   0.00000  Uiso   1.00
H124   H     0.46889   0.22463   0.04533   0.00000  Uiso   1.00
H125   H     0.61801   0.10996   0.34570   0.00000  Uiso   1.00
H126   H     0.33378   0.14393   0.34079   0.00000  Uiso   1.00
H127   H     0.65751   0.04952   0.30930   0.00000  Uiso   1.00
O128   O     0.50000   0.16667   0.25000   0.00000  Uiso   1.00
O129   O     0.48784   0.12637   0.15459   0.00000  Uiso   1.00
O130   O     0.46274   0.20391   0.34968   0.00000  Uiso   1.00
O131   O     0.54157   0.17759   0.14606   0.00000  Uiso   1.00
O132   O     0.50785   0.15880   0.34968   0.00000  Uiso   1.00
O133   O     0.64859   0.11932   0.28042   0.00000  Uiso   1.00
O134   O     0.35423   0.21006   0.21530   0.00000  Uiso   1.00
O135   O     0.51264   0.08019   0.28214   0.00000  Uiso   1.00
O136   O     0.47965   0.26085   0.27014   0.00000  Uiso   1.00
O137   O     0.40745   0.13291   0.23413   0.00000  Uiso   1.00
O138   O     0.60026   0.19272   0.21361   0.00000  Uiso   1.00
O139   O     0.40405   0.18878   0.28213   0.00000  Uiso   1.00
O140   O     0.58824   0.15226   0.27014   0.00000  Uiso   1.00
O141   O     0.47093   0.06944   0.23413   0.00000  Uiso   1.00
O142   O     0.53678   0.25620   0.21361   0.00000  Uiso   1.00
Zn143  Zn    0.52672   0.13994   0.28734   0.00000  Uiso   1.00
Zn144  Zn    0.46713   0.12458   0.21876   0.00000  Uiso   1.00
Zn145  Zn    0.54389   0.19775   0.20657   0.00000  Uiso   1.00
Zn146  Zn    0.46226   0.20439   0.28734   0.00000  Uiso   1.00
Br147  Br    0.89609   0.01476   0.19318   0.00000  Uiso   1.00
Br148  Br    0.87528   0.22445   0.06557   0.00000  Uiso   1.00
Br149  Br    0.77629   0.29458   0.01157   0.00000  Uiso   1.00
Br150  Br    0.78235   0.08990   0.39141   0.00000  Uiso   1.00
C151   C     0.71956   0.15934   0.25967   0.00000  Uiso   1.00
C152   C     0.85272   0.16672   0.05319   0.00000  Uiso   1.00
C153   C     0.85713   0.09530   0.06549   0.00000  Uiso   1.00
C154   C     0.94737   0.17418   0.24054   0.00000  Uiso   1.00
C155   C     0.80645   0.19150   0.42014   0.00000  Uiso   1.00
C156   C     0.99287   0.17993   0.24021   0.00000  Uiso   1.00
C157   C     0.67419   0.15489   0.26309   0.00000  Uiso   1.00
C158   C     0.84786   0.32263   0.23637   0.00000  Uiso   1.00
C159   C     0.81863   0.01155   0.26296   0.00000  Uiso   1.00
C160   C     0.82233   0.05582   0.26044   0.00000  Uiso   1.00
C161   C     0.84336   0.27790   0.24010   0.00000  Uiso   1.00
C162   C     0.79383   0.24210   0.48474   0.00000  Uiso   1.00
C163   C     0.85161   0.14793   0.12916   0.00000  Uiso   1.00
C164   C     0.81449   0.18389   0.37100   0.00000  Uiso   1.00
C165   C     0.84960   0.08148   0.02376   0.00000  Uiso   1.00
C166   C     0.85768   0.13757   0.08087   0.00000  Uiso   1.00
C167   C     0.79574   0.23087   0.43961   0.00000  Uiso   1.00
C168   C     0.98456   0.11540   0.32474   0.00000  Uiso   1.00
C169   C     0.67366   0.07761   0.32538   0.00000  Uiso   1.00
C170   C     0.67245   0.06936   0.37326   0.00000  Uiso   1.00
C171   C     0.68205   0.24986   0.23810   0.00000  Uiso   1.00
C172   C     0.71655   0.28236   0.21373   0.00000  Uiso   1.00
C173   C     0.80628   0.21576   0.00993   0.00000  Uiso   1.00
C174   C     0.71127   0.32636   0.23586   0.00000  Uiso   1.00
C175   C     0.82078   0.17753   0.49037   0.00000  Uiso   1.00
C176   C     0.81394   0.16254   0.44729   0.00000  Uiso   1.00
C177   C     0.83756   0.15194   0.01412   0.00000  Uiso   1.00
C178   C     0.83838   0.10904   0.49865   0.00000  Uiso   1.00
C179   C     0.82543   0.09319   0.45971   0.00000  Uiso   1.00
C180   C     0.81256   0.11902   0.43443   0.00000  Uiso   1.00
H181   H     0.86114   0.07266   0.08666   0.00000  Uiso   1.00
H182   H     0.70748   0.08314   0.30607   0.00000  Uiso   1.00
H183   H     0.68804   0.09718   0.39027   0.00000  Uiso   1.00
H184   H     0.68973   0.04236   0.37256   0.00000  Uiso   1.00
H185   H     0.97223   0.06193   0.39265   0.00000  Uiso   1.00
H186   H     0.68515   0.25070   0.27333   0.00000  Uiso   1.00
H187   H     0.98348   0.25817   0.23845   0.00000  Uiso   1.00
H188   H     0.74859   0.27498   0.21406   0.00000  Uiso   1.00
H189   H     0.71461   0.28125   0.17822   0.00000  Uiso   1.00
H190   H     0.67956   0.00118   0.23556   0.00000  Uiso   1.00
H191   H     0.73641   0.01584   0.21701   0.00000  Uiso   1.00
H192   H     0.79117   0.33047   0.28682   0.00000  Uiso   1.00
H193   H     0.71432   0.32859   0.27106   0.00000  Uiso   1.00
H194   H     0.82359   0.05994   0.44978   0.00000  Uiso   1.00
H195   H     0.84948   0.04857   0.01263   0.00000  Uiso   1.00
H196   H     0.78913   0.25318   0.41970   0.00000  Uiso   1.00
H197   H     0.80223   0.22463   0.04533   0.00000  Uiso   1.00
H198   H     0.95135   0.10996   0.34570   0.00000  Uiso   1.00
H199   H     0.66711   0.14393   0.34079   0.00000  Uiso   1.00
H200   H     0.99085   0.04952   0.30930   0.00000  Uiso   1.00
O201   O     0.83333   0.16667   0.25000   0.00000  Uiso   1.00
O202   O     0.82118   0.12637   0.15459   0.00000  Uiso   1.00
O203   O     0.79607   0.20391   0.34968   0.00000  Uiso   1.00
O204   O     0.87491   0.17759   0.14606   0.00000  Uiso   1.00
O205   O     0.84118   0.15880   0.34968   0.00000  Uiso   1.00
O206   O     0.98192   0.11932   0.28042   0.00000  Uiso   1.00
O207   O     0.68757   0.21006   0.21530   0.00000  Uiso   1.00
O208   O     0.84597   0.08019   0.28214   0.00000  Uiso   1.00
O209   O     0.81298   0.26085   0.27014   0.00000  Uiso   1.00
O210   O     0.74078   0.13291   0.23413   0.00000  Uiso   1.00
O211   O     0.93360   0.19272   0.21361   0.00000  Uiso   1.00
O212   O     0.73738   0.18878   0.28213   0.00000  Uiso   1.00
O213   O     0.92158   0.15226   0.27014   0.00000  Uiso   1.00
O214   O     0.80426   0.06944   0.23413   0.00000  Uiso   1.00
O215   O     0.87012   0.25620   0.21361   0.00000  Uiso   1.00
Zn216  Zn    0.86005   0.13994   0.28734   0.00000  Uiso   1.00
Zn217  Zn    0.80046   0.12458   0.21876   0.00000  Uiso   1.00
Zn218  Zn    0.87723   0.19775   0.20657   0.00000  Uiso   1.00
Zn219  Zn    0.79560   0.20439   0.28734   0.00000  Uiso   1.00
Br220  Br    0.22942   0.34809   0.19318   0.00000  Uiso   1.00
Br221  Br    0.20862   0.55778   0.06557   0.00000  Uiso   1.00
Br222  Br    0.10962   0.62791   0.01157   0.00000  Uiso   1.00
Br223  Br    0.11568   0.42324   0.39141   0.00000  Uiso   1.00
C224   C     0.05289   0.49268   0.25967   0.00000  Uiso   1.00
C225   C     0.18605   0.50005   0.05319   0.00000  Uiso   1.00
C226   C     0.19047   0.42863   0.06549   0.00000  Uiso   1.00
C227   C     0.28070   0.50752   0.24054   0.00000  Uiso   1.00
C228   C     0.13978   0.52483   0.42014   0.00000  Uiso   1.00
C229   C     0.32620   0.51326   0.24021   0.00000  Uiso   1.00
C230   C     0.00752   0.48822   0.26309   0.00000  Uiso   1.00
C231   C     0.18119   0.65597   0.23637   0.00000  Uiso   1.00
C232   C     0.15196   0.34488   0.26296   0.00000  Uiso   1.00
C233   C     0.15566   0.38916   0.26044   0.00000  Uiso   1.00
C234   C     0.17670   0.61123   0.24010   0.00000  Uiso   1.00
C235   C     0.12716   0.57543   0.48474   0.00000  Uiso   1.00
C236   C     0.18494   0.48126   0.12916   0.00000  Uiso   1.00
C237   C     0.14783   0.51722   0.37100   0.00000  Uiso   1.00
C238   C     0.18293   0.41481   0.02376   0.00000  Uiso   1.00
C239   C     0.19101   0.47091   0.08087   0.00000  Uiso   1.00
C240   C     0.12907   0.56421   0.43961   0.00000  Uiso   1.00
C241   C     0.31789   0.44873   0.32474   0.00000  Uiso   1.00
C242   C     0.00699   0.41095   0.32538   0.00000  Uiso   1.00
C243   C     0.00579   0.40269   0.37326   0.00000  Uiso   1.00
C244   C     0.01538   0.58319   0.23810   0.00000  Uiso   1.00
C245   C     0.04988   0.61569   0.21373   0.00000  Uiso   1.00
C246   C     0.13961   0.54909   0.00993   0.00000  Uiso   1.00
C247   C     0.04460   0.65969   0.23586   0.00000  Uiso   1.00
C248   C     0.15412   0.51087   0.49037   0.00000  Uiso   1.00
C249   C     0.14727   0.49587   0.44729   0.00000  Uiso   1.00
C250   C     0.17089   0.48528   0.01412   0.00000  Uiso   1.00
C251   C     0.17171   0.44238   0.49865   0.00000  Uiso   1.00
C252   C     0.15877   0.42653   0.45971   0.00000  Uiso   1.00
C253   C     0.14589   0.45235   0.43443   0.00000  Uiso   1.00
H254   H     0.19447   0.40599   0.08666   0.00000  Uiso   1.00
H255   H     0.04081   0.41648   0.30607   0.00000  Uiso   1.00
H256   H     0.02138   0.43051   0.39027   0.00000  Uiso   1.00
H257   H     0.02306   0.37569   0.37256   0.00000  Uiso   1.00
H258   H     0.30556   0.39526   0.39265   0.00000  Uiso   1.00
H259   H     0.01848   0.58403   0.27333   0.00000  Uiso   1.00
H260   H     0.31681   0.59150   0.23845   0.00000  Uiso   1.00
H261   H     0.08193   0.60831   0.21406   0.00000  Uiso   1.00
H262   H     0.04794   0.61458   0.17822   0.00000  Uiso   1.00
H263   H     0.01289   0.33452   0.23556   0.00000  Uiso   1.00
H264   H     0.06974   0.34917   0.21701   0.00000  Uiso   1.00
H265   H     0.12450   0.66380   0.28682   0.00000  Uiso   1.00
H266   H     0.04765   0.66192   0.27106   0.00000  Uiso   1.00
H267   H     0.15693   0.39328   0.44978   0.00000  Uiso   1.00
H268   H     0.18282   0.38190   0.01263   0.00000  Uiso   1.00
H269   H     0.12246   0.58651   0.41970   0.00000  Uiso   1.00
H270   H     0.13556   0.55797   0.04533   0.00000  Uiso   1.00
H271   H     0.28468   0.44329   0.34570   0.00000  Uiso   1.00
H272   H     0.00045   0.47727   0.34079   0.00000  Uiso   1.00
H273   H     0.32418   0.38285   0.30930   0.00000  Uiso   1.00
O274   O     0.16667   0.50000   0.25000   0.00000  Uiso   1.00
O275   O     0.15451   0.45970   0.15459   0.00000  Uiso   1.00
O276   O     0.12940   0.53724   0.34968   0.00000  Uiso   1.00
O277   O     0.20824   0.51092   0.14606   0.00000  Uiso   1.00
O278   O     0.17451   0.49213   0.34968   0.00000  Uiso   1.00
O279   O     0.31525   0.45265   0.28042   0.00000  Uiso   1.00
O280   O     0.02090   0.54339   0.21530   0.00000  Uiso   1.00
O281   O     0.17930   0.41352   0.28214   0.00000  Uiso   1.00
O282   O     0.14632   0.59418   0.27014   0.00000  Uiso   1.00
O283   O     0.07412   0.46625   0.23413   0.00000  Uiso   1.00
O284   O     0.26693   0.52605   0.21361   0.00000  Uiso   1.00
O285   O     0.07071   0.52211   0.28213   0.00000  Uiso   1.00
O286   O     0.25491   0.48559   0.27014   0.00000  Uiso   1.00
O287   O     0.13760   0.40277   0.23413   0.00000  Uiso   1.00
O288   O     0.20345   0.58953   0.21361   0.00000  Uiso   1.00
Zn289  Zn    0.19338   0.47327   0.28734   0.00000  Uiso   1.00
Zn290  Zn    0.13379   0.45791   0.21876   0.00000  Uiso   1.00
Zn291  Zn    0.21056   0.53109   0.20657   0.00000  Uiso   1.00
Zn292  Zn    0.12893   0.53773   0.28734   0.00000  Uiso   1.00
Br293  Br    0.56275   0.34809   0.19318   0.00000  Uiso   1.00
Br294  Br    0.54195   0.55778   0.06557   0.00000  Uiso   1.00
Br295  Br    0.44295   0.62791   0.01157   0.00000  Uiso   1.00
Br296  Br    0.44902   0.42324   0.39141   0.00000  Uiso   1.00
C297   C     0.38622   0.49268   0.25967   0.00000  Uiso   1.00
C298   C     0.51939   0.50005   0.05319   0.00000  Uiso   1.00
C299   C     0.52380   0.42863   0.06549   0.00000  Uiso   1.00
C300   C     0.61404   0.50752   0.24054   0.00000  Uiso   1.00
C301   C     0.47312   0.52483   0.42014   0.00000  Uiso   1.00
C302   C     0.65953   0.51326   0.24021   0.00000  Uiso   1.00
C303   C     0.34085   0.48822   0.26309   0.00000  Uiso   1.00
C304   C     0.51453   0.65597   0.23637   0.00000  Uiso   1.00
C305   C     0.48530   0.34488   0.26296   0.00000  Uiso   1.00
C306   C     0.48900   0.38916   0.26044   0.00000  Uiso   1.00
C307   C     0.51003   0.61123   0.24010   0.00000  Uiso   1.00
C308   C     0.46049   0.57543   0.48474   0.00000  Uiso   1.00
C309   C     0.51827   0.48126   0.12916   0.00000  Uiso   1.00
C310   C     0.48116   0.51722   0.37100   0.00000  Uiso   1.00
C311   C     0.51627   0.41481   0.02376   0.00000  Uiso   1.00
C312   C     0.52434   0.47091   0.08087   0.00000  Uiso   1.00
C313   C     0.46241   0.56421   0.43961   0.00000  Uiso   1.00
C314   C     0.65123   0.44873   0.32474   0.00000  Uiso   1.00
C315   C     0.34032   0.41095   0.32538   0.00000  Uiso   1.00
C316   C     0.33912   0.40269   0.37326   0.00000  Uiso   1.00
C317   C     0.34871   0.58319   0.23810   0.00000  Uiso   1.00
C318   C     0.38321   0.61569   0.21373   0.00000  Uiso   1.00
C319   C     0.47294   0.54909   0.00993   0.00000  Uiso   1.00
C320   C     0.37793   0.65969   0.23586   0.00000  Uiso   1.00
C321   C     0.48745   0.51087   0.49037   0.00000  Uiso   1.00
C322   C     0.48060   0.49587   0.44729   0.00000  Uiso   1.00
C323   C     0.50422   0.48528   0.01412   0.00000  Uiso   1.00
C324   C     0.50505   0.44238   0.49865   0.00000  Uiso   1.00
C325   C     0.49210   0.42653   0.45971   0.00000  Uiso   1.00
C326   C     0.47922   0.45235   0.43443   0.00000  Uiso   1.00
H327   H     0.52781   0.40599   0.08666   0.00000  Uiso   1.00
H328   H     0.37414   0.41648   0.30607   0.00000  Uiso   1.00
H329   H     0.35471   0.43051   0.39027   0.00000  Uiso   1.00
H330   H     0.35640   0.37569   0.37256   0.00000  Uiso   1.00
H331   H     0.63889   0.39526   0.39265   0.00000  Uiso   1.00
H332   H     0.35181   0.58403   0.27333   0.00000  Uiso   1.00
H333   H     0.65014   0.59150   0.23845   0.00000  Uiso   1.00
H334   H     0.41526   0.60831   0.21406   0.00000  Uiso   1.00
H335   H     0.38128   0.61458   0.17822   0.00000  Uiso   1.00
H336   H     0.34622   0.33452   0.23556   0.00000  Uiso   1.00
H337   H     0.40307   0.34917   0.21701   0.00000  Uiso   1.00
H338   H     0.45783   0.66380   0.28682   0.00000  Uiso   1.00
H339   H     0.38099   0.66192   0.27106   0.00000  Uiso   1.00
H340   H     0.49026   0.39328   0.44978   0.00000  Uiso   1.00
H341   H     0.51615   0.38190   0.01263   0.00000  Uiso   1.00
H342   H     0.45579   0.58651   0.41970   0.00000  Uiso   1.00
H343   H     0.46889   0.55797   0.04533   0.00000  Uiso   1.00
H344   H     0.61801   0.44329   0.34570   0.00000  Uiso   1.00
H345   H     0.33378   0.47727   0.34079   0.00000  Uiso   1.00
H346   H     0.65751   0.38285   0.30930   0.00000  Uiso   1.00
O347   O     0.50000   0.50000   0.25000   0.00000  Uiso   1.00
O348   O     0.48784   0.45970   0.15459   0.00000  Uiso   1.00
O349   O     0.46274   0.53724   0.34968   0.00000  Uiso   1.00
O350   O     0.54157   0.51092   0.14606   0.00000  Uiso   1.00
O351   O     0.50785   0.49213   0.34968   0.00000  Uiso   1.00
O352   O     0.64859   0.45265   0.28042   0.00000  Uiso   1.00
O353   O     0.35423   0.54339   0.21530   0.00000  Uiso   1.00
O354   O     0.51264   0.41352   0.28214   0.00000  Uiso   1.00
O355   O     0.47965   0.59418   0.27014   0.00000  Uiso   1.00
O356   O     0.40745   0.46625   0.23413   0.00000  Uiso   1.00
O357   O     0.60026   0.52605   0.21361   0.00000  Uiso   1.00
O358   O     0.40405   0.52211   0.28213   0.00000  Uiso   1.00
O359   O     0.58824   0.48559   0.27014   0.00000  Uiso   1.00
O360   O     0.47093   0.40277   0.23413   0.00000  Uiso   1.00
O361   O     0.53678   0.58953   0.21361   0.00000  Uiso   1.00
Zn362  Zn    0.52672   0.47327   0.28734   0.00000  Uiso   1.00
Zn363  Zn    0.46713   0.45791   0.21876   0.00000  Uiso   1.00
Zn364  Zn    0.54389   0.53109   0.20657   0.00000  Uiso   1.00
Zn365  Zn    0.46226   0.53773   0.28734   0.00000  Uiso   1.00
Br366  Br    0.89609   0.34809   0.19318   0.00000  Uiso   1.00
Br367  Br    0.87528   0.55778   0.06557   0.00000  Uiso   1.00
Br368  Br    0.77629   0.62791   0.01157   0.00000  Uiso   1.00
Br369  Br    0.78235   0.42324   0.39141   0.00000  Uiso   1.00
C370   C     0.71956   0.49268   0.25967   0.00000  Uiso   1.00
C371   C     0.85272   0.50005   0.05319   0.00000  Uiso   1.00
C372   C     0.85713   0.42863   0.06549   0.00000  Uiso   1.00
C373   C     0.94737   0.50752   0.24054   0.00000  Uiso   1.00
C374   C     0.80645   0.52483   0.42014   0.00000  Uiso   1.00
C375   C     0.99287   0.51326   0.24021   0.00000  Uiso   1.00
C376   C     0.67419   0.48822   0.26309   0.00000  Uiso   1.00
C377   C     0.84786   0.65597   0.23637   0.00000  Uiso   1.00
C378   C     0.81863   0.34488   0.26296   0.00000  Uiso   1.00
C379   C     0.82233   0.38916   0.26044   0.00000  Uiso   1.00
C380   C     0.84336   0.61123   0.24010   0.00000  Uiso   1.00
C381   C     0.79383   0.57543   0.48474   0.00000  Uiso   1.00
C382   C     0.85161   0.48126   0.12916   0.00000  Uiso   1.00
C383   C     0.81449   0.51722   0.37100   0.00000  Uiso   1.00
C384   C     0.84960   0.41481   0.02376   0.00000  Uiso   1.00
C385   C     0.85768   0.47091   0.08087   0.00000  Uiso   1.00
C386   C     0.79574   0.56421   0.43961   0.00000  Uiso   1.00
C387   C     0.98456   0.44873   0.32474   0.00000  Uiso   1.00
C388   C     0.67366   0.41095   0.32538   0.00000  Uiso   1.00
C389   C     0.67245   0.40269   0.37326   0.00000  Uiso   1.00
C390   C     0.68205   0.58319   0.23810   0.00000  Uiso   1.00
C391   C     0.71655   0.61569   0.21373   0.00000  Uiso   1.00
C392   C     0.80628   0.54909   0.00993   0.00000  Uiso   1.00
C393   C     0.71127   0.65969   0.23586   0.00000  Uiso   1.00
C394   C     0.82078   0.51087   0.49037   0.00000  Uiso   1.00
C395   C     0.81394   0.49587   0.44729   0.00000  Uiso   1.00
C396   C     0.83756   0.48528   0.01412   0.00000  Uiso   1.00
C397   C     0.83838   0.44238   0.49865   0.00000  Uiso   1.00
C398   C     0.82543   0.42653   0.45971   0.00000  Uiso   1.00
C399   C     0.81256   0.45235   0.43443   0.00000  Uiso   1.00
H400   H     0.86114   0.40599   0.08666   0.00000  Uiso   1.00
H401   H     0.70748   0.41648   0.30607   0.00000  Uiso   1.00
H402   H     0.68804   0.43051   0.39027   0.00000  Uiso   1.00
H403   H     0.68973   0.37569   0.37256   0.00000  Uiso   1.00
H404   H     0.97223   0.39526   0.39265   0.00000  Uiso   1.00
H405   H     0.68515   0.58403   0.27333   0.00000  Uiso   1.00
H406   H     0.98348   0.59150   0.23845   0.00000  Uiso   1.00
H407   H     0.74859   0.60831   0.21406   0.00000  Uiso   1.00
H408   H     0.71461   0.61458   0.17822   0.00000  Uiso   1.00
H409   H     0.67956   0.33452   0.23556   0.00000  Uiso   1.00
H410   H     0.73641   0.34917   0.21701   0.00000  Uiso   1.00
H411   H     0.79117   0.66380   0.28682   0.00000  Uiso   1.00
H412   H     0.71432   0.66192   0.27106   0.00000  Uiso   1.00
H413   H     0.82359   0.39328   0.44978   0.00000  Uiso   1.00
H414   H     0.84948   0.38190   0.01263   0.00000  Uiso   1.00
H415   H     0.78913   0.58651   0.41970   0.00000  Uiso   1.00
H416   H     0.80223   0.55797   0.04533   0.00000  Uiso   1.00
H417   H     0.95135   0.44329   0.34570   0.00000  Uiso   1.00
H418   H     0.66711   0.47727   0.34079   0.00000  Uiso   1.00
H419   H     0.99085   0.38285   0.30930   0.00000  Uiso   1.00
O420   O     0.83333   0.50000   0.25000   0.00000  Uiso   1.00
O421   O     0.82118   0.45970   0.15459   0.00000  Uiso   1.00
O422   O     0.79607   0.53724   0.34968   0.00000  Uiso   1.00
O423   O     0.87491   0.51092   0.14606   0.00000  Uiso   1.00
O424   O     0.84118   0.49213   0.34968   0.00000  Uiso   1.00
O425   O     0.98192   0.45265   0.28042   0.00000  Uiso   1.00
O426   O     0.68757   0.54339   0.21530   0.00000  Uiso   1.00
O427   O     0.84597   0.41352   0.28214   0.00000  Uiso   1.00
O428   O     0.81298   0.59418   0.27014   0.00000  Uiso   1.00
O429   O     0.74078   0.46625   0.23413   0.00000  Uiso   1.00
O430   O     0.93360   0.52605   0.21361   0.00000  Uiso   1.00
O431   O     0.73738   0.52211   0.28213   0.00000  Uiso   1.00
O432   O     0.92158   0.48559   0.27014   0.00000  Uiso   1.00
O433   O     0.80426   0.40277   0.23413   0.00000  Uiso   1.00
O434   O     0.87012   0.58953   0.21361   0.00000  Uiso   1.00
Zn435  Zn    0.86005   0.47327   0.28734   0.00000  Uiso   1.00
Zn436  Zn    0.80046   0.45791   0.21876   0.00000  Uiso   1.00
Zn437  Zn    0.87723   0.53109   0.20657   0.00000  Uiso   1.00
Zn438  Zn    0.79560   0.53773   0.28734   0.00000  Uiso   1.00
Br439  Br    0.22942   0.68143   0.19318   0.00000  Uiso   1.00
Br440  Br    0.20862   0.89111   0.06557   0.00000  Uiso   1.00
Br441  Br    0.10962   0.96125   0.01157   0.00000  Uiso   1.00
Br442  Br    0.11568   0.75657   0.39141   0.00000  Uiso   1.00
C443   C     0.05289   0.82601   0.25967   0.00000  Uiso   1.00
C444   C     0.18605   0.83339   0.05319   0.00000  Uiso   1.00
C445   C     0.19047   0.76196   0.06549   0.00000  Uiso   1.00
C446   C     0.28070   0.84085   0.24054   0.00000  Uiso   1.00
C447   C     0.13978   0.85816   0.42014   0.00000  Uiso   1.00
C448   C     0.32620   0.84659   0.24021   0.00000  Uiso   1.00
C449   C     0.00752   0.82156   0.26309   0.00000  Uiso   1.00
C450   C     0.18119   0.98930   0.23637   0.00000  Uiso   1.00
C451   C     0.15196   0.67822   0.26296   0.00000  Uiso   1.00
C452   C     0.15566   0.72249   0.26044   0.00000  Uiso   1.00
C453   C     0.17670   0.94457   0.24010   0.00000  Uiso   1.00
C454   C     0.12716   0.90876   0.48474   0.00000  Uiso   1.00
C455   C     0.18494   0.81459   0.12916   0.00000  Uiso   1.00
C456   C     0.14783   0.85056   0.37100   0.00000  Uiso   1.00
C457   C     0.18293   0.74815   0.02376   0.00000  Uiso   1.00
C458   C     0.19101   0.80424   0.08087   0.00000  Uiso   1.00
C459   C     0.12907   0.89754   0.43961   0.00000  Uiso   1.00
C460   C     0.31789   0.78206   0.32474   0.00000  Uiso   1.00
C461   C     0.00699   0.74428   0.32538   0.00000  Uiso   1.00
C462   C     0.00579   0.73602   0.37326   0.00000  Uiso   1.00
C463   C     0.01538   0.91652   0.23810   0.00000  Uiso   1.00
C464   C     0.04988   0.94903   0.21373   0.00000  Uiso   1.00
C465   C     0.13961   0.88242   0.00993   0.00000  Uiso   1.00
C466   C     0.04460   0.99302   0.23586   0.00000  Uiso   1.00
C467   C     0.15412   0.84420   0.49037   0.00000  Uiso   1.00
C468   C     0.14727   0.82920   0.44729   0.00000  Uiso   1.00
C469   C     0.17089   0.81861   0.01412   0.00000  Uiso   1.00
C470   C     0.17171   0.77571   0.49865   0.00000  Uiso   1.00
C471   C     0.15877   0.75986   0.45971   0.00000  Uiso   1.00
C472   C     0.14589   0.78569   0.43443   0.00000  Uiso   1.00
H473   H     0.19447   0.73932   0.08666   0.00000  Uiso   1.00
H474   H     0.04081   0.74981   0.30607   0.00000  Uiso   1.00
H475   H     0.02138   0.76384   0.39027   0.00000  Uiso   1.00
H476   H     0.02306   0.70902   0.37256   0.00000  Uiso   1.00
H477   H     0.30556   0.72860   0.39265   0.00000  Uiso   1.00
H478   H     0.01848   0.91737   0.27333   0.00000  Uiso   1.00
H479   H     0.31681   0.92484   0.23845   0.00000  Uiso   1.00
H480   H     0.08193   0.94165   0.21406   0.00000  Uiso   1.00
H481   H     0.04794   0.94791   0.17822   0.00000  Uiso   1.00
H482   H     0.01289   0.66785   0.23556   0.00000  Uiso   1.00
H483   H     0.06974   0.68250   0.21701   0.00000  Uiso   1.00
H484   H     0.12450   0.99713   0.28682   0.00000  Uiso   1.00
H485   H     0.04765   0.99525   0.27106   0.00000  Uiso   1.00
H486   H     0.15693   0.72661   0.44978   0.00000  Uiso   1.00
H487   H     0.18282   0.71524   0.01263   0.00000  Uiso   1.00
H488   H     0.12246   0.91984   0.41970   0.00000  Uiso   1.00
H489   H     0.13556   0.89130   0.04533   0.00000  Uiso   1.00
H490   H     0.28468   0.77662   0.34570   0.00000  Uiso   1.00
H491   H     0.00045   0.81060   0.34079   0.00000  Uiso   1.00
H492   H     0.32418   0.71619   0.30930   0.00000  Uiso   1.00
O493   O     0.16667   0.83333   0.25000   0.00000  Uiso   1.00
O494   O     0.15451   0.79304   0.15459   0.00000  Uiso   1.00
O495   O     0.12940   0.87058   0.34968   0.00000  Uiso   1.00
O496   O     0.20824   0.84425   0.14606   0.00000  Uiso   1.00
O497   O     0.17451   0.82546   0.34968   0.00000  Uiso   1.00
O498   O     0.31525   0.78598   0.28042   0.00000  Uiso   1.00
O499   O     0.02090   0.87672   0.21530   0.00000  Uiso   1.00
O500   O     0.17930   0.74686   0.28214   0.00000  Uiso   1.00
O501   O     0.14632   0.92751   0.27014   0.00000  Uiso   1.00
O502   O     0.07412   0.79958   0.23413   0.00000  Uiso   1.00
O503   O     0.26693   0.85939   0.21361   0.00000  Uiso   1.00
O504   O     0.07071   0.85544   0.28213   0.00000  Uiso   1.00
O505   O     0.25491   0.81892   0.27014   0.00000  Uiso   1.00
O506   O     0.13760   0.73610   0.23413   0.00000  Uiso   1.00
O507   O     0.20345   0.92286   0.21361   0.00000  Uiso   1.00
Zn508  Zn    0.19338   0.80661   0.28734   0.00000  Uiso   1.00
Zn509  Zn    0.13379   0.79124   0.21876   0.00000  Uiso   1.00
Zn510  Zn    0.21056   0.86442   0.20657   0.00000  Uiso   1.00
Zn511  Zn    0.12893   0.87106   0.28734   0.00000  Uiso   1.00
Br512  Br    0.56275   0.68143   0.19318   0.00000  Uiso   1.00
Br513  Br    0.54195   0.89111   0.06557   0.00000  Uiso   1.00
Br514  Br    0.44295   0.96125   0.01157   0.00000  Uiso   1.00
Br515  Br    0.44902   0.75657   0.39141   0.00000  Uiso   1.00
C516   C     0.38622   0.82601   0.25967   0.00000  Uiso   1.00
C517   C     0.51939   0.83339   0.05319   0.00000  Uiso   1.00
C518   C     0.52380   0.76196   0.06549   0.00000  Uiso   1.00
C519   C     0.61404   0.84085   0.24054   0.00000  Uiso   1.00
C520   C     0.47312   0.85816   0.42014   0.00000  Uiso   1.00
C521   C     0.65953   0.84659   0.24021   0.00000  Uiso   1.00
C522   C     0.34085   0.82156   0.26309   0.00000  Uiso   1.00
C523   C     0.51453   0.98930   0.23637   0.00000  Uiso   1.00
C524   C     0.48530   0.67822   0.26296   0.00000  Uiso   1.00
C525   C     0.48900   0.72249   0.26044   0.00000  Uiso   1.00
C526   C     0.51003   0.94457   0.24010   0.00000  Uiso   1.00
C527   C     0.46049   0.90876   0.48474   0.00000  Uiso   1.00
C528   C     0.51827   0.81459   0.12916   0.00000  Uiso   1.00
C529   C     0.48116   0.85056   0.37100   0.00000  Uiso   1.00
C530   C     0.51627   0.74815   0.02376   0.00000  Uiso   1.00
C531   C     0.52434   0.80424   0.08087   0.00000  Uiso   1.00
C532   C     0.46241   0.89754   0.43961   0.00000  Uiso   1.00
C533   C     0.65123   0.78206   0.32474   0.00000  Uiso   1.00
C534   C     0.34032   0.74428   0.32538   0.00000  Uiso   1.00
C535   C     0.33912   0.73602   0.37326   0.00000  Uiso   1.00
C536   C     0.34871   0.91652   0.23810   0.00000  Uiso   1.00
C537   C     0.38321   0.94903   0.21373   0.00000  Uiso   1.00
C538   C     0.47294   0.88242   0.00993   0.00000  Uiso   1.00
C539   C     0.37793   0.99302   0.23586   0.00000  Uiso   1.00
C540   C     0.48745   0.84420   0.49037   0.00000  Uiso   1.00
C541   C     0.48060   0.82920   0.44729   0.00000  Uiso   1.00
C542   C     0.50422   0.81861   0.01412   0.00000  Uiso   1.00
C543   C     0.50505   0.77571   0.49865   0.00000  Uiso   1.00
C544   C     0.49210   0.75986   0.45971   0.00000  Uiso   1.00
C545   C     0.47922   0.78569   0.43443   0.00000  Uiso   1.00
H546   H     0.52781   0.73932   0.08666   0.00000  Uiso   1.00
H547   H     0.37414   0.74981   0.30607   0.00000  Uiso   1.00
H548   H     0.35471   0.76384   0.39027   0.00000  Uiso   1.00
H549   H     0.35640   0.70902   0.37256   0.00000  Uiso   1.00
H550   H     0.63889   0.72860   0.39265   0.00000  Uiso   1.00
H551   H     0.35181   0.91737   0.27333   0.00000  Uiso   1.00
H552   H     0.65014   0.92484   0.23845   0.00000  Uiso   1.00
H553   H     0.41526   0.94165   0.21406   0.00000  Uiso   1.00
H554   H     0.38128   0.94791   0.17822   0.00000  Uiso   1.00
H555   H     0.34622   0.66785   0.23556   0.00000  Uiso   1.00
H556   H     0.40307   0.68250   0.21701   0.00000  Uiso   1.00
H557   H     0.45783   0.99713   0.28682   0.00000  Uiso   1.00
H558   H     0.38099   0.99525   0.27106   0.00000  Uiso   1.00
H559   H     0.49026   0.72661   0.44978   0.00000  Uiso   1.00
H560   H     0.51615   0.71524   0.01263   0.00000  Uiso   1.00
H561   H     0.45579   0.91984   0.41970   0.00000  Uiso   1.00
H562   H     0.46889   0.89130   0.04533   0.00000  Uiso   1.00
H563   H     0.61801   0.77662   0.34570   0.00000  Uiso   1.00
H564   H     0.33378   0.81060   0.34079   0.00000  Uiso   1.00
H565   H     0.65751   0.71619   0.30930   0.00000  Uiso   1.00
O566   O     0.50000   0.83333   0.25000   0.00000  Uiso   1.00
O567   O     0.48784   0.79304   0.15459   0.00000  Uiso   1.00
O568   O     0.46274   0.87058   0.34968   0.00000  Uiso   1.00
O569   O     0.54157   0.84425   0.14606   0.00000  Uiso   1.00
O570   O     0.50785   0.82546   0.34968   0.00000  Uiso   1.00
O571   O     0.64859   0.78598   0.28042   0.00000  Uiso   1.00
O572   O     0.35423   0.87672   0.21530   0.00000  Uiso   1.00
O573   O     0.51264   0.74686   0.28214   0.00000  Uiso   1.00
O574   O     0.47965   0.92751   0.27014   0.00000  Uiso   1.00
O575   O     0.40745   0.79958   0.23413   0.00000  Uiso   1.00
O576   O     0.60026   0.85939   0.21361   0.00000  Uiso   1.00
O577   O     0.40405   0.85544   0.28213   0.00000  Uiso   1.00
O578   O     0.58824   0.81892   0.27014   0.00000  Uiso   1.00
O579   O     0.47093   0.73610   0.23413   0.00000  Uiso   1.00
O580   O     0.53678   0.92286   0.21361   0.00000  Uiso   1.00
Zn581  Zn    0.52672   0.80661   0.28734   0.00000  Uiso   1.00
Zn582  Zn    0.46713   0.79124   0.21876   0.00000  Uiso   1.00
Zn583  Zn    0.54389   0.86442   0.20657   0.00000  Uiso   1.00
Zn584  Zn    0.46226   0.87106   0.28734   0.00000  Uiso   1.00
Br585  Br    0.89609   0.68143   0.19318   0.00000  Uiso   1.00
Br586  Br    0.87528   0.89111   0.06557   0.00000  Uiso   1.00
Br587  Br    0.77629   0.96125   0.01157   0.00000  Uiso   1.00
Br588  Br    0.78235   0.75657   0.39141   0.00000  Uiso   1.00
C589   C     0.71956   0.82601   0.25967   0.00000  Uiso   1.00
C590   C     0.85272   0.83339   0.05319   0.00000  Uiso   1.00
C591   C     0.85713   0.76196   0.06549   0.00000  Uiso   1.00
C592   C     0.94737   0.84085   0.24054   0.00000  Uiso   1.00
C593   C     0.80645   0.85816   0.42014   0.00000  Uiso   1.00
C594   C     0.99287   0.84659   0.24021   0.00000  Uiso   1.00
C595   C     0.67419   0.82156   0.26309   0.00000  Uiso   1.00
C596   C     0.84786   0.98930   0.23637   0.00000  Uiso   1.00
C597   C     0.81863   0.67822   0.26296   0.00000  Uiso   1.00
C598   C     0.82233   0.72249   0.26044   0.00000  Uiso   1.00
C599   C     0.84336   0.94457   0.24010   0.00000  Uiso   1.00
C600   C     0.79383   0.90876   0.48474   0.00000  Uiso   1.00
C601   C     0.85161   0.81459   0.12916   0.00000  Uiso   1.00
C602   C     0.81449   0.85056   0.37100   0.00000  Uiso   1.00
C603   C     0.84960   0.74815   0.02376   0.00000  Uiso   1.00
C604   C     0.85768   0.80424   0.08087   0.00000  Uiso   1.00
C605   C     0.79574   0.89754   0.43961   0.00000  Uiso   1.00
C606   C     0.98456   0.78206   0.32474   0.00000  Uiso   1.00
C607   C     0.67366   0.74428   0.32538   0.00000  Uiso   1.00
C608   C     0.67245   0.73602   0.37326   0.00000  Uiso   1.00
C609   C     0.68205   0.91652   0.23810   0.00000  Uiso   1.00
C610   C     0.71655   0.94903   0.21373   0.00000  Uiso   1.00
C611   C     0.80628   0.88242   0.00993   0.00000  Uiso   1.00
C612   C     0.71127   0.99302   0.23586   0.00000  Uiso   1.00
C613   C     0.82078   0.84420   0.49037   0.00000  Uiso   1.00
C614   C     0.81394   0.82920   0.44729   0.00000  Uiso   1.00
C615   C     0.83756   0.81861   0.01412   0.00000  Uiso   1.00
C616   C     0.83838   0.77571   0.49865   0.00000  Uiso   1.00
C617   C     0.82543   0.75986   0.45971   0.00000  Uiso   1.00
C618   C     0.81256   0.78569   0.43443   0.00000  Uiso   1.00
H619   H     0.86114   0.73932   0.08666   0.00000  Uiso   1.00
H620   H     0.70748   0.74981   0.30607   0.00000  Uiso   1.00
H621   H     0.68804   0.76384   0.39027   0.00000  Uiso   1.00
H622   H     0.68973   0.70902   0.37256   0.00000  Uiso   1.00
H623   H     0.97223   0.72860   0.39265   0.00000  Uiso   1.00
H624   H     0.68515   0.91737   0.27333   0.00000  Uiso   1.00
H625   H     0.98348   0.92484   0.23845   0.00000  Uiso   1.00
H626   H     0.74859   0.94165   0.21406   0.00000  Uiso   1.00
H627   H     0.71461   0.94791   0.17822   0.00000  Uiso   1.00
H628   H     0.67956   0.66785   0.23556   0.00000  Uiso   1.00
H629   H     0.73641   0.68250   0.21701   0.00000  Uiso   1.00
H630   H     0.79117   0.99713   0.28682   0.00000  Uiso   1.00
H631   H     0.71432   0.99525   0.27106   0.00000  Uiso   1.00
H632   H     0.82359   0.72661   0.44978   0.00000  Uiso   1.00
H633   H     0.84948   0.71524   0.01263   0.00000  Uiso   1.00
H634   H     0.78913   0.91984   0.41970   0.00000  Uiso   1.00
H635   H     0.80223   0.89130   0.04533   0.00000  Uiso   1.00
H636   H     0.95135   0.77662   0.34570   0.00000  Uiso   1.00
H637   H     0.66711   0.81060   0.34079   0.00000  Uiso   1.00
H638   H     0.99085   0.71619   0.30930   0.00000  Uiso   1.00
O639   O     0.83333   0.83333   0.25000   0.00000  Uiso   1.00
O640   O     0.82118   0.79304   0.15459   0.00000  Uiso   1.00
O641   O     0.79607   0.87058   0.34968   0.00000  Uiso   1.00
O642   O     0.87491   0.84425   0.14606   0.00000  Uiso   1.00
O643   O     0.84118   0.82546   0.34968   0.00000  Uiso   1.00
O644   O     0.98192   0.78598   0.28042   0.00000  Uiso   1.00
O645   O     0.68757   0.87672   0.21530   0.00000  Uiso   1.00
O646   O     0.84597   0.74686   0.28214   0.00000  Uiso   1.00
O647   O     0.81298   0.92751   0.27014   0.00000  Uiso   1.00
O648   O     0.74078   0.79958   0.23413   0.00000  Uiso   1.00
O649   O     0.93360   0.85939   0.21361   0.00000  Uiso   1.00
O650   O     0.73738   0.85544   0.28213   0.00000  Uiso   1.00
O651   O     0.92158   0.81892   0.27014   0.00000  Uiso   1.00
O652   O     0.80426   0.73610   0.23413   0.00000  Uiso   1.00
O653   O     0.87012   0.92286   0.21361   0.00000  Uiso   1.00
Zn654  Zn    0.86005   0.80661   0.28734   0.00000  Uiso   1.00
Zn655  Zn    0.80046   0.79124   0.21876   0.00000  Uiso   1.00
Zn656  Zn    0.87723   0.86442   0.20657   0.00000  Uiso   1.00
Zn657  Zn    0.79560   0.87106   0.28734   0.00000  Uiso   1.00
Br658  Br    0.22942   0.01476   0.69318   0.00000  Uiso   1.00
Br659  Br    0.20862   0.22445   0.56557   0.00000  Uiso   1.00
Br660  Br    0.10962   0.29458   0.51157   0.00000  Uiso   1.00
Br661  Br    0.11568   0.08990   0.89141   0.00000  Uiso   1.00
C662   C     0.05289   0.15934   0.75967   0.00000  Uiso   1.00
C663   C     0.18605   0.16672   0.55319   0.00000  Uiso   1.00
C664   C     0.19047   0.09530   0.56549   0.00000  Uiso   1.00
C665   C     0.28070   0.17418   0.74054   0.00000  Uiso   1.00
C666   C     0.13978   0.19150   0.92014   0.00000  Uiso   1.00
C667   C     0.32620   0.17993   0.74021   0.00000  Uiso   1.00
C668   C     0.00752   0.15489   0.76309   0.00000  Uiso   1.00
C669   C     0.18119   0.32263   0.73637   0.00000  Uiso   1.00
C670   C     0.15196   0.01155   0.76296   0.00000  Uiso   1.00
C671   C     0.15566   0.05582   0.76044   0.00000  Uiso   1.00
C672   C     0.17670   0.27790   0.74010   0.00000  Uiso   1.00
C673   C     0.12716   0.24210   0.98474   0.00000  Uiso   1.00
C674   C     0.18494   0.14793   0.62916   0.00000  Uiso   1.00
C675   C     0.14783   0.18389   0.87100   0.00000  Uiso   1.00
C676   C     0.18293   0.08148   0.52376   0.00000  Uiso   1.00
C677   C     0.19101   0.13757   0.58087   0.00000  Uiso   1.00
C678   C     0.12907   0.23087   0.93961   0.00000  Uiso   1.00
C679   C     0.31789   0.11540   0.82474   0.00000  Uiso   1.00
C680   C     0.00699   0.07761   0.82538   0.00000  Uiso   1.00
C681   C     0.00579   0.06936   0.87326   0.00000  Uiso   1.00
C682   C     0.01538   0.24986   0.73810   0.00000  Uiso   1.00
C683   C     0.04988   0.28236   0.71373   0.00000  Uiso   1.00
C684   C     0.13961   0.21576   0.50993   0.00000  Uiso   1.00
C685   C     0.04460   0.32636   0.73586   0.00000  Uiso   1.00
C686   C     0.15412   0.17753   0.99037   0.00000  Uiso   1.00
C687   C     0.14727   0.16254   0.94729   0.00000  Uiso   1.00
C688   C     0.17089   0.15194   0.51412   0.00000  Uiso   1.00
C689   C     0.17171   0.10904   0.99865   0.00000  Uiso   1.00
C690   C     0.15877   0.09319   0.95971   0.00000  Uiso   1.00
C691   C     0.14589   0.11902   0.93443   0.00000  Uiso   1.00
H692   H     0.19447   0.07266   0.58666   0.00000  Uiso   1.00
H693   H     0.04081   0.08314   0.80607   0.00000  Uiso   1.00
H694   H     0.02138   0.09718   0.89027   0.00000  Uiso   1.00
H695   H     0.02306   0.04236   0.87256   0.00000  Uiso   1.00
H696   H     0.30556   0.06193   0.89265   0.00000  Uiso   1.00
H697   H     0.01848   0.25070   0.77333   0.00000  Uiso   1.00
H698   H     0.31681   0.25817   0.73845   0.00000  Uiso   1.00
H699   H     0.08193   0.27498   0.71406   0.00000  Uiso   1.00
H700   H     0.04794   0.28125   0.67822   0.00000  Uiso   1.00
H701   H     0.01289   0.00118   0.73556   0.00000  Uiso   1.00
H702   H     0.06974   0.01584   0.71701   0.00000  Uiso   1.00
H703   H     0.12450   0.33047   0.78682   0.00000  Uiso   1.00
H704   H     0.04765   0.32859   0.77106   0.00000  Uiso   1.00
H705   H     0.15693   0.05994   0.94978   0.00000  Uiso   1.00
H706   H     0.18282   0.04857   0.51263   0.00000  Uiso   1.00
H707   H     0.12246   0.25318   0.91970   0.00000  Uiso   1.00
H708   H     0.13556   0.22463   0.54533   0.00000  Uiso   1.00
H709   H     0.28468   0.10996   0.84570   0.00000  Uiso   1.00
H710   H     0.00045   0.14393   0.84079   0.00000  Uiso   1.00
H711   H     0.32418   0.04952   0.80930   0.00000  Uiso   1.00
O712   O     0.16667   0.16667   0.75000   0.00000  Uiso   1.00
O713   O     0.15451   0.12637   0.65459   0.00000  Uiso   1.00
O714   O     0.12940   0.20391   0.84968   0.00000  Uiso   1.00
O715   O     0.20824   0.17759   0.64606   0.00000  Uiso   1.00
O716   O     0.17451   0.15880   0.84968   0.00000  Uiso   1.00
O717   O     0.31525   0.11932   0.78042   0.00000  Uiso   1.00
O718   O     0.02090   0.21006   0.71530   0.00000  Uiso   1.00
O719   O     0.17930   0.08019   0.78214   0.00000  Uiso   1.00
O720   O     0.14632   0.26085   0.77014   0.00000  Uiso   1.00
O721   O     0.07412   0.13291   0.73413   0.00000  Uiso   1.00
O722   O     0.26693   0.19272   0.71361   0.00000  Uiso   1.00
O723   O     0.07071   0.18878   0.78213   0.00000  Uiso   1.00
O724   O     0.25491   0.15226   0.77014   0.00000  Uiso   1.00
O725   O     0.13760   0.06944   0.73413   0.00000  Uiso   1.00
O726   O     0.20345   0.25620   0.71361   0.00000  Uiso   1.00
Zn727  Zn    0.19338   0.13994   0.78734   0.00000  Uiso   1.00
Zn728  Zn    0.13379   0.12458   0.71876   0.00000  Uiso   1.00
Zn729  Zn    0.21056   0.19775   0.70657   0.00000  Uiso   1.00
Zn730  Zn    0.12893   0.20439   0.78734   0.00000  Uiso   1.00
Br731  Br    0.56275   0.01476   0.69318   0.00000  Uiso   1.00
Br732  Br    0.54195   0.22445   0.56557   0.00000  Uiso   1.00
Br733  Br    0.44295   0.29458   0.51157   0.00000  Uiso   1.00
Br734  Br    0.44902   0.08990   0.89141   0.00000  Uiso   1.00
C735   C     0.38622   0.15934   0.75967   0.00000  Uiso   1.00
C736   C     0.51939   0.16672   0.55319   0.00000  Uiso   1.00
C737   C     0.52380   0.09530   0.56549   0.00000  Uiso   1.00
C738   C     0.61404   0.17418   0.74054   0.00000  Uiso   1.00
C739   C     0.47312   0.19150   0.92014   0.00000  Uiso   1.00
C740   C     0.65953   0.17993   0.74021   0.00000  Uiso   1.00
C741   C     0.34085   0.15489   0.76309   0.00000  Uiso   1.00
C742   C     0.51453   0.32263   0.73637   0.00000  Uiso   1.00
C743   C     0.48530   0.01155   0.76296   0.00000  Uiso   1.00
C744   C     0.48900   0.05582   0.76044   0.00000  Uiso   1.00
C745   C     0.51003   0.27790   0.74010   0.00000  Uiso   1.00
C746   C     0.46049   0.24210   0.98474   0.00000  Uiso   1.00
C747   C     0.51827   0.14793   0.62916   0.00000  Uiso   1.00
C748   C     0.48116   0.18389   0.87100   0.00000  Uiso   1.00
C749   C     0.51627   0.08148   0.52376   0.00000  Uiso   1.00
C750   C     0.52434   0.13757   0.58087   0.00000  Uiso   1.00
C751   C     0.46241   0.23087   0.93961   0.00000  Uiso   1.00
C752   C     0.65123   0.11540   0.82474   0.00000  Uiso   1.00
C753   C     0.34032   0.07761   0.82538   0.00000  Uiso   1.00
C754   C     0.33912   0.06936   0.87326   0.00000  Uiso   1.00
C755   C     0.34871   0.24986   0.73810   0.00000  Uiso   1.00
C756   C     0.38321   0.28236   0.71373   0.00000  Uiso   1.00
C757   C     0.47294   0.21576   0.50993   0.00000  Uiso   1.00
C758   C     0.37793   0.32636   0.73586   0.00000  Uiso   1.00
C759   C     0.48745   0.17753   0.99037   0.00000  Uiso   1.00
C760   C     0.48060   0.16254   0.94729   0.00000  Uiso   1.00
C761   C     0.50422   0.15194   0.51412   0.00000  Uiso   1.00
C762   C     0.50505   0.10904   0.99865   0.00000  Uiso   1.00
C763   C     0.49210   0.09319   0.95971   0.00000  Uiso   1.00
C764   C     0.47922   0.11902   0.93443   0.00000  Uiso   1.00
H765   H     0.52781   0.07266   0.58666   0.00000  Uiso   1.00
H766   H     0.37414   0.08314   0.80607   0.00000  Uiso   1.00
H767   H     0.35471   0.09718   0.89027   0.00000  Uiso   1.00
H768   H     0.35640   0.04236   0.87256   0.00000  Uiso   1.00
H769   H     0.63889   0.06193   0.89265   0.00000  Uiso   1.00
H770   H     0.35181   0.25070   0.77333   0.00000  Uiso   1.00
H771   H     0.65014   0.25817   0.73845   0.00000  Uiso   1.00
H772   H     0.41526   0.27498   0.71406   0.00000  Uiso   1.00
H773   H     0.38128   0.28125   0.67822   0.00000  Uiso   1.00
H774   H     0.34622   0.00118   0.73556   0.00000  Uiso   1.00
H775   H     0.40307   0.01584   0.71701   0.00000  Uiso   1.00
H776   H     0.45783   0.33047   0.78682   0.00000  Uiso   1.00
H777   H     0.38099   0.32859   0.77106   0.00000  Uiso   1.00
H778   H     0.49026   0.05994   0.94978   0.00000  Uiso   1.00
H779   H     0.51615   0.04857   0.51263   0.00000  Uiso   1.00
H780   H     0.45579   0.25318   0.91970   0.00000  Uiso   1.00
H781   H     0.46889   0.22463   0.54533   0.00000  Uiso   1.00
H782   H     0.61801   0.10996   0.84570   0.00000  Uiso   1.00
H783   H     0.33378   0.14393   0.84079   0.00000  Uiso   1.00
H784   H     0.65751   0.04952   0.80930   0.00000  Uiso   1.00
O785   O     0.50000   0.16667   0.75000   0.00000  Uiso   1.00
O786   O     0.48784   0.12637   0.65459   0.00000  Uiso   1.00
O787   O     0.46274   0.20391   0.84968   0.00000  Uiso   1.00
O788   O     0.54157   0.17759   0.64606   0.00000  Uiso   1.00
O789   O     0.50785   0.15880   0.84968   0.00000  Uiso   1.00
O790   O     0.64859   0.11932   0.78042   0.00000  Uiso   1.00
O791   O     0.35423   0.21006   0.71530   0.00000  Uiso   1.00
O792   O     0.51264   0.08019   0.78214   0.00000  Uiso   1.00
O793   O     0.47965   0.26085   0.77014   0.00000  Uiso   1.00
O794   O     0.40745   0.13291   0.73413   0.00000  Uiso   1.00
O795   O     0.60026   0.19272   0.71361   0.00000  Uiso   1.00
O796   O     0.40405   0.18878   0.78213   0.00000  Uiso   1.00
O797   O     0.58824   0.15226   0.77014   0.00000  Uiso   1.00
O798   O     0.47093   0.06944   0.73413   0.00000  Uiso   1.00
O799   O     0.53678   0.25620   0.71361   0.00000  Uiso   1.00
Zn800  Zn    0.52672   0.13994   0.78734   0.00000  Uiso   1.00
Zn801  Zn    0.46713   0.12458   0.71876   0.00000  Uiso   1.00
Zn802  Zn    0.54389   0.19775   0.70657   0.00000  Uiso   1.00
Zn803  Zn    0.46226   0.20439   0.78734   0.00000  Uiso   1.00
Br804  Br    0.89609   0.01476   0.69318   0.00000  Uiso   1.00
Br805  Br    0.87528   0.22445   0.56557   0.00000  Uiso   1.00
Br806  Br    0.77629   0.29458   0.51157   0.00000  Uiso   1.00
Br807  Br    0.78235   0.08990   0.89141   0.00000  Uiso   1.00
C808   C     0.71956   0.15934   0.75967   0.00000  Uiso   1.00
C809   C     0.85272   0.16672   0.55319   0.00000  Uiso   1.00
C810   C     0.85713   0.09530   0.56549   0.00000  Uiso   1.00
C811   C     0.94737   0.17418   0.74054   0.00000  Uiso   1.00
C812   C     0.80645   0.19150   0.92014   0.00000  Uiso   1.00
C813   C     0.99287   0.17993   0.74021   0.00000  Uiso   1.00
C814   C     0.67419   0.15489   0.76309   0.00000  Uiso   1.00
C815   C     0.84786   0.32263   0.73637   0.00000  Uiso   1.00
C816   C     0.81863   0.01155   0.76296   0.00000  Uiso   1.00
C817   C     0.82233   0.05582   0.76044   0.00000  Uiso   1.00
C818   C     0.84336   0.27790   0.74010   0.00000  Uiso   1.00
C819   C     0.79383   0.24210   0.98474   0.00000  Uiso   1.00
C820   C     0.85161   0.14793   0.62916   0.00000  Uiso   1.00
C821   C     0.81449   0.18389   0.87100   0.00000  Uiso   1.00
C822   C     0.84960   0.08148   0.52376   0.00000  Uiso   1.00
C823   C     0.85768   0.13757   0.58087   0.00000  Uiso   1.00
C824   C     0.79574   0.23087   0.93961   0.00000  Uiso   1.00
C825   C     0.98456   0.11540   0.82474   0.00000  Uiso   1.00
C826   C     0.67366   0.07761   0.82538   0.00000  Uiso   1.00
C827   C     0.67245   0.06936   0.87326   0.00000  Uiso   1.00
C828   C     0.68205   0.24986   0.73810   0.00000  Uiso   1.00
C829   C     0.71655   0.28236   0.71373   0.00000  Uiso   1.00
C830   C     0.80628   0.21576   0.50993   0.00000  Uiso   1.00
C831   C     0.71127   0.32636   0.73586   0.00000  Uiso   1.00
C832   C     0.82078   0.17753   0.99037   0.00000  Uiso   1.00
C833   C     0.81394   0.16254   0.94729   0.00000  Uiso   1.00
C834   C     0.83756   0.15194   0.51412   0.00000  Uiso   1.00
C835   C     0.83838   0.10904   0.99865   0.00000  Uiso   1.00
C836   C     0.82543   0.09319   0.95971   0.00000  Uiso   1.00
C837   C     0.81256   0.11902   0.93443   0.00000  Uiso   1.00
H838   H     0.86114   0.07266   0.58666   0.00000  Uiso   1.00
H839   H     0.70748   0.08314   0.80607   0.00000  Uiso   1.00
H840   H     0.68804   0.09718   0.89027   0.00000  Uiso   1.00
H841   H     0.68973   0.04236   0.87256   0.00000  Uiso   1.00
H842   H     0.97223   0.06193   0.89265   0.00000  Uiso   1.00
H843   H     0.68515   0.25070   0.77333   0.00000  Uiso   1.00
H844   H     0.98348   0.25817   0.73845   0.00000  Uiso   1.00
H845   H     0.74859   0.27498   0.71406   0.00000  Uiso   1.00
H846   H     0.71461   0.28125   0.67822   0.00000  Uiso   1.00
H847   H     0.67956   0.00118   0.73556   0.00000  Uiso   1.00
H848   H     0.73641   0.01584   0.71701   0.00000  Uiso   1.00
H849   H     0.79117   0.33047   0.78682   0.00000  Uiso   1.00
H850   H     0.71432   0.32859   0.77106   0.00000  Uiso   1.00
H851   H     0.82359   0.05994   0.94978   0.00000  Uiso   1.00
H852   H     0.84948   0.04857   0.51263   0.00000  Uiso   1.00
H853   H     0.78913   0.25318   0.91970   0.00000  Uiso   1.00
H854   H     0.80223   0.22463   0.54533   0.00000  Uiso   1.00
H855   H     0.95135   0.10996   0.84570   0.00000  Uiso   1.00
H856   H     0.66711   0.14393   0.84079   0.00000  Uiso   1.00
H857   H     0.99085   0.04952   0.80930   0.00000  Uiso   1.00
O858   O     0.83333   0.16667   0.75000   0.00000  Uiso   1.00
O859   O     0.82118   0.12637   0.65459   0.00000  Uiso   1.00
O860   O     0.79607   0.20391   0.84968   0.00000  Uiso   1.00
O861   O     0.87491   0.17759   0.64606   0.00000  Uiso   1.00
O862   O     0.84118   0.15880   0.84968   0.00000  Uiso   1.00
O863   O     0.98192   0.11932   0.78042   0.00000  Uiso   1.00
O864   O     0.68757   0.21006   0.71530   0.00000  Uiso   1.00
O865   O     0.84597   0.08019   0.78214   0.00000  Uiso   1.00
O866   O     0.81298   0.26085   0.77014   0.00000  Uiso   1.00
O867   O     0.74078   0.13291   0.73413   0.00000  Uiso   1.00
O868   O     0.93360   0.19272   0.71361   0.00000  Uiso   1.00
O869   O     0.73738   0.18878   0.78213   0.00000  Uiso   1.00
O870   O     0.92158   0.15226   0.77014   0.00000  Uiso   1.00
O871   O     0.80426   0.06944   0.73413   0.00000  Uiso   1.00
O872   O     0.87012   0.25620   0.71361   0.00000  Uiso   1.00
Zn873  Zn    0.86005   0.13994   0.78734   0.00000  Uiso   1.00
Zn874  Zn    0.80046   0.12458   0.71876   0.00000  Uiso   1.00
Zn875  Zn    0.87723   0.19775   0.70657   0.00000  Uiso   1.00
Zn876  Zn    0.79560   0.20439   0.78734   0.00000  Uiso   1.00
Br877  Br    0.22942   0.34809   0.69318   0.00000  Uiso   1.00
Br878  Br    0.20862   0.55778   0.56557   0.00000  Uiso   1.00
Br879  Br    0.10962   0.62791   0.51157   0.00000  Uiso   1.00
Br880  Br    0.11568   0.42324   0.89141   0.00000  Uiso   1.00
C881   C     0.05289   0.49268   0.75967   0.00000  Uiso   1.00
C882   C     0.18605   0.50005   0.55319   0.00000  Uiso   1.00
C883   C     0.19047   0.42863   0.56549   0.00000  Uiso   1.00
C884   C     0.28070   0.50752   0.74054   0.00000  Uiso   1.00
C885   C     0.13978   0.52483   0.92014   0.00000  Uiso   1.00
C886   C     0.32620   0.51326   0.74021   0.00000  Uiso   1.00
C887   C     0.00752   0.48822   0.76309   0.00000  Uiso   1.00
C888   C     0.18119   0.65597   0.73637   0.00000  Uiso   1.00
C889   C     0.15196   0.34488   0.76296   0.00000  Uiso   1.00
C890   C     0.15566   0.38916   0.76044   0.00000  Uiso   1.00
C891   C     0.17670   0.61123   0.74010   0.00000  Uiso   1.00
C892   C     0.12716   0.57543   0.98474   0.00000  Uiso   1.00
C893   C     0.18494   0.48126   0.62916   0.00000  Uiso   1.00
C894   C     0.14783   0.51722   0.87100   0.00000  Uiso   1.00
C895   C     0.18293   0.41481   0.52376   0.00000  Uiso   1.00
C896   C     0.19101   0.47091   0.58087   0.00000  Uiso   1.00
C897   C     0.12907   0.56421   0.93961   0.00000  Uiso   1.00
C898   C     0.31789   0.44873   0.82474   0.00000  Uiso   1.00
C899   C     0.00699   0.41095   0.82538   0.00000  Uiso   1.00
C900   C     0.00579   0.40269   0.87326   0.00000  Uiso   1.00
C901   C     0.01538   0.58319   0.73810   0.00000  Uiso   1.00
C902   C     0.04988   0.61569   0.71373   0.00000  Uiso   1.00
C903   C     0.13961   0.54909   0.50993   0.00000  Uiso   1.00
C904   C     0.04460   0.65969   0.73586   0.00000  Uiso   1.00
C905   C     0.15412   0.51087   0.99037   0.00000  Uiso   1.00
C906   C     0.14727   0.49587   0.94729   0.00000  Uiso   1.00
C907   C     0.17089   0.48528   0.51412   0.00000  Uiso   1.00
C908   C     0.17171   0.44238   0.99865   0.00000  Uiso   1.00
C909   C     0.15877   0.42653   0.95971   0.00000  Uiso   1.00
C910   C     0.14589   0.45235   0.93443   0.00000  Uiso   1.00
H911   H     0.19447   0.40599   0.58666   0.00000  Uiso   1.00
H912   H     0.04081   0.41648   0.80607   0.00000  Uiso   1.00
H913   H     0.02138   0.43051   0.89027   0.00000  Uiso   1.00
H914   H     0.02306   0.37569   0.87256   0.00000  Uiso   1.00
H915   H     0.30556   0.39526   0.89265   0.00000  Uiso   1.00
H916   H     0.01848   0.58403   0.77333   0.00000  Uiso   1.00
H917   H     0.31681   0.59150   0.73845   0.00000  Uiso   1.00
H918   H     0.08193   0.60831   0.71406   0.00000  Uiso   1.00
H919   H     0.04794   0.61458   0.67822   0.00000  Uiso   1.00
H920   H     0.01289   0.33452   0.73556   0.00000  Uiso   1.00
H921   H     0.06974   0.34917   0.71701   0.00000  Uiso   1.00
H922   H     0.12450   0.66380   0.78682   0.00000  Uiso   1.00
H923   H     0.04765   0.66192   0.77106   0.00000  Uiso   1.00
H924   H     0.15693   0.39328   0.94978   0.00000  Uiso   1.00
H925   H     0.18282   0.38190   0.51263   0.00000  Uiso   1.00
H926   H     0.12246   0.58651   0.91970   0.00000  Uiso   1.00
H927   H     0.13556   0.55797   0.54533   0.00000  Uiso   1.00
H928   H     0.28468   0.44329   0.84570   0.00000  Uiso   1.00
H929   H     0.00045   0.47727   0.84079   0.00000  Uiso   1.00
H930   H     0.32418   0.38285   0.80930   0.00000  Uiso   1.00
O931   O     0.16667   0.50000   0.75000   0.00000  Uiso   1.00
O932   O     0.15451   0.45970   0.65459   0.00000  Uiso   1.00
O933   O     0.12940   0.53724   0.84968   0.00000  Uiso   1.00
O934   O     0.20824   0.51092   0.64606   0.00000  Uiso   1.00
O935   O     0.17451   0.49213   0.84968   0.00000  Uiso   1.00
O936   O     0.31525   0.45265   0.78042   0.00000  Uiso   1.00
O937   O     0.02090   0.54339   0.71530   0.00000  Uiso   1.00
O938   O     0.17930   0.41352   0.78214   0.00000  Uiso   1.00
O939   O     0.14632   0.59418   0.77014   0.00000  Uiso   1.00
O940   O     0.07412   0.46625   0.73413   0.00000  Uiso   1.00
O941   O     0.26693   0.52605   0.71361   0.00000  Uiso   1.00
O942   O     0.07071   0.52211   0.78213   0.00000  Uiso   1.00
O943   O     0.25491   0.48559   0.77014   0.00000  Uiso   1.00
O944   O     0.13760   0.40277   0.73413   0.00000  Uiso   1.00
O945   O     0.20345   0.58953   0.71361   0.00000  Uiso   1.00
Zn946  Zn    0.19338   0.47327   0.78734   0.00000  Uiso   1.00
Zn947  Zn    0.13379   0.45791   0.71876   0.00000  Uiso   1.00
Zn948  Zn    0.21056   0.53109   0.70657   0.00000  Uiso   1.00
Zn949  Zn    0.12893   0.53773   0.78734   0.00000  Uiso   1.00
Br950  Br    0.56275   0.34809   0.69318   0.00000  Uiso   1.00
Br951  Br    0.54195   0.55778   0.56557   0.00000  Uiso   1.00
Br952  Br    0.44295   0.62791   0.51157   0.00000  Uiso   1.00
Br953  Br    0.44902   0.42324   0.89141   0.00000  Uiso   1.00
C954   C     0.38622   0.49268   0.75967   0.00000  Uiso   1.00
C955   C     0.51939   0.50005   0.55319   0.00000  Uiso   1.00
C956   C     0.52380   0.42863   0.56549   0.00000  Uiso   1.00
C957   C     0.61404   0.50752   0.74054   0.00000  Uiso   1.00
C958   C     0.47312   0.52483   0.92014   0.00000  Uiso   1.00
C959   C     0.65953   0.51326   0.74021   0.00000  Uiso   1.00
C960   C     0.34085   0.48822   0.76309   0.00000  Uiso   1.00
C961   C     0.51453   0.65597   0.73637   0.00000  Uiso   1.00
C962   C     0.48530   0.34488   0.76296   0.00000  Uiso   1.00
C963   C     0.48900   0.38916   0.76044   0.00000  Uiso   1.00
C964   C     0.51003   0.61123   0.74010   0.00000  Uiso   1.00
C965   C     0.46049   0.57543   0.98474   0.00000  Uiso   1.00
C966   C     0.51827   0.48126   0.62916   0.00000  Uiso   1.00
C967   C     0.48116   0.51722   0.87100   0.00000  Uiso   1.00
C968   C     0.51627   0.41481   0.52376   0.00000  Uiso   1.00
C969   C     0.52434   0.47091   0.58087   0.00000  Uiso   1.00
C970   C     0.46241   0.56421   0.93961   0.00000  Uiso   1.00
C971   C     0.65123   0.44873   0.82474   0.00000  Uiso   1.00
C972   C     0.34032   0.41095   0.82538   0.00000  Uiso   1.00
C973   C     0.33912   0.40269   0.87326   0.00000  Uiso   1.00
C974   C     0.34871   0.58319   0.73810   0.00000  Uiso   1.00
C975   C     0.38321   0.61569   0.71373   0.00000  Uiso   1.00
C976   C     0.47294   0.54909   0.50993   0.00000  Uiso   1.00
C977   C     0.37793   0.65969   0.73586   0.00000  Uiso   1.00
C978   C     0.48745   0.51087   0.99037   0.00000  Uiso   1.00
C979   C     0.48060   0.49587   0.94729   0.00000  Uiso   1.00
C980   C     0.50422   0.48528   0.51412   0.00000  Uiso   1.00
C981   C     0.50505   0.44238   0.99865   0.00000  Uiso   1.00
C982   C     0.49210   0.42653   0.95971   0.00000  Uiso   1.00
C983   C     0.47922   0.45235   0.93443   0.00000  Uiso   1.00
H984   H     0.52781   0.40599   0.58666   0.00000  Uiso   1.00
H985   H     0.37414   0.41648   0.80607   0.00000  Uiso   1.00
H986   H     0.35471   0.43051   0.89027   0.00000  Uiso   1.00
H987   H     0.35640   0.37569   0.87256   0.00000  Uiso   1.00
H988   H     0.63889   0.39526   0.89265   0.00000  Uiso   1.00
H989   H     0.35181   0.58403   0.77333   0.00000  Uiso   1.00
H990   H     0.65014   0.59150   0.73845   0.00000  Uiso   1.00
H991   H     0.41526   0.60831   0.71406   0.00000  Uiso   1.00
H992   H     0.38128   0.61458   0.67822   0.00000  Uiso   1.00
H993   H     0.34622   0.33452   0.73556   0.00000  Uiso   1.00
H994   H     0.40307   0.34917   0.71701   0.00000  Uiso   1.00
H995   H     0.45783   0.66380   0.78682   0.00000  Uiso   1.00
H996   H     0.38099   0.66192   0.77106   0.00000  Uiso   1.00
H997   H     0.49026   0.39328   0.94978   0.00000  Uiso   1.00
H998   H     0.51615   0.38190   0.51263   0.00000  Uiso   1.00
H999   H     0.45579   0.58651   0.91970   0.00000  Uiso   1.00
H1000  H     0.46889   0.55797   0.54533   0.00000  Uiso   1.00
H1001  H     0.61801   0.44329   0.84570   0.00000  Uiso   1.00
H1002  H     0.33378   0.47727   0.84079   0.00000  Uiso   1.00
H1003  H     0.65751   0.38285   0.80930   0.00000  Uiso   1.00
O1004  O     0.50000   0.50000   0.75000   0.00000  Uiso   1.00
O1005  O     0.48784   0.45970   0.65459   0.00000  Uiso   1.00
O1006  O     0.46274   0.53724   0.84968   0.00000  Uiso   1.00
O1007  O     0.54157   0.51092   0.64606   0.00000  Uiso   1.00
O1008  O     0.50785   0.49213   0.84968   0.00000  Uiso   1.00
O1009  O     0.64859   0.45265   0.78042   0.00000  Uiso   1.00
O1010  O     0.35423   0.54339   0.71530   0.00000  Uiso   1.00
O1011  O     0.51264   0.41352   0.78214   0.00000  Uiso   1.00
O1012  O     0.47965   0.59418   0.77014   0.00000  Uiso   1.00
O1013  O     0.40745   0.46625   0.73413   0.00000  Uiso   1.00
O1014  O     0.60026   0.52605   0.71361   0.00000  Uiso   1.00
O1015  O     0.40405   0.52211   0.78213   0.00000  Uiso   1.00
O1016  O     0.58824   0.48559   0.77014   0.00000  Uiso   1.00
O1017  O     0.47093   0.40277   0.73413   0.00000  Uiso   1.00
O1018  O     0.53678   0.58953   0.71361   0.00000  Uiso   1.00
Zn1019 Zn    0.52672   0.47327   0.78734   0.00000  Uiso   1.00
Zn1020 Zn    0.46713   0.45791   0.71876   0.00000  Uiso   1.00
Zn1021 Zn    0.54389   0.53109   0.70657   0.00000  Uiso   1.00
Zn1022 Zn    0.46226   0.53773   0.78734   0.00000  Uiso   1.00
Br1023 Br    0.89609   0.34809   0.69318   0.00000  Uiso   1.00
Br1024 Br    0.87528   0.55778   0.56557   0.00000  Uiso   1.00
Br1025 Br    0.77629   0.62791   0.51157   0.00000  Uiso   1.00
Br1026 Br    0.78235   0.42324   0.89141   0.00000  Uiso   1.00
C1027  C     0.71956   0.49268   0.75967   0.00000  Uiso   1.00
C1028  C     0.85272   0.50005   0.55319   0.00000  Uiso   1.00
C1029  C     0.85713   0.42863   0.56549   0.00000  Uiso   1.00
C1030  C     0.94737   0.50752   0.74054   0.00000  Uiso   1.00
C1031  C     0.80645   0.52483   0.92014   0.00000  Uiso   1.00
C1032  C     0.99287   0.51326   0.74021   0.00000  Uiso   1.00
C1033  C     0.67419   0.48822   0.76309   0.00000  Uiso   1.00
C1034  C     0.84786   0.65597   0.73637   0.00000  Uiso   1.00
C1035  C     0.81863   0.34488   0.76296   0.00000  Uiso   1.00
C1036  C     0.82233   0.38916   0.76044   0.00000  Uiso   1.00
C1037  C     0.84336   0.61123   0.74010   0.00000  Uiso   1.00
C1038  C     0.79383   0.57543   0.98474   0.00000  Uiso   1.00
C1039  C     0.85161   0.48126   0.62916   0.00000  Uiso   1.00
C1040  C     0.81449   0.51722   0.87100   0.00000  Uiso   1.00
C1041  C     0.84960   0.41481   0.52376   0.00000  Uiso   1.00
C1042  C     0.85768   0.47091   0.58087   0.00000  Uiso   1.00
C1043  C     0.79574   0.56421   0.93961   0.00000  Uiso   1.00
C1044  C     0.98456   0.44873   0.82474   0.00000  Uiso   1.00
C1045  C     0.67366   0.41095   0.82538   0.00000  Uiso   1.00
C1046  C     0.67245   0.40269   0.87326   0.00000  Uiso   1.00
C1047  C     0.68205   0.58319   0.73810   0.00000  Uiso   1.00
C1048  C     0.71655   0.61569   0.71373   0.00000  Uiso   1.00
C1049  C     0.80628   0.54909   0.50993   0.00000  Uiso   1.00
C1050  C     0.71127   0.65969   0.73586   0.00000  Uiso   1.00
C1051  C     0.82078   0.51087   0.99037   0.00000  Uiso   1.00
C1052  C     0.81394   0.49587   0.94729   0.00000  Uiso   1.00
C1053  C     0.83756   0.48528   0.51412   0.00000  Uiso   1.00
C1054  C     0.83838   0.44238   0.99865   0.00000  Uiso   1.00
C1055  C     0.82543   0.42653   0.95971   0.00000  Uiso   1.00
C1056  C     0.81256   0.45235   0.93443   0.00000  Uiso   1.00
H1057  H     0.86114   0.40599   0.58666   0.00000  Uiso   1.00
H1058  H     0.70748   0.41648   0.80607   0.00000  Uiso   1.00
H1059  H     0.68804   0.43051   0.89027   0.00000  Uiso   1.00
H1060  H     0.68973   0.37569   0.87256   0.00000  Uiso   1.00
H1061  H     0.97223   0.39526   0.89265   0.00000  Uiso   1.00
H1062  H     0.68515   0.58403   0.77333   0.00000  Uiso   1.00
H1063  H     0.98348   0.59150   0.73845   0.00000  Uiso   1.00
H1064  H     0.74859   0.60831   0.71406   0.00000  Uiso   1.00
H1065  H     0.71461   0.61458   0.67822   0.00000  Uiso   1.00
H1066  H     0.67956   0.33452   0.73556   0.00000  Uiso   1.00
H1067  H     0.73641   0.34917   0.71701   0.00000  Uiso   1.00
H1068  H     0.79117   0.66380   0.78682   0.00000  Uiso   1.00
H1069  H     0.71432   0.66192   0.77106   0.00000  Uiso   1.00
H1070  H     0.82359   0.39328   0.94978   0.00000  Uiso   1.00
H1071  H     0.84948   0.38190   0.51263   0.00000  Uiso   1.00
H1072  H     0.78913   0.58651   0.91970   0.00000  Uiso   1.00
H1073  H     0.80223   0.55797   0.54533   0.00000  Uiso   1.00
H1074  H     0.95135   0.44329   0.84570   0.00000  Uiso   1.00
H1075  H     0.66711   0.47727   0.84079   0.00000  Uiso   1.00
H1076  H     0.99085   0.38285   0.80930   0.00000  Uiso   1.00
O1077  O     0.83333   0.50000   0.75000   0.00000  Uiso   1.00
O1078  O     0.82118   0.45970   0.65459   0.00000  Uiso   1.00
O1079  O     0.79607   0.53724   0.84968   0.00000  Uiso   1.00
O1080  O     0.87491   0.51092   0.64606   0.00000  Uiso   1.00
O1081  O     0.84118   0.49213   0.84968   0.00000  Uiso   1.00
O1082  O     0.98192   0.45265   0.78042   0.00000  Uiso   1.00
O1083  O     0.68757   0.54339   0.71530   0.00000  Uiso   1.00
O1084  O     0.84597   0.41352   0.78214   0.00000  Uiso   1.00
O1085  O     0.81298   0.59418   0.77014   0.00000  Uiso   1.00
O1086  O     0.74078   0.46625   0.73413   0.00000  Uiso   1.00
O1087  O     0.93360   0.52605   0.71361   0.00000  Uiso   1.00
O1088  O     0.73738   0.52211   0.78213   0.00000  Uiso   1.00
O1089  O     0.92158   0.48559   0.77014   0.00000  Uiso   1.00
O1090  O     0.80426   0.40277   0.73413   0.00000  Uiso   1.00
O1091  O     0.87012   0.58953   0.71361   0.00000  Uiso   1.00
Zn1092 Zn    0.86005   0.47327   0.78734   0.00000  Uiso   1.00
Zn1093 Zn    0.80046   0.45791   0.71876   0.00000  Uiso   1.00
Zn1094 Zn    0.87723   0.53109   0.70657   0.00000  Uiso   1.00
Zn1095 Zn    0.79560   0.53773   0.78734   0.00000  Uiso   1.00
Br1096 Br    0.22942   0.68143   0.69318   0.00000  Uiso   1.00
Br1097 Br    0.20862   0.89111   0.56557   0.00000  Uiso   1.00
Br1098 Br    0.10962   0.96125   0.51157   0.00000  Uiso   1.00
Br1099 Br    0.11568   0.75657   0.89141   0.00000  Uiso   1.00
C1100  C     0.05289   0.82601   0.75967   0.00000  Uiso   1.00
C1101  C     0.18605   0.83339   0.55319   0.00000  Uiso   1.00
C1102  C     0.19047   0.76196   0.56549   0.00000  Uiso   1.00
C1103  C     0.28070   0.84085   0.74054   0.00000  Uiso   1.00
C1104  C     0.13978   0.85816   0.92014   0.00000  Uiso   1.00
C1105  C     0.32620   0.84659   0.74021   0.00000  Uiso   1.00
C1106  C     0.00752   0.82156   0.76309   0.00000  Uiso   1.00
C1107  C     0.18119   0.98930   0.73637   0.00000  Uiso   1.00
C1108  C     0.15196   0.67822   0.76296   0.00000  Uiso   1.00
C1109  C     0.15566   0.72249   0.76044   0.00000  Uiso   1.00
C1110  C     0.17670   0.94457   0.74010   0.00000  Uiso   1.00
C1111  C     0.12716   0.90876   0.98474   0.00000  Uiso   1.00
C1112  C     0.18494   0.81459   0.62916   0.00000  Uiso   1.00
C1113  C     0.14783   0.85056   0.87100   0.00000  Uiso   1.00
C1114  C     0.18293   0.74815   0.52376   0.00000  Uiso   1.00
C1115  C     0.19101   0.80424   0.58087   0.00000  Uiso   1.00
C1116  C     0.12907   0.89754   0.93961   0.00000  Uiso   1.00
C1117  C     0.31789   0.78206   0.82474   0.00000  Uiso   1.00
C1118  C     0.00699   0.74428   0.82538   0.00000  Uiso   1.00
C1119  C     0.00579   0.73602   0.87326   0.00000  Uiso   1.00
C1120  C     0.01538   0.91652   0.73810   0.00000  Uiso   1.00
C1121  C     0.04988   0.94903   0.71373   0.00000  Uiso   1.00
C1122  C     0.13961   0.88242   0.50993   0.00000  Uiso   1.00
C1123  C     0.04460   0.99302   0.73586   0.00000  Uiso   1.00
C1124  C     0.15412   0.84420   0.99037   0.00000  Uiso   1.00
C1125  C     0.14727   0.82920   0.94729   0.00000  Uiso   1.00
C1126  C     0.17089   0.81861   0.51412   0.00000  Uiso   1.00
C1127  C     0.17171   0.77571   0.99865   0.00000  Uiso   1.00
C1128  C     0.15877   0.75986   0.95971   0.00000  Uiso   1.00
C1129  C     0.14589   0.78569   0.93443   0.00000  Uiso   1.00
H1130  H     0.19447   0.73932   0.58666   0.00000  Uiso   1.00
H1131  H     0.04081   0.74981   0.80607   0.00000  Uiso   1.00
H1132  H     0.02138   0.76384   0.89027   0.00000  Uiso   1.00
H1133  H     0.02306   0.70902   0.87256   0.00000  Uiso   1.00
H1134  H     0.30556   0.72860   0.89265   0.00000  Uiso   1.00
H1135  H     0.01848   0.91737   0.77333   0.00000  Uiso   1.00
H1136  H     0.31681   0.92484   0.73845   0.00000  Uiso   1.00
H1137  H     0.08193   0.94165   0.71406   0.00000  Uiso   1.00
H1138  H     0.04794   0.94791   0.67822   0.00000  Uiso   1.00
H1139  H     0.01289   0.66785   0.73556   0.00000  Uiso   1.00
H1140  H     0.06974   0.68250   0.71701   0.00000  Uiso   1.00
H1141  H     0.12450   0.99713   0.78682   0.00000  Uiso   1.00
H1142  H     0.04765   0.99525   0.77106   0.00000  Uiso   1.00
H1143  H     0.15693   0.72661   0.94978   0.00000  Uiso   1.00
H1144  H     0.18282   0.71524   0.51263   0.00000  Uiso   1.00
H1145  H     0.12246   0.91984   0.91970   0.00000  Uiso   1.00
H1146  H     0.13556   0.89130   0.54533   0.00000  Uiso   1.00
H1147  H     0.28468   0.77662   0.84570   0.00000  Uiso   1.00
H1148  H     0.00045   0.81060   0.84079   0.00000  Uiso   1.00
H1149  H     0.32418   0.71619   0.80930   0.00000  Uiso   1.00
O1150  O     0.16667   0.83333   0.75000   0.00000  Uiso   1.00
O1151  O     0.15451   0.79304   0.65459   0.00000  Uiso   1.00
O1152  O     0.12940   0.87058   0.84968   0.00000  Uiso   1.00
O1153  O     0.20824   0.84425   0.64606   0.00000  Uiso   1.00
O1154  O     0.17451   0.82546   0.84968   0.00000  Uiso   1.00
O1155  O     0.31525   0.78598   0.78042   0.00000  Uiso   1.00
O1156  O     0.02090   0.87672   0.71530   0.00000  Uiso   1.00
O1157  O     0.17930   0.74686   0.78214   0.00000  Uiso   1.00
O1158  O     0.14632   0.92751   0.77014   0.00000  Uiso   1.00
O1159  O     0.07412   0.79958   0.73413   0.00000  Uiso   1.00
O1160  O     0.26693   0.85939   0.71361   0.00000  Uiso   1.00
O1161  O     0.07071   0.85544   0.78213   0.00000  Uiso   1.00
O1162  O     0.25491   0.81892   0.77014   0.00000  Uiso   1.00
O1163  O     0.13760   0.73610   0.73413   0.00000  Uiso   1.00
O1164  O     0.20345   0.92286   0.71361   0.00000  Uiso   1.00
Zn1165 Zn    0.19338   0.80661   0.78734   0.00000  Uiso   1.00
Zn1166 Zn    0.13379   0.79124   0.71876   0.00000  Uiso   1.00
Zn1167 Zn    0.21056   0.86442   0.70657   0.00000  Uiso   1.00
Zn1168 Zn    0.12893   0.87106   0.78734   0.00000  Uiso   1.00
Br1169 Br    0.56275   0.68143   0.69318   0.00000  Uiso   1.00
Br1170 Br    0.54195   0.89111   0.56557   0.00000  Uiso   1.00
Br1171 Br    0.44295   0.96125   0.51157   0.00000  Uiso   1.00
Br1172 Br    0.44902   0.75657   0.89141   0.00000  Uiso   1.00
C1173  C     0.38622   0.82601   0.75967   0.00000  Uiso   1.00
C1174  C     0.51939   0.83339   0.55319   0.00000  Uiso   1.00
C1175  C     0.52380   0.76196   0.56549   0.00000  Uiso   1.00
C1176  C     0.61404   0.84085   0.74054   0.00000  Uiso   1.00
C1177  C     0.47312   0.85816   0.92014   0.00000  Uiso   1.00
C1178  C     0.65953   0.84659   0.74021   0.00000  Uiso   1.00
C1179  C     0.34085   0.82156   0.76309   0.00000  Uiso   1.00
C1180  C     0.51453   0.98930   0.73637   0.00000  Uiso   1.00
C1181  C     0.48530   0.67822   0.76296   0.00000  Uiso   1.00
C1182  C     0.48900   0.72249   0.76044   0.00000  Uiso   1.00
C1183  C     0.51003   0.94457   0.74010   0.00000  Uiso   1.00
C1184  C     0.46049   0.90876   0.98474   0.00000  Uiso   1.00
C1185  C     0.51827   0.81459   0.62916   0.00000  Uiso   1.00
C1186  C     0.48116   0.85056   0.87100   0.00000  Uiso   1.00
C1187  C     0.51627   0.74815   0.52376   0.00000  Uiso   1.00
C1188  C     0.52434   0.80424   0.58087   0.00000  Uiso   1.00
C1189  C     0.46241   0.89754   0.93961   0.00000  Uiso   1.00
C1190  C     0.65123   0.78206   0.82474   0.00000  Uiso   1.00
C1191  C     0.34032   0.74428   0.82538   0.00000  Uiso   1.00
C1192  C     0.33912   0.73602   0.87326   0.00000  Uiso   1.00
C1193  C     0.34871   0.91652   0.73810   0.00000  Uiso   1.00
C1194  C     0.38321   0.94903   0.71373   0.00000  Uiso   1.00
C1195  C     0.47294   0.88242   0.50993   0.00000  Uiso   1.00
C1196  C     0.37793   0.99302   0.73586   0.00000  Uiso   1.00
C1197  C     0.48745   0.84420   0.99037   0.00000  Uiso   1.00
C1198  C     0.48060   0.82920   0.94729   0.00000  Uiso   1.00
C1199  C     0.50422   0.81861   0.51412   0.00000  Uiso   1.00
C1200  C     0.50505   0.77571   0.99865   0.00000  Uiso   1.00
C1201  C     0.49210   0.75986   0.95971   0.00000  Uiso   1.00
C1202  C     0.47922   0.78569   0.93443   0.00000  Uiso   1.00
H1203  H     0.52781   0.73932   0.58666   0.00000  Uiso   1.00
H1204  H     0.37414   0.74981   0.80607   0.00000  Uiso   1.00
H1205  H     0.35471   0.76384   0.89027   0.00000  Uiso   1.00
H1206  H     0.35640   0.70902   0.87256   0.00000  Uiso   1.00
H1207  H     0.63889   0.72860   0.89265   0.00000  Uiso   1.00
H1208  H     0.35181   0.91737   0.77333   0.00000  Uiso   1.00
H1209  H     0.65014   0.92484   0.73845   0.00000  Uiso   1.00
H1210  H     0.41526   0.94165   0.71406   0.00000  Uiso   1.00
H1211  H     0.38128   0.94791   0.67822   0.00000  Uiso   1.00
H1212  H     0.34622   0.66785   0.73556   0.00000  Uiso   1.00
H1213  H     0.40307   0.68250   0.71701   0.00000  Uiso   1.00
H1214  H     0.45783   0.99713   0.78682   0.00000  Uiso   1.00
H1215  H     0.38099   0.99525   0.77106   0.00000  Uiso   1.00
H1216  H     0.49026   0.72661   0.94978   0.00000  Uiso   1.00
H1217  H     0.51615   0.71524   0.51263   0.00000  Uiso   1.00
H1218  H     0.45579   0.91984   0.91970   0.00000  Uiso   1.00
H1219  H     0.46889   0.89130   0.54533   0.00000  Uiso   1.00
H1220  H     0.61801   0.77662   0.84570   0.00000  Uiso   1.00
H1221  H     0.33378   0.81060   0.84079   0.00000  Uiso   1.00
H1222  H     0.65751   0.71619   0.80930   0.00000  Uiso   1.00
O1223  O     0.50000   0.83333   0.75000   0.00000  Uiso   1.00
O1224  O     0.48784   0.79304   0.65459   0.00000  Uiso   1.00
O1225  O     0.46274   0.87058   0.84968   0.00000  Uiso   1.00
O1226  O     0.54157   0.84425   0.64606   0.00000  Uiso   1.00
O1227  O     0.50785   0.82546   0.84968   0.00000  Uiso   1.00
O1228  O     0.64859   0.78598   0.78042   0.00000  Uiso   1.00
O1229  O     0.35423   0.87672   0.71530   0.00000  Uiso   1.00
O1230  O     0.51264   0.74686   0.78214   0.00000  Uiso   1.00
O1231  O     0.47965   0.92751   0.77014   0.00000  Uiso   1.00
O1232  O     0.40745   0.79958   0.73413   0.00000  Uiso   1.00
O1233  O     0.60026   0.85939   0.71361   0.00000  Uiso   1.00
O1234  O     0.40405   0.85544   0.78213   0.00000  Uiso   1.00
O1235  O     0.58824   0.81892   0.77014   0.00000  Uiso   1.00
O1236  O     0.47093   0.73610   0.73413   0.00000  Uiso   1.00
O1237  O     0.53678   0.92286   0.71361   0.00000  Uiso   1.00
Zn1238 Zn    0.52672   0.80661   0.78734   0.00000  Uiso   1.00
Zn1239 Zn    0.46713   0.79124   0.71876   0.00000  Uiso   1.00
Zn1240 Zn    0.54389   0.86442   0.70657   0.00000  Uiso   1.00
Zn1241 Zn    0.46226   0.87106   0.78734   0.00000  Uiso   1.00
Br1242 Br    0.89609   0.68143   0.69318   0.00000  Uiso   1.00
Br1243 Br    0.87528   0.89111   0.56557   0.00000  Uiso   1.00
Br1244 Br    0.77629   0.96125   0.51157   0.00000  Uiso   1.00
Br1245 Br    0.78235   0.75657   0.89141   0.00000  Uiso   1.00
C1246  C     0.71956   0.82601   0.75967   0.00000  Uiso   1.00
C1247  C     0.85272   0.83339   0.55319   0.00000  Uiso   1.00
C1248  C     0.85713   0.76196   0.56549   0.00000  Uiso   1.00
C1249  C     0.94737   0.84085   0.74054   0.00000  Uiso   1.00
C1250  C     0.80645   0.85816   0.92014   0.00000  Uiso   1.00
C1251  C     0.99287   0.84659   0.74021   0.00000  Uiso   1.00
C1252  C     0.67419   0.82156   0.76309   0.00000  Uiso   1.00
C1253  C     0.84786   0.98930   0.73637   0.00000  Uiso   1.00
C1254  C     0.81863   0.67822   0.76296   0.00000  Uiso   1.00
C1255  C     0.82233   0.72249   0.76044   0.00000  Uiso   1.00
C1256  C     0.84336   0.94457   0.74010   0.00000  Uiso   1.00
C1257  C     0.79383   0.90876   0.98474   0.00000  Uiso   1.00
C1258  C     0.85161   0.81459   0.62916   0.00000  Uiso   1.00
C1259  C     0.81449   0.85056   0.87100   0.00000  Uiso   1.00
C1260  C     0.84960   0.74815   0.52376   0.00000  Uiso   1.00
C1261  C     0.85768   0.80424   0.58087   0.00000  Uiso   1.00
C1262  C     0.79574   0.89754   0.93961   0.00000  Uiso   1.00
C1263  C     0.98456   0.78206   0.82474   0.00000  Uiso   1.00
C1264  C     0.67366   0.74428   0.82538   0.00000  Uiso   1.00
C1265  C     0.67245   0.73602   0.87326   0.00000  Uiso   1.00
C1266  C     0.68205   0.91652   0.73810   0.00000  Uiso   1.00
C1267  C     0.71655   0.94903   0.71373   0.00000  Uiso   1.00
C1268  C     0.80628   0.88242   0.50993   0.00000  Uiso   1.00
C1269  C     0.71127   0.99302   0.73586   0.00000  Uiso   1.00
C1270  C     0.82078   0.84420   0.99037   0.00000  Uiso   1.00
C1271  C     0.81394   0.82920   0.94729   0.00000  Uiso   1.00
C1272  C     0.83756   0.81861   0.51412   0.00000  Uiso   1.00
C1273  C     0.83838   0.77571   0.99865   0.00000  Uiso   1.00
C1274  C     0.82543   0.75986   0.95971   0.00000  Uiso   1.00
C1275  C     0.81256   0.78569   0.93443   0.00000  Uiso   1.00
H1276  H     0.86114   0.73932   0.58666   0.00000  Uiso   1.00
H1277  H     0.70748   0.74981   0.80607   0.00000  Uiso   1.00
H1278  H     0.68804   0.76384   0.89027   0.00000  Uiso   1.00
H1279  H     0.68973   0.70902   0.87256   0.00000  Uiso   1.00
H1280  H     0.97223   0.72860   0.89265   0.00000  Uiso   1.00
H1281  H     0.68515   0.91737   0.77333   0.00000  Uiso   1.00
H1282  H     0.98348   0.92484   0.73845   0.00000  Uiso   1.00
H1283  H     0.74859   0.94165   0.71406   0.00000  Uiso   1.00
H1284  H     0.71461   0.94791   0.67822   0.00000  Uiso   1.00
H1285  H     0.67956   0.66785   0.73556   0.00000  Uiso   1.00
H1286  H     0.73641   0.68250   0.71701   0.00000  Uiso   1.00
H1287  H     0.79117   0.99713   0.78682   0.00000  Uiso   1.00
H1288  H     0.71432   0.99525   0.77106   0.00000  Uiso   1.00
H1289  H     0.82359   0.72661   0.94978   0.00000  Uiso   1.00
H1290  H     0.84948   0.71524   0.51263   0.00000  Uiso   1.00
H1291  H     0.78913   0.91984   0.91970   0.00000  Uiso   1.00
H1292  H     0.80223   0.89130   0.54533   0.00000  Uiso   1.00
H1293  H     0.95135   0.77662   0.84570   0.00000  Uiso   1.00
H1294  H     0.66711   0.81060   0.84079   0.00000  Uiso   1.00
H1295  H     0.99085   0.71619   0.80930   0.00000  Uiso   1.00
O1296  O     0.83333   0.83333   0.75000   0.00000  Uiso   1.00
O1297  O     0.82118   0.79304   0.65459   0.00000  Uiso   1.00
O1298  O     0.79607   0.87058   0.84968   0.00000  Uiso   1.00
O1299  O     0.87491   0.84425   0.64606   0.00000  Uiso   1.00
O1300  O     0.84118   0.82546   0.84968   0.00000  Uiso   1.00
O1301  O     0.98192   0.78598   0.78042   0.00000  Uiso   1.00
O1302  O     0.68757   0.87672   0.71530   0.00000  Uiso   1.00
O1303  O     0.84597   0.74686   0.78214   0.00000  Uiso   1.00
O1304  O     0.81298   0.92751   0.77014   0.00000  Uiso   1.00
O1305  O     0.74078   0.79958   0.73413   0.00000  Uiso   1.00
O1306  O     0.93360   0.85939   0.71361   0.00000  Uiso   1.00
O1307  O     0.73738   0.85544   0.78213   0.00000  Uiso   1.00
O1308  O     0.92158   0.81892   0.77014   0.00000  Uiso   1.00
O1309  O     0.80426   0.73610   0.73413   0.00000  Uiso   1.00
O1310  O     0.87012   0.92286   0.71361   0.00000  Uiso   1.00
Zn1311 Zn    0.86005   0.80661   0.78734   0.00000  Uiso   1.00
Zn1312 Zn    0.80046   0.79124   0.71876   0.00000  Uiso   1.00
Zn1313 Zn    0.87723   0.86442   0.70657   0.00000  Uiso   1.00
Zn1314 Zn    0.79560   0.87106   0.78734   0.00000  Uiso   1.00
loop_
_geom_bond_atom_site_label_1
_geom_bond_atom_site_label_2
_geom_bond_distance
_geom_bond_site_symmetry_2
_ccdc_geom_bond_type
Br1    C450    1.931   1_545 S
Br2    C6      1.937   .     S
Br3    C673    1.912   1_554 S
Br4    C34     1.928   .     S
C5     C11     1.443   .     S
C5     O64     1.260   .     A
C5     O66     1.269   .     A
C6     C20     1.402   .     A
C6     C31     1.424   .     A
C7     H35     1.084   .     S
C7     C19     1.384   .     A
C7     C20     1.399   .     A
C8     O65     1.286   .     A
C8     C10     1.466   .     S
C8     O67     1.276   .     A
C9     C18     1.472   .     S
C9     C21     1.405   .     A
C9     C30     1.419   .     A
C10    C84     1.350   .     S
C10    O134    1.389   .     S
C11    C156    1.350   1_455 S
C11    O206    1.392   1_455 S
C12    C15     1.454   .     S
C12    Br220   1.931   .     S
C12    C232    1.336   .     S
C13    C14     1.435   .     S
C13    C450    1.336   1_545 S
C13    H484    1.086   1_545 S
C14    O62     1.273   .     A
C14    O68     1.272   .     A
C15    O63     1.278   .     A
C15    O69     1.273   .     A
C16    C21     1.388   .     A
C16    Br660   1.912   .     S
C16    C684    1.390   .     S
C17    O58     1.279   .     A
C17    O56     1.269   .     A
C17    C20     1.460   .     S
C18    O57     1.283   .     A
C18    O59     1.289   .     A
C19    H49     1.084   .     S
C19    C689    1.397   1_554 S
C21    H50     1.083   .     S
C22    O60     1.416   .     S
C22    H52     1.111   .     S
C22    C96     1.530   .     S
C22    H126    1.117   .     S
C23    C24     1.525   .     S
C23    H36     1.111   .     S
C23    C168    1.530   1_455 S
C23    H200    1.111   1_455 S
C24    H38     1.110   .     S
C24    H37     1.111   .     S
C24    H185    1.111   1_455 S
C25    O61     1.412   .     S
C25    H40     1.116   .     S
C25    C26     1.528   .     S
C25    H187    1.114   1_455 S
C26    C28     1.526   .     S
C26    H43     1.112   .     S
C26    H42     1.112   .     S
C27    H51     1.078   .     S
C27    C673    1.390   1_554 S
C27    C686    1.412   1_554 S
C28    H47     1.111   .     S
C28    H263    1.111   .     S
C28    H264    1.109   .     S
C29    C30     1.423   .     A
C29    C684    1.412   .     S
C29    C688    1.423   .     S
C30    C34     1.420   .     A
C31    C686    1.423   1_554 S
C31    C689    1.422   1_554 S
C32    C33     1.392   .     A
C32    C688    1.422   .     S
C32    C676    1.397   .     S
C33    C34     1.388   .     A
C33    H48     1.085   .     S
H39    C97     1.111   .     S
H41    C98     1.114   .     S
H44    C466    1.111   1_545 S
H45    C466    1.109   1_545 S
H46    C232    1.086   .     S
H53    C168    1.117   1_455 S
H54    C96     1.111   .     S
O55    Zn70    1.959   .     S
O55    Zn72    1.940   .     S
O55    Zn71    1.928   .     S
O55    Zn73    1.940   .     S
O56    Zn71    1.930   .     S
O57    Zn73    1.933   .     S
O58    Zn72    1.924   .     S
O59    Zn70    1.924   .     S
O60    C84     1.392   .     S
O61    C156    1.389   1_455 S
O62    Zn70    1.922   .     S
O63    Zn73    1.930   .     S
O64    Zn71    1.938   .     S
O65    Zn72    1.942   .     S
O66    Zn73    1.932   .     S
O67    Zn70    1.932   .     S
O68    Zn71    1.938   .     S
O69    Zn72    1.930   .     S
Br74   C523    1.931   1_545 S
Br75   C79     1.937   .     S
Br76   C746    1.912   1_554 S
Br77   C107    1.928   .     S
C78    C84     1.443   .     S
C78    O137    1.260   .     A
C78    O139    1.269   .     A
C79    C93     1.402   .     A
C79    C104    1.424   .     A
C80    H108    1.084   .     S
C80    C92     1.384   .     A
C80    C93     1.399   .     A
C81    O138    1.286   .     A
C81    C83     1.466   .     S
C81    O140    1.276   .     A
C82    C91     1.472   .     S
C82    C94     1.405   .     A
C82    C103    1.419   .     A
C83    C157    1.350   .     S
C83    O207    1.389   .     S
C85    C88     1.454   .     S
C85    Br293   1.931   .     S
C85    C305    1.336   .     S
C86    C87     1.435   .     S
C86    C523    1.336   1_545 S
C86    H557    1.086   1_545 S
C87    O135    1.273   .     A
C87    O141    1.272   .     A
C88    O136    1.278   .     A
C88    O142    1.273   .     A
C89    C94     1.388   .     A
C89    Br733   1.912   .     S
C89    C757    1.390   .     S
C90    O131    1.279   .     A
C90    O129    1.269   .     A
C90    C93     1.460   .     S
C91    O130    1.283   .     A
C91    O132    1.289   .     A
C92    H122    1.084   .     S
C92    C762    1.397   1_554 S
C94    H123    1.083   .     S
C95    O133    1.416   .     S
C95    H125    1.111   .     S
C95    C169    1.530   .     S
C95    H199    1.117   .     S
C96    C97     1.525   .     S
C96    H109    1.111   .     S
C97    H111    1.110   .     S
C97    H110    1.111   .     S
C98    O134    1.412   .     S
C98    H113    1.116   .     S
C98    C99     1.528   .     S
C99    C101    1.526   .     S
C99    H116    1.112   .     S
C99    H115    1.112   .     S
C100   H124    1.078   .     S
C100   C746    1.390   1_554 S
C100   C759    1.412   1_554 S
C101   H120    1.111   .     S
C101   H336    1.111   .     S
C101   H337    1.109   .     S
C102   C103    1.423   .     A
C102   C757    1.412   .     S
C102   C761    1.423   .     S
C103   C107    1.420   .     A
C104   C759    1.423   1_554 S
C104   C762    1.422   1_554 S
C105   C106    1.392   .     A
C105   C761    1.422   .     S
C105   C749    1.397   .     S
C106   C107    1.388   .     A
C106   H121    1.085   .     S
H112   C170    1.111   .     S
H114   C171    1.114   .     S
H117   C539    1.111   1_545 S
H118   C539    1.109   1_545 S
H119   C305    1.086   .     S
H127   C169    1.111   .     S
O128   Zn143   1.959   .     S
O128   Zn145   1.940   .     S
O128   Zn144   1.928   .     S
O128   Zn146   1.940   .     S
O129   Zn144   1.930   .     S
O130   Zn146   1.933   .     S
O131   Zn145   1.924   .     S
O132   Zn143   1.924   .     S
O133   C157    1.392   .     S
O135   Zn143   1.922   .     S
O136   Zn146   1.930   .     S
O137   Zn144   1.938   .     S
O138   Zn145   1.942   .     S
O139   Zn146   1.932   .     S
O140   Zn143   1.932   .     S
O141   Zn144   1.938   .     S
O142   Zn145   1.930   .     S
Br147  C596    1.931   1_545 S
Br148  C152    1.937   .     S
Br149  C819    1.912   1_554 S
Br150  C180    1.928   .     S
C151   C157    1.443   .     S
C151   O210    1.260   .     A
C151   O212    1.269   .     A
C152   C166    1.402   .     A
C152   C177    1.424   .     A
C153   H181    1.084   .     S
C153   C165    1.384   .     A
C153   C166    1.399   .     A
C154   O211    1.286   .     A
C154   C156    1.466   .     S
C154   O213    1.276   .     A
C155   C164    1.472   .     S
C155   C167    1.405   .     A
C155   C176    1.419   .     A
C156   C11     1.350   1_655 S
C156   O61     1.389   1_655 S
C158   C161    1.454   .     S
C158   Br366   1.931   .     S
C158   C378    1.336   .     S
C159   C160    1.435   .     S
C159   C596    1.336   1_545 S
C159   H630    1.086   1_545 S
C160   O208    1.273   .     A
C160   O214    1.272   .     A
C161   O209    1.278   .     A
C161   O215    1.273   .     A
C162   C167    1.388   .     A
C162   Br806   1.912   .     S
C162   C830    1.390   .     S
C163   O204    1.279   .     A
C163   O202    1.269   .     A
C163   C166    1.460   .     S
C164   O203    1.283   .     A
C164   O205    1.289   .     A
C165   H195    1.084   .     S
C165   C835    1.397   1_554 S
C167   H196    1.083   .     S
C168   O206    1.416   .     S
C168   H198    1.111   .     S
C168   C23     1.530   1_655 S
C168   H53     1.117   1_655 S
C169   C170    1.525   .     S
C169   H182    1.111   .     S
C170   H184    1.110   .     S
C170   H183    1.111   .     S
C171   O207    1.412   .     S
C171   H186    1.116   .     S
C171   C172    1.528   .     S
C172   C174    1.526   .     S
C172   H189    1.112   .     S
C172   H188    1.112   .     S
C173   H197    1.078   .     S
C173   C819    1.390   1_554 S
C173   C832    1.412   1_554 S
C174   H193    1.111   .     S
C174   H409    1.111   .     S
C174   H410    1.109   .     S
C175   C176    1.423   .     A
C175   C830    1.412   .     S
C175   C834    1.423   .     S
C176   C180    1.420   .     A
C177   C832    1.423   1_554 S
C177   C835    1.422   1_554 S
C178   C179    1.392   .     A
C178   C834    1.422   .     S
C178   C822    1.397   .     S
C179   C180    1.388   .     A
C179   H194    1.085   .     S
H185   C24     1.111   1_655 S
H187   C25     1.114   1_655 S
H190   C612    1.111   1_545 S
H191   C612    1.109   1_545 S
H192   C378    1.086   .     S
H200   C23     1.111   1_655 S
O201   Zn216   1.959   .     S
O201   Zn218   1.940   .     S
O201   Zn217   1.928   .     S
O201   Zn219   1.940   .     S
O202   Zn217   1.930   .     S
O203   Zn219   1.933   .     S
O204   Zn218   1.924   .     S
O205   Zn216   1.924   .     S
O206   C11     1.392   1_655 S
O208   Zn216   1.922   .     S
O209   Zn219   1.930   .     S
O210   Zn217   1.938   .     S
O211   Zn218   1.942   .     S
O212   Zn219   1.932   .     S
O213   Zn216   1.932   .     S
O214   Zn217   1.938   .     S
O215   Zn218   1.930   .     S
Br221  C225    1.937   .     S
Br222  C892    1.912   1_554 S
Br223  C253    1.928   .     S
C224   C230    1.443   .     S
C224   O283    1.260   .     A
C224   O285    1.269   .     A
C225   C239    1.402   .     A
C225   C250    1.424   .     A
C226   H254    1.084   .     S
C226   C238    1.384   .     A
C226   C239    1.399   .     A
C227   O284    1.286   .     A
C227   C229    1.466   .     S
C227   O286    1.276   .     A
C228   C237    1.472   .     S
C228   C240    1.405   .     A
C228   C249    1.419   .     A
C229   C303    1.350   .     S
C229   O353    1.389   .     S
C230   C375    1.350   1_455 S
C230   O425    1.392   1_455 S
C231   C234    1.454   .     S
C231   Br439   1.931   .     S
C231   C451    1.336   .     S
C232   C233    1.435   .     S
C233   O281    1.273   .     A
C233   O287    1.272   .     A
C234   O282    1.278   .     A
C234   O288    1.273   .     A
C235   C240    1.388   .     A
C235   Br879   1.912   .     S
C235   C903    1.390   .     S
C236   O277    1.279   .     A
C236   O275    1.269   .     A
C236   C239    1.460   .     S
C237   O276    1.283   .     A
C237   O278    1.289   .     A
C238   H268    1.084   .     S
C238   C908    1.397   1_554 S
C240   H269    1.083   .     S
C241   O279    1.416   .     S
C241   H271    1.111   .     S
C241   C315    1.530   .     S
C241   H345    1.117   .     S
C242   C243    1.525   .     S
C242   H255    1.111   .     S
C242   C387    1.530   1_455 S
C242   H419    1.111   1_455 S
C243   H257    1.110   .     S
C243   H256    1.111   .     S
C243   H404    1.111   1_455 S
C244   O280    1.412   .     S
C244   H259    1.116   .     S
C244   C245    1.528   .     S
C244   H406    1.114   1_455 S
C245   C247    1.526   .     S
C245   H262    1.112   .     S
C245   H261    1.112   .     S
C246   H270    1.078   .     S
C246   C892    1.390   1_554 S
C246   C905    1.412   1_554 S
C247   H266    1.111   .     S
C247   H482    1.111   .     S
C247   H483    1.109   .     S
C248   C249    1.423   .     A
C248   C903    1.412   .     S
C248   C907    1.423   .     S
C249   C253    1.420   .     A
C250   C905    1.423   1_554 S
C250   C908    1.422   1_554 S
C251   C252    1.392   .     A
C251   C907    1.422   .     S
C251   C895    1.397   .     S
C252   C253    1.388   .     A
C252   H267    1.085   .     S
H258   C316    1.111   .     S
H260   C317    1.114   .     S
H265   C451    1.086   .     S
H272   C387    1.117   1_455 S
H273   C315    1.111   .     S
O274   Zn289   1.959   .     S
O274   Zn291   1.940   .     S
O274   Zn290   1.928   .     S
O274   Zn292   1.940   .     S
O275   Zn290   1.930   .     S
O276   Zn292   1.933   .     S
O277   Zn291   1.924   .     S
O278   Zn289   1.924   .     S
O279   C303    1.392   .     S
O280   C375    1.389   1_455 S
O281   Zn289   1.922   .     S
O282   Zn292   1.930   .     S
O283   Zn290   1.938   .     S
O284   Zn291   1.942   .     S
O285   Zn292   1.932   .     S
O286   Zn289   1.932   .     S
O287   Zn290   1.938   .     S
O288   Zn291   1.930   .     S
Br294  C298    1.937   .     S
Br295  C965    1.912   1_554 S
Br296  C326    1.928   .     S
C297   C303    1.443   .     S
C297   O356    1.260   .     A
C297   O358    1.269   .     A
C298   C312    1.402   .     A
C298   C323    1.424   .     A
C299   H327    1.084   .     S
C299   C311    1.384   .     A
C299   C312    1.399   .     A
C300   O357    1.286   .     A
C300   C302    1.466   .     S
C300   O359    1.276   .     A
C301   C310    1.472   .     S
C301   C313    1.405   .     A
C301   C322    1.419   .     A
C302   C376    1.350   .     S
C302   O426    1.389   .     S
C304   C307    1.454   .     S
C304   Br512   1.931   .     S
C304   C524    1.336   .     S
C305   C306    1.435   .     S
C306   O354    1.273   .     A
C306   O360    1.272   .     A
C307   O355    1.278   .     A
C307   O361    1.273   .     A
C308   C313    1.388   .     A
C308   Br952   1.912   .     S
C308   C976    1.390   .     S
C309   O350    1.279   .     A
C309   O348    1.269   .     A
C309   C312    1.460   .     S
C310   O349    1.283   .     A
C310   O351    1.289   .     A
C311   H341    1.084   .     S
C311   C981    1.397   1_554 S
C313   H342    1.083   .     S
C314   O352    1.416   .     S
C314   H344    1.111   .     S
C314   C388    1.530   .     S
C314   H418    1.117   .     S
C315   C316    1.525   .     S
C315   H328    1.111   .     S
C316   H330    1.110   .     S
C316   H329    1.111   .     S
C317   O353    1.412   .     S
C317   H332    1.116   .     S
C317   C318    1.528   .     S
C318   C320    1.526   .     S
C318   H335    1.112   .     S
C318   H334    1.112   .     S
C319   H343    1.078   .     S
C319   C965    1.390   1_554 S
C319   C978    1.412   1_554 S
C320   H339    1.111   .     S
C320   H555    1.111   .     S
C320   H556    1.109   .     S
C321   C322    1.423   .     A
C321   C976    1.412   .     S
C321   C980    1.423   .     S
C322   C326    1.420   .     A
C323   C978    1.423   1_554 S
C323   C981    1.422   1_554 S
C324   C325    1.392   .     A
C324   C980    1.422   .     S
C324   C968    1.397   .     S
C325   C326    1.388   .     A
C325   H340    1.085   .     S
H331   C389    1.111   .     S
H333   C390    1.114   .     S
H338   C524    1.086   .     S
H346   C388    1.111   .     S
O347   Zn362   1.959   .     S
O347   Zn364   1.940   .     S
O347   Zn363   1.928   .     S
O347   Zn365   1.940   .     S
O348   Zn363   1.930   .     S
O349   Zn365   1.933   .     S
O350   Zn364   1.924   .     S
O351   Zn362   1.924   .     S
O352   C376    1.392   .     S
O354   Zn362   1.922   .     S
O355   Zn365   1.930   .     S
O356   Zn363   1.938   .     S
O357   Zn364   1.942   .     S
O358   Zn365   1.932   .     S
O359   Zn362   1.932   .     S
O360   Zn363   1.938   .     S
O361   Zn364   1.930   .     S
Br367  C371    1.937   .     S
Br368  C1038   1.912   1_554 S
Br369  C399    1.928   .     S
C370   C376    1.443   .     S
C370   O429    1.260   .     A
C370   O431    1.269   .     A
C371   C385    1.402   .     A
C371   C396    1.424   .     A
C372   H400    1.084   .     S
C372   C384    1.384   .     A
C372   C385    1.399   .     A
C373   O430    1.286   .     A
C373   C375    1.466   .     S
C373   O432    1.276   .     A
C374   C383    1.472   .     S
C374   C386    1.405   .     A
C374   C395    1.419   .     A
C375   C230    1.350   1_655 S
C375   O280    1.389   1_655 S
C377   C380    1.454   .     S
C377   Br585   1.931   .     S
C377   C597    1.336   .     S
C378   C379    1.435   .     S
C379   O427    1.273   .     A
C379   O433    1.272   .     A
C380   O428    1.278   .     A
C380   O434    1.273   .     A
C381   C386    1.388   .     A
C381   Br1025  1.912   .     S
C381   C1049   1.390   .     S
C382   O423    1.279   .     A
C382   O421    1.269   .     A
C382   C385    1.460   .     S
C383   O422    1.283   .     A
C383   O424    1.289   .     A
C384   H414    1.084   .     S
C384   C1054   1.397   1_554 S
C386   H415    1.083   .     S
C387   O425    1.416   .     S
C387   H417    1.111   .     S
C387   C242    1.530   1_655 S
C387   H272    1.117   1_655 S
C388   C389    1.525   .     S
C388   H401    1.111   .     S
C389   H403    1.110   .     S
C389   H402    1.111   .     S
C390   O426    1.412   .     S
C390   H405    1.116   .     S
C390   C391    1.528   .     S
C391   C393    1.526   .     S
C391   H408    1.112   .     S
C391   H407    1.112   .     S
C392   H416    1.078   .     S
C392   C1038   1.390   1_554 S
C392   C1051   1.412   1_554 S
C393   H412    1.111   .     S
C393   H628    1.111   .     S
C393   H629    1.109   .     S
C394   C395    1.423   .     A
C394   C1049   1.412   .     S
C394   C1053   1.423   .     S
C395   C399    1.420   .     A
C396   C1051   1.423   1_554 S
C396   C1054   1.422   1_554 S
C397   C398    1.392   .     A
C397   C1053   1.422   .     S
C397   C1041   1.397   .     S
C398   C399    1.388   .     A
C398   H413    1.085   .     S
H404   C243    1.111   1_655 S
H406   C244    1.114   1_655 S
H411   C597    1.086   .     S
H419   C242    1.111   1_655 S
O420   Zn435   1.959   .     S
O420   Zn437   1.940   .     S
O420   Zn436   1.928   .     S
O420   Zn438   1.940   .     S
O421   Zn436   1.930   .     S
O422   Zn438   1.933   .     S
O423   Zn437   1.924   .     S
O424   Zn435   1.924   .     S
O425   C230    1.392   1_655 S
O427   Zn435   1.922   .     S
O428   Zn438   1.930   .     S
O429   Zn436   1.938   .     S
O430   Zn437   1.942   .     S
O431   Zn438   1.932   .     S
O432   Zn435   1.932   .     S
O433   Zn436   1.938   .     S
O434   Zn437   1.930   .     S
Br440  C444    1.937   .     S
Br441  C1111   1.912   1_554 S
Br442  C472    1.928   .     S
C443   C449    1.443   .     S
C443   O502    1.260   .     A
C443   O504    1.269   .     A
C444   C458    1.402   .     A
C444   C469    1.424   .     A
C445   H473    1.084   .     S
C445   C457    1.384   .     A
C445   C458    1.399   .     A
C446   O503    1.286   .     A
C446   C448    1.466   .     S
C446   O505    1.276   .     A
C447   C456    1.472   .     S
C447   C459    1.405   .     A
C447   C468    1.419   .     A
C448   C522    1.350   .     S
C448   O572    1.389   .     S
C449   C594    1.350   1_455 S
C449   O644    1.392   1_455 S
C450   C453    1.454   .     S
C450   Br1     1.931   1_565 S
C450   C13     1.336   1_565 S
C451   C452    1.435   .     S
C452   O500    1.273   .     A
C452   O506    1.272   .     A
C453   O501    1.278   .     A
C453   O507    1.273   .     A
C454   C459    1.388   .     A
C454   Br1098  1.912   .     S
C454   C1122   1.390   .     S
C455   O496    1.279   .     A
C455   O494    1.269   .     A
C455   C458    1.460   .     S
C456   O495    1.283   .     A
C456   O497    1.289   .     A
C457   H487    1.084   .     S
C457   C1127   1.397   1_554 S
C459   H488    1.083   .     S
C460   O498    1.416   .     S
C460   H490    1.111   .     S
C460   C534    1.530   .     S
C460   H564    1.117   .     S
C461   C462    1.525   .     S
C461   H474    1.111   .     S
C461   C606    1.530   1_455 S
C461   H638    1.111   1_455 S
C462   H476    1.110   .     S
C462   H475    1.111   .     S
C462   H623    1.111   1_455 S
C463   O499    1.412   .     S
C463   H478    1.116   .     S
C463   C464    1.528   .     S
C463   H625    1.114   1_455 S
C464   C466    1.526   .     S
C464   H481    1.112   .     S
C464   H480    1.112   .     S
C465   H489    1.078   .     S
C465   C1111   1.390   1_554 S
C465   C1124   1.412   1_554 S
C466   H485    1.111   .     S
C466   H44     1.111   1_565 S
C466   H45     1.109   1_565 S
C467   C468    1.423   .     A
C467   C1122   1.412   .     S
C467   C1126   1.423   .     S
C468   C472    1.420   .     A
C469   C1124   1.423   1_554 S
C469   C1127   1.422   1_554 S
C470   C471    1.392   .     A
C470   C1126   1.422   .     S
C470   C1114   1.397   .     S
C471   C472    1.388   .     A
C471   H486    1.085   .     S
H477   C535    1.111   .     S
H479   C536    1.114   .     S
H484   C13     1.086   1_565 S
H491   C606    1.117   1_455 S
H492   C534    1.111   .     S
O493   Zn508   1.959   .     S
O493   Zn510   1.940   .     S
O493   Zn509   1.928   .     S
O493   Zn511   1.940   .     S
O494   Zn509   1.930   .     S
O495   Zn511   1.933   .     S
O496   Zn510   1.924   .     S
O497   Zn508   1.924   .     S
O498   C522    1.392   .     S
O499   C594    1.389   1_455 S
O500   Zn508   1.922   .     S
O501   Zn511   1.930   .     S
O502   Zn509   1.938   .     S
O503   Zn510   1.942   .     S
O504   Zn511   1.932   .     S
O505   Zn508   1.932   .     S
O506   Zn509   1.938   .     S
O507   Zn510   1.930   .     S
Br513  C517    1.937   .     S
Br514  C1184   1.912   1_554 S
Br515  C545    1.928   .     S
C516   C522    1.443   .     S
C516   O575    1.260   .     A
C516   O577    1.269   .     A
C517   C531    1.402   .     A
C517   C542    1.424   .     A
C518   H546    1.084   .     S
C518   C530    1.384   .     A
C518   C531    1.399   .     A
C519   O576    1.286   .     A
C519   C521    1.466   .     S
C519   O578    1.276   .     A
C520   C529    1.472   .     S
C520   C532    1.405   .     A
C520   C541    1.419   .     A
C521   C595    1.350   .     S
C521   O645    1.389   .     S
C523   C526    1.454   .     S
C523   Br74    1.931   1_565 S
C523   C86     1.336   1_565 S
C524   C525    1.435   .     S
C525   O573    1.273   .     A
C525   O579    1.272   .     A
C526   O574    1.278   .     A
C526   O580    1.273   .     A
C527   C532    1.388   .     A
C527   Br1171  1.912   .     S
C527   C1195   1.390   .     S
C528   O569    1.279   .     A
C528   O567    1.269   .     A
C528   C531    1.460   .     S
C529   O568    1.283   .     A
C529   O570    1.289   .     A
C530   H560    1.084   .     S
C530   C1200   1.397   1_554 S
C532   H561    1.083   .     S
C533   O571    1.416   .     S
C533   H563    1.111   .     S
C533   C607    1.530   .     S
C533   H637    1.117   .     S
C534   C535    1.525   .     S
C534   H547    1.111   .     S
C535   H549    1.110   .     S
C535   H548    1.111   .     S
C536   O572    1.412   .     S
C536   H551    1.116   .     S
C536   C537    1.528   .     S
C537   C539    1.526   .     S
C537   H554    1.112   .     S
C537   H553    1.112   .     S
C538   H562    1.078   .     S
C538   C1184   1.390   1_554 S
C538   C1197   1.412   1_554 S
C539   H558    1.111   .     S
C539   H117    1.111   1_565 S
C539   H118    1.109   1_565 S
C540   C541    1.423   .     A
C540   C1195   1.412   .     S
C540   C1199   1.423   .     S
C541   C545    1.420   .     A
C542   C1197   1.423   1_554 S
C542   C1200   1.422   1_554 S
C543   C544    1.392   .     A
C543   C1199   1.422   .     S
C543   C1187   1.397   .     S
C544   C545    1.388   .     A
C544   H559    1.085   .     S
H550   C608    1.111   .     S
H552   C609    1.114   .     S
H557   C86     1.086   1_565 S
H565   C607    1.111   .     S
O566   Zn581   1.959   .     S
O566   Zn583   1.940   .     S
O566   Zn582   1.928   .     S
O566   Zn584   1.940   .     S
O567   Zn582   1.930   .     S
O568   Zn584   1.933   .     S
O569   Zn583   1.924   .     S
O570   Zn581   1.924   .     S
O571   C595    1.392   .     S
O573   Zn581   1.922   .     S
O574   Zn584   1.930   .     S
O575   Zn582   1.938   .     S
O576   Zn583   1.942   .     S
O577   Zn584   1.932   .     S
O578   Zn581   1.932   .     S
O579   Zn582   1.938   .     S
O580   Zn583   1.930   .     S
Br586  C590    1.937   .     S
Br587  C1257   1.912   1_554 S
Br588  C618    1.928   .     S
C589   C595    1.443   .     S
C589   O648    1.260   .     A
C589   O650    1.269   .     A
C590   C604    1.402   .     A
C590   C615    1.424   .     A
C591   H619    1.084   .     S
C591   C603    1.384   .     A
C591   C604    1.399   .     A
C592   O649    1.286   .     A
C592   C594    1.466   .     S
C592   O651    1.276   .     A
C593   C602    1.472   .     S
C593   C605    1.405   .     A
C593   C614    1.419   .     A
C594   C449    1.350   1_655 S
C594   O499    1.389   1_655 S
C596   C599    1.454   .     S
C596   Br147   1.931   1_565 S
C596   C159    1.336   1_565 S
C597   C598    1.435   .     S
C598   O646    1.273   .     A
C598   O652    1.272   .     A
C599   O647    1.278   .     A
C599   O653    1.273   .     A
C600   C605    1.388   .     A
C600   Br1244  1.912   .     S
C600   C1268   1.390   .     S
C601   O642    1.279   .     A
C601   O640    1.269   .     A
C601   C604    1.460   .     S
C602   O641    1.283   .     A
C602   O643    1.289   .     A
C603   H633    1.084   .     S
C603   C1273   1.397   1_554 S
C605   H634    1.083   .     S
C606   O644    1.416   .     S
C606   H636    1.111   .     S
C606   C461    1.530   1_655 S
C606   H491    1.117   1_655 S
C607   C608    1.525   .     S
C607   H620    1.111   .     S
C608   H622    1.110   .     S
C608   H621    1.111   .     S
C609   O645    1.412   .     S
C609   H624    1.116   .     S
C609   C610    1.528   .     S
C610   C612    1.526   .     S
C610   H627    1.112   .     S
C610   H626    1.112   .     S
C611   H635    1.078   .     S
C611   C1257   1.390   1_554 S
C611   C1270   1.412   1_554 S
C612   H631    1.111   .     S
C612   H190    1.111   1_565 S
C612   H191    1.109   1_565 S
C613   C614    1.423   .     A
C613   C1268   1.412   .     S
C613   C1272   1.423   .     S
C614   C618    1.420   .     A
C615   C1270   1.423   1_554 S
C615   C1273   1.422   1_554 S
C616   C617    1.392   .     A
C616   C1272   1.422   .     S
C616   C1260   1.397   .     S
C617   C618    1.388   .     A
C617   H632    1.085   .     S
H623   C462    1.111   1_655 S
H625   C463    1.114   1_655 S
H630   C159    1.086   1_565 S
H638   C461    1.111   1_655 S
O639   Zn654   1.959   .     S
O639   Zn656   1.940   .     S
O639   Zn655   1.928   .     S
O639   Zn657   1.940   .     S
O640   Zn655   1.930   .     S
O641   Zn657   1.933   .     S
O642   Zn656   1.924   .     S
O643   Zn654   1.924   .     S
O644   C449    1.392   1_655 S
O646   Zn654   1.922   .     S
O647   Zn657   1.930   .     S
O648   Zn655   1.938   .     S
O649   Zn656   1.942   .     S
O650   Zn657   1.932   .     S
O651   Zn654   1.932   .     S
O652   Zn655   1.938   .     S
O653   Zn656   1.930   .     S
Br658  C1107   1.931   1_545 S
Br659  C663    1.937   .     S
Br661  C691    1.928   .     S
C662   C668    1.443   .     S
C662   O721    1.260   .     A
C662   O723    1.269   .     A
C663   C677    1.402   .     A
C663   C688    1.424   .     A
C664   H692    1.084   .     S
C664   C676    1.384   .     A
C664   C677    1.399   .     A
C665   O722    1.286   .     A
C665   C667    1.466   .     S
C665   O724    1.276   .     A
C666   C675    1.472   .     S
C666   C678    1.405   .     A
C666   C687    1.419   .     A
C667   C741    1.350   .     S
C667   O791    1.389   .     S
C668   C813    1.350   1_455 S
C668   O863    1.392   1_455 S
C669   C672    1.454   .     S
C669   Br877   1.931   .     S
C669   C889    1.336   .     S
C670   C671    1.435   .     S
C670   C1107   1.336   1_545 S
C670   H1141   1.086   1_545 S
C671   O719    1.273   .     A
C671   O725    1.272   .     A
C672   O720    1.278   .     A
C672   O726    1.273   .     A
C673   C678    1.388   .     A
C673   Br3     1.912   1_556 S
C673   C27     1.390   1_556 S
C674   O715    1.279   .     A
C674   O713    1.269   .     A
C674   C677    1.460   .     S
C675   O714    1.283   .     A
C675   O716    1.289   .     A
C676   H706    1.084   .     S
C678   H707    1.083   .     S
C679   O717    1.416   .     S
C679   H709    1.111   .     S
C679   C753    1.530   .     S
C679   H783    1.117   .     S
C680   C681    1.525   .     S
C680   H693    1.111   .     S
C680   C825    1.530   1_455 S
C680   H857    1.111   1_455 S
C681   H695    1.110   .     S
C681   H694    1.111   .     S
C681   H842    1.111   1_455 S
C682   O718    1.412   .     S
C682   H697    1.116   .     S
C682   C683    1.528   .     S
C682   H844    1.114   1_455 S
C683   C685    1.526   .     S
C683   H700    1.112   .     S
C683   H699    1.112   .     S
C684   H708    1.078   .     S
C685   H704    1.111   .     S
C685   H920    1.111   .     S
C685   H921    1.109   .     S
C686   C687    1.423   .     A
C686   C27     1.412   1_556 S
C686   C31     1.423   1_556 S
C687   C691    1.420   .     A
C689   C690    1.392   .     A
C689   C31     1.422   1_556 S
C689   C19     1.397   1_556 S
C690   C691    1.388   .     A
C690   H705    1.085   .     S
H696   C754    1.111   .     S
H698   C755    1.114   .     S
H701   C1123   1.111   1_545 S
H702   C1123   1.109   1_545 S
H703   C889    1.086   .     S
H710   C825    1.117   1_455 S
H711   C753    1.111   .     S
O712   Zn727   1.959   .     S
O712   Zn729   1.940   .     S
O712   Zn728   1.928   .     S
O712   Zn730   1.940   .     S
O713   Zn728   1.930   .     S
O714   Zn730   1.933   .     S
O715   Zn729   1.924   .     S
O716   Zn727   1.924   .     S
O717   C741    1.392   .     S
O718   C813    1.389   1_455 S
O719   Zn727   1.922   .     S
O720   Zn730   1.930   .     S
O721   Zn728   1.938   .     S
O722   Zn729   1.942   .     S
O723   Zn730   1.932   .     S
O724   Zn727   1.932   .     S
O725   Zn728   1.938   .     S
O726   Zn729   1.930   .     S
Br731  C1180   1.931   1_545 S
Br732  C736    1.937   .     S
Br734  C764    1.928   .     S
C735   C741    1.443   .     S
C735   O794    1.260   .     A
C735   O796    1.269   .     A
C736   C750    1.402   .     A
C736   C761    1.424   .     A
C737   H765    1.084   .     S
C737   C749    1.384   .     A
C737   C750    1.399   .     A
C738   O795    1.286   .     A
C738   C740    1.466   .     S
C738   O797    1.276   .     A
C739   C748    1.472   .     S
C739   C751    1.405   .     A
C739   C760    1.419   .     A
C740   C814    1.350   .     S
C740   O864    1.389   .     S
C742   C745    1.454   .     S
C742   Br950   1.931   .     S
C742   C962    1.336   .     S
C743   C744    1.435   .     S
C743   C1180   1.336   1_545 S
C743   H1214   1.086   1_545 S
C744   O792    1.273   .     A
C744   O798    1.272   .     A
C745   O793    1.278   .     A
C745   O799    1.273   .     A
C746   C751    1.388   .     A
C746   Br76    1.912   1_556 S
C746   C100    1.390   1_556 S
C747   O788    1.279   .     A
C747   O786    1.269   .     A
C747   C750    1.460   .     S
C748   O787    1.283   .     A
C748   O789    1.289   .     A
C749   H779    1.084   .     S
C751   H780    1.083   .     S
C752   O790    1.416   .     S
C752   H782    1.111   .     S
C752   C826    1.530   .     S
C752   H856    1.117   .     S
C753   C754    1.525   .     S
C753   H766    1.111   .     S
C754   H768    1.110   .     S
C754   H767    1.111   .     S
C755   O791    1.412   .     S
C755   H770    1.116   .     S
C755   C756    1.528   .     S
C756   C758    1.526   .     S
C756   H773    1.112   .     S
C756   H772    1.112   .     S
C757   H781    1.078   .     S
C758   H777    1.111   .     S
C758   H993    1.111   .     S
C758   H994    1.109   .     S
C759   C760    1.423   .     A
C759   C100    1.412   1_556 S
C759   C104    1.423   1_556 S
C760   C764    1.420   .     A
C762   C763    1.392   .     A
C762   C104    1.422   1_556 S
C762   C92     1.397   1_556 S
C763   C764    1.388   .     A
C763   H778    1.085   .     S
H769   C827    1.111   .     S
H771   C828    1.114   .     S
H774   C1196   1.111   1_545 S
H775   C1196   1.109   1_545 S
H776   C962    1.086   .     S
H784   C826    1.111   .     S
O785   Zn800   1.959   .     S
O785   Zn802   1.940   .     S
O785   Zn801   1.928   .     S
O785   Zn803   1.940   .     S
O786   Zn801   1.930   .     S
O787   Zn803   1.933   .     S
O788   Zn802   1.924   .     S
O789   Zn800   1.924   .     S
O790   C814    1.392   .     S
O792   Zn800   1.922   .     S
O793   Zn803   1.930   .     S
O794   Zn801   1.938   .     S
O795   Zn802   1.942   .     S
O796   Zn803   1.932   .     S
O797   Zn800   1.932   .     S
O798   Zn801   1.938   .     S
O799   Zn802   1.930   .     S
Br804  C1253   1.931   1_545 S
Br805  C809    1.937   .     S
Br807  C837    1.928   .     S
C808   C814    1.443   .     S
C808   O867    1.260   .     A
C808   O869    1.269   .     A
C809   C823    1.402   .     A
C809   C834    1.424   .     A
C810   H838    1.084   .     S
C810   C822    1.384   .     A
C810   C823    1.399   .     A
C811   O868    1.286   .     A
C811   C813    1.466   .     S
C811   O870    1.276   .     A
C812   C821    1.472   .     S
C812   C824    1.405   .     A
C812   C833    1.419   .     A
C813   C668    1.350   1_655 S
C813   O718    1.389   1_655 S
C815   C818    1.454   .     S
C815   Br1023  1.931   .     S
C815   C1035   1.336   .     S
C816   C817    1.435   .     S
C816   C1253   1.336   1_545 S
C816   H1287   1.086   1_545 S
C817   O865    1.273   .     A
C817   O871    1.272   .     A
C818   O866    1.278   .     A
C818   O872    1.273   .     A
C819   C824    1.388   .     A
C819   Br149   1.912   1_556 S
C819   C173    1.390   1_556 S
C820   O861    1.279   .     A
C820   O859    1.269   .     A
C820   C823    1.460   .     S
C821   O860    1.283   .     A
C821   O862    1.289   .     A
C822   H852    1.084   .     S
C824   H853    1.083   .     S
C825   O863    1.416   .     S
C825   H855    1.111   .     S
C825   C680    1.530   1_655 S
C825   H710    1.117   1_655 S
C826   C827    1.525   .     S
C826   H839    1.111   .     S
C827   H841    1.110   .     S
C827   H840    1.111   .     S
C828   O864    1.412   .     S
C828   H843    1.116   .     S
C828   C829    1.528   .     S
C829   C831    1.526   .     S
C829   H846    1.112   .     S
C829   H845    1.112   .     S
C830   H854    1.078   .     S
C831   H850    1.111   .     S
C831   H1066   1.111   .     S
C831   H1067   1.109   .     S
C832   C833    1.423   .     A
C832   C173    1.412   1_556 S
C832   C177    1.423   1_556 S
C833   C837    1.420   .     A
C835   C836    1.392   .     A
C835   C177    1.422   1_556 S
C835   C165    1.397   1_556 S
C836   C837    1.388   .     A
C836   H851    1.085   .     S
H842   C681    1.111   1_655 S
H844   C682    1.114   1_655 S
H847   C1269   1.111   1_545 S
H848   C1269   1.109   1_545 S
H849   C1035   1.086   .     S
H857   C680    1.111   1_655 S
O858   Zn873   1.959   .     S
O858   Zn875   1.940   .     S
O858   Zn874   1.928   .     S
O858   Zn876   1.940   .     S
O859   Zn874   1.930   .     S
O860   Zn876   1.933   .     S
O861   Zn875   1.924   .     S
O862   Zn873   1.924   .     S
O863   C668    1.392   1_655 S
O865   Zn873   1.922   .     S
O866   Zn876   1.930   .     S
O867   Zn874   1.938   .     S
O868   Zn875   1.942   .     S
O869   Zn876   1.932   .     S
O870   Zn873   1.932   .     S
O871   Zn874   1.938   .     S
O872   Zn875   1.930   .     S
Br878  C882    1.937   .     S
Br880  C910    1.928   .     S
C881   C887    1.443   .     S
C881   O940    1.260   .     A
C881   O942    1.269   .     A
C882   C896    1.402   .     A
C882   C907    1.424   .     A
C883   H911    1.084   .     S
C883   C895    1.384   .     A
C883   C896    1.399   .     A
C884   O941    1.286   .     A
C884   C886    1.466   .     S
C884   O943    1.276   .     A
C885   C894    1.472   .     S
C885   C897    1.405   .     A
C885   C906    1.419   .     A
C886   C960    1.350   .     S
C886   O1010   1.389   .     S
C887   C1032   1.350   1_455 S
C887   O1082   1.392   1_455 S
C888   C891    1.454   .     S
C888   Br1096  1.931   .     S
C888   C1108   1.336   .     S
C889   C890    1.435   .     S
C890   O938    1.273   .     A
C890   O944    1.272   .     A
C891   O939    1.278   .     A
C891   O945    1.273   .     A
C892   C897    1.388   .     A
C892   Br222   1.912   1_556 S
C892   C246    1.390   1_556 S
C893   O934    1.279   .     A
C893   O932    1.269   .     A
C893   C896    1.460   .     S
C894   O933    1.283   .     A
C894   O935    1.289   .     A
C895   H925    1.084   .     S
C897   H926    1.083   .     S
C898   O936    1.416   .     S
C898   H928    1.111   .     S
C898   C972    1.530   .     S
C898   H1002   1.117   .     S
C899   C900    1.525   .     S
C899   H912    1.111   .     S
C899   C1044   1.530   1_455 S
C899   H1076   1.111   1_455 S
C900   H914    1.110   .     S
C900   H913    1.111   .     S
C900   H1061   1.111   1_455 S
C901   O937    1.412   .     S
C901   H916    1.116   .     S
C901   C902    1.528   .     S
C901   H1063   1.114   1_455 S
C902   C904    1.526   .     S
C902   H919    1.112   .     S
C902   H918    1.112   .     S
C903   H927    1.078   .     S
C904   H923    1.111   .     S
C904   H1139   1.111   .     S
C904   H1140   1.109   .     S
C905   C906    1.423   .     A
C905   C246    1.412   1_556 S
C905   C250    1.423   1_556 S
C906   C910    1.420   .     A
C908   C909    1.392   .     A
C908   C250    1.422   1_556 S
C908   C238    1.397   1_556 S
C909   C910    1.388   .     A
C909   H924    1.085   .     S
H915   C973    1.111   .     S
H917   C974    1.114   .     S
H922   C1108   1.086   .     S
H929   C1044   1.117   1_455 S
H930   C972    1.111   .     S
O931   Zn946   1.959   .     S
O931   Zn948   1.940   .     S
O931   Zn947   1.928   .     S
O931   Zn949   1.940   .     S
O932   Zn947   1.930   .     S
O933   Zn949   1.933   .     S
O934   Zn948   1.924   .     S
O935   Zn946   1.924   .     S
O936   C960    1.392   .     S
O937   C1032   1.389   1_455 S
O938   Zn946   1.922   .     S
O939   Zn949   1.930   .     S
O940   Zn947   1.938   .     S
O941   Zn948   1.942   .     S
O942   Zn949   1.932   .     S
O943   Zn946   1.932   .     S
O944   Zn947   1.938   .     S
O945   Zn948   1.930   .     S
Br951  C955    1.937   .     S
Br953  C983    1.928   .     S
C954   C960    1.443   .     S
C954   O1013   1.260   .     A
C954   O1015   1.269   .     A
C955   C969    1.402   .     A
C955   C980    1.424   .     A
C956   H984    1.084   .     S
C956   C968    1.384   .     A
C956   C969    1.399   .     A
C957   O1014   1.286   .     A
C957   C959    1.466   .     S
C957   O1016   1.276   .     A
C958   C967    1.472   .     S
C958   C970    1.405   .     A
C958   C979    1.419   .     A
C959   C1033   1.350   .     S
C959   O1083   1.389   .     S
C961   C964    1.454   .     S
C961   Br1169  1.931   .     S
C961   C1181   1.336   .     S
C962   C963    1.435   .     S
C963   O1011   1.273   .     A
C963   O1017   1.272   .     A
C964   O1012   1.278   .     A
C964   O1018   1.273   .     A
C965   C970    1.388   .     A
C965   Br295   1.912   1_556 S
C965   C319    1.390   1_556 S
C966   O1007   1.279   .     A
C966   O1005   1.269   .     A
C966   C969    1.460   .     S
C967   O1006   1.283   .     A
C967   O1008   1.289   .     A
C968   H998    1.084   .     S
C970   H999    1.083   .     S
C971   O1009   1.416   .     S
C971   H1001   1.111   .     S
C971   C1045   1.530   .     S
C971   H1075   1.117   .     S
C972   C973    1.525   .     S
C972   H985    1.111   .     S
C973   H987    1.110   .     S
C973   H986    1.111   .     S
C974   O1010   1.412   .     S
C974   H989    1.116   .     S
C974   C975    1.528   .     S
C975   C977    1.526   .     S
C975   H992    1.112   .     S
C975   H991    1.112   .     S
C976   H1000   1.078   .     S
C977   H996    1.111   .     S
C977   H1212   1.111   .     S
C977   H1213   1.109   .     S
C978   C979    1.423   .     A
C978   C319    1.412   1_556 S
C978   C323    1.423   1_556 S
C979   C983    1.420   .     A
C981   C982    1.392   .     A
C981   C323    1.422   1_556 S
C981   C311    1.397   1_556 S
C982   C983    1.388   .     A
C982   H997    1.085   .     S
H988   C1046   1.111   .     S
H990   C1047   1.114   .     S
H995   C1181   1.086   .     S
H1003  C1045   1.111   .     S
O1004  Zn1019  1.959   .     S
O1004  Zn1021  1.940   .     S
O1004  Zn1020  1.928   .     S
O1004  Zn1022  1.940   .     S
O1005  Zn1020  1.930   .     S
O1006  Zn1022  1.933   .     S
O1007  Zn1021  1.924   .     S
O1008  Zn1019  1.924   .     S
O1009  C1033   1.392   .     S
O1011  Zn1019  1.922   .     S
O1012  Zn1022  1.930   .     S
O1013  Zn1020  1.938   .     S
O1014  Zn1021  1.942   .     S
O1015  Zn1022  1.932   .     S
O1016  Zn1019  1.932   .     S
O1017  Zn1020  1.938   .     S
O1018  Zn1021  1.930   .     S
Br1024 C1028   1.937   .     S
Br1026 C1056   1.928   .     S
C1027  C1033   1.443   .     S
C1027  O1086   1.260   .     A
C1027  O1088   1.269   .     A
C1028  C1042   1.402   .     A
C1028  C1053   1.424   .     A
C1029  H1057   1.084   .     S
C1029  C1041   1.384   .     A
C1029  C1042   1.399   .     A
C1030  O1087   1.286   .     A
C1030  C1032   1.466   .     S
C1030  O1089   1.276   .     A
C1031  C1040   1.472   .     S
C1031  C1043   1.405   .     A
C1031  C1052   1.419   .     A
C1032  C887    1.350   1_655 S
C1032  O937    1.389   1_655 S
C1034  C1037   1.454   .     S
C1034  Br1242  1.931   .     S
C1034  C1254   1.336   .     S
C1035  C1036   1.435   .     S
C1036  O1084   1.273   .     A
C1036  O1090   1.272   .     A
C1037  O1085   1.278   .     A
C1037  O1091   1.273   .     A
C1038  C1043   1.388   .     A
C1038  Br368   1.912   1_556 S
C1038  C392    1.390   1_556 S
C1039  O1080   1.279   .     A
C1039  O1078   1.269   .     A
C1039  C1042   1.460   .     S
C1040  O1079   1.283   .     A
C1040  O1081   1.289   .     A
C1041  H1071   1.084   .     S
C1043  H1072   1.083   .     S
C1044  O1082   1.416   .     S
C1044  H1074   1.111   .     S
C1044  C899    1.530   1_655 S
C1044  H929    1.117   1_655 S
C1045  C1046   1.525   .     S
C1045  H1058   1.111   .     S
C1046  H1060   1.110   .     S
C1046  H1059   1.111   .     S
C1047  O1083   1.412   .     S
C1047  H1062   1.116   .     S
C1047  C1048   1.528   .     S
C1048  C1050   1.526   .     S
C1048  H1065   1.112   .     S
C1048  H1064   1.112   .     S
C1049  H1073   1.078   .     S
C1050  H1069   1.111   .     S
C1050  H1285   1.111   .     S
C1050  H1286   1.109   .     S
C1051  C1052   1.423   .     A
C1051  C392    1.412   1_556 S
C1051  C396    1.423   1_556 S
C1052  C1056   1.420   .     A
C1054  C1055   1.392   .     A
C1054  C396    1.422   1_556 S
C1054  C384    1.397   1_556 S
C1055  C1056   1.388   .     A
C1055  H1070   1.085   .     S
H1061  C900    1.111   1_655 S
H1063  C901    1.114   1_655 S
H1068  C1254   1.086   .     S
H1076  C899    1.111   1_655 S
O1077  Zn1092  1.959   .     S
O1077  Zn1094  1.940   .     S
O1077  Zn1093  1.928   .     S
O1077  Zn1095  1.940   .     S
O1078  Zn1093  1.930   .     S
O1079  Zn1095  1.933   .     S
O1080  Zn1094  1.924   .     S
O1081  Zn1092  1.924   .     S
O1082  C887    1.392   1_655 S
O1084  Zn1092  1.922   .     S
O1085  Zn1095  1.930   .     S
O1086  Zn1093  1.938   .     S
O1087  Zn1094  1.942   .     S
O1088  Zn1095  1.932   .     S
O1089  Zn1092  1.932   .     S
O1090  Zn1093  1.938   .     S
O1091  Zn1094  1.930   .     S
Br1097 C1101   1.937   .     S
Br1099 C1129   1.928   .     S
C1100  C1106   1.443   .     S
C1100  O1159   1.260   .     A
C1100  O1161   1.269   .     A
C1101  C1115   1.402   .     A
C1101  C1126   1.424   .     A
C1102  H1130   1.084   .     S
C1102  C1114   1.384   .     A
C1102  C1115   1.399   .     A
C1103  O1160   1.286   .     A
C1103  C1105   1.466   .     S
C1103  O1162   1.276   .     A
C1104  C1113   1.472   .     S
C1104  C1116   1.405   .     A
C1104  C1125   1.419   .     A
C1105  C1179   1.350   .     S
C1105  O1229   1.389   .     S
C1106  C1251   1.350   1_455 S
C1106  O1301   1.392   1_455 S
C1107  C1110   1.454   .     S
C1107  Br658   1.931   1_565 S
C1107  C670    1.336   1_565 S
C1108  C1109   1.435   .     S
C1109  O1157   1.273   .     A
C1109  O1163   1.272   .     A
C1110  O1158   1.278   .     A
C1110  O1164   1.273   .     A
C1111  C1116   1.388   .     A
C1111  Br441   1.912   1_556 S
C1111  C465    1.390   1_556 S
C1112  O1153   1.279   .     A
C1112  O1151   1.269   .     A
C1112  C1115   1.460   .     S
C1113  O1152   1.283   .     A
C1113  O1154   1.289   .     A
C1114  H1144   1.084   .     S
C1116  H1145   1.083   .     S
C1117  O1155   1.416   .     S
C1117  H1147   1.111   .     S
C1117  C1191   1.530   .     S
C1117  H1221   1.117   .     S
C1118  C1119   1.525   .     S
C1118  H1131   1.111   .     S
C1118  C1263   1.530   1_455 S
C1118  H1295   1.111   1_455 S
C1119  H1133   1.110   .     S
C1119  H1132   1.111   .     S
C1119  H1280   1.111   1_455 S
C1120  O1156   1.412   .     S
C1120  H1135   1.116   .     S
C1120  C1121   1.528   .     S
C1120  H1282   1.114   1_455 S
C1121  C1123   1.526   .     S
C1121  H1138   1.112   .     S
C1121  H1137   1.112   .     S
C1122  H1146   1.078   .     S
C1123  H1142   1.111   .     S
C1123  H701    1.111   1_565 S
C1123  H702    1.109   1_565 S
C1124  C1125   1.423   .     A
C1124  C465    1.412   1_556 S
C1124  C469    1.423   1_556 S
C1125  C1129   1.420   .     A
C1127  C1128   1.392   .     A
C1127  C469    1.422   1_556 S
C1127  C457    1.397   1_556 S
C1128  C1129   1.388   .     A
C1128  H1143   1.085   .     S
H1134  C1192   1.111   .     S
H1136  C1193   1.114   .     S
H1141  C670    1.086   1_565 S
H1148  C1263   1.117   1_455 S
H1149  C1191   1.111   .     S
O1150  Zn1165  1.959   .     S
O1150  Zn1167  1.940   .     S
O1150  Zn1166  1.928   .     S
O1150  Zn1168  1.940   .     S
O1151  Zn1166  1.930   .     S
O1152  Zn1168  1.933   .     S
O1153  Zn1167  1.924   .     S
O1154  Zn1165  1.924   .     S
O1155  C1179   1.392   .     S
O1156  C1251   1.389   1_455 S
O1157  Zn1165  1.922   .     S
O1158  Zn1168  1.930   .     S
O1159  Zn1166  1.938   .     S
O1160  Zn1167  1.942   .     S
O1161  Zn1168  1.932   .     S
O1162  Zn1165  1.932   .     S
O1163  Zn1166  1.938   .     S
O1164  Zn1167  1.930   .     S
Br1170 C1174   1.937   .     S
Br1172 C1202   1.928   .     S
C1173  C1179   1.443   .     S
C1173  O1232   1.260   .     A
C1173  O1234   1.269   .     A
C1174  C1188   1.402   .     A
C1174  C1199   1.424   .     A
C1175  H1203   1.084   .     S
C1175  C1187   1.384   .     A
C1175  C1188   1.399   .     A
C1176  O1233   1.286   .     A
C1176  C1178   1.466   .     S
C1176  O1235   1.276   .     A
C1177  C1186   1.472   .     S
C1177  C1189   1.405   .     A
C1177  C1198   1.419   .     A
C1178  C1252   1.350   .     S
C1178  O1302   1.389   .     S
C1180  C1183   1.454   .     S
C1180  Br731   1.931   1_565 S
C1180  C743    1.336   1_565 S
C1181  C1182   1.435   .     S
C1182  O1230   1.273   .     A
C1182  O1236   1.272   .     A
C1183  O1231   1.278   .     A
C1183  O1237   1.273   .     A
C1184  C1189   1.388   .     A
C1184  Br514   1.912   1_556 S
C1184  C538    1.390   1_556 S
C1185  O1226   1.279   .     A
C1185  O1224   1.269   .     A
C1185  C1188   1.460   .     S
C1186  O1225   1.283   .     A
C1186  O1227   1.289   .     A
C1187  H1217   1.084   .     S
C1189  H1218   1.083   .     S
C1190  O1228   1.416   .     S
C1190  H1220   1.111   .     S
C1190  C1264   1.530   .     S
C1190  H1294   1.117   .     S
C1191  C1192   1.525   .     S
C1191  H1204   1.111   .     S
C1192  H1206   1.110   .     S
C1192  H1205   1.111   .     S
C1193  O1229   1.412   .     S
C1193  H1208   1.116   .     S
C1193  C1194   1.528   .     S
C1194  C1196   1.526   .     S
C1194  H1211   1.112   .     S
C1194  H1210   1.112   .     S
C1195  H1219   1.078   .     S
C1196  H1215   1.111   .     S
C1196  H774    1.111   1_565 S
C1196  H775    1.109   1_565 S
C1197  C1198   1.423   .     A
C1197  C538    1.412   1_556 S
C1197  C542    1.423   1_556 S
C1198  C1202   1.420   .     A
C1200  C1201   1.392   .     A
C1200  C542    1.422   1_556 S
C1200  C530    1.397   1_556 S
C1201  C1202   1.388   .     A
C1201  H1216   1.085   .     S
H1207  C1265   1.111   .     S
H1209  C1266   1.114   .     S
H1214  C743    1.086   1_565 S
H1222  C1264   1.111   .     S
O1223  Zn1238  1.959   .     S
O1223  Zn1240  1.940   .     S
O1223  Zn1239  1.928   .     S
O1223  Zn1241  1.940   .     S
O1224  Zn1239  1.930   .     S
O1225  Zn1241  1.933   .     S
O1226  Zn1240  1.924   .     S
O1227  Zn1238  1.924   .     S
O1228  C1252   1.392   .     S
O1230  Zn1238  1.922   .     S
O1231  Zn1241  1.930   .     S
O1232  Zn1239  1.938   .     S
O1233  Zn1240  1.942   .     S
O1234  Zn1241  1.932   .     S
O1235  Zn1238  1.932   .     S
O1236  Zn1239  1.938   .     S
O1237  Zn1240  1.930   .     S
Br1243 C1247   1.937   .     S
Br1245 C1275   1.928   .     S
C1246  C1252   1.443   .     S
C1246  O1305   1.260   .     A
C1246  O1307   1.269   .     A
C1247  C1261   1.402   .     A
C1247  C1272   1.424   .     A
C1248  H1276   1.084   .     S
C1248  C1260   1.384   .     A
C1248  C1261   1.399   .     A
C1249  O1306   1.286   .     A
C1249  C1251   1.466   .     S
C1249  O1308   1.276   .     A
C1250  C1259   1.472   .     S
C1250  C1262   1.405   .     A
C1250  C1271   1.419   .     A
C1251  C1106   1.350   1_655 S
C1251  O1156   1.389   1_655 S
C1253  C1256   1.454   .     S
C1253  Br804   1.931   1_565 S
C1253  C816    1.336   1_565 S
C1254  C1255   1.435   .     S
C1255  O1303   1.273   .     A
C1255  O1309   1.272   .     A
C1256  O1304   1.278   .     A
C1256  O1310   1.273   .     A
C1257  C1262   1.388   .     A
C1257  Br587   1.912   1_556 S
C1257  C611    1.390   1_556 S
C1258  O1299   1.279   .     A
C1258  O1297   1.269   .     A
C1258  C1261   1.460   .     S
C1259  O1298   1.283   .     A
C1259  O1300   1.289   .     A
C1260  H1290   1.084   .     S
C1262  H1291   1.083   .     S
C1263  O1301   1.416   .     S
C1263  H1293   1.111   .     S
C1263  C1118   1.530   1_655 S
C1263  H1148   1.117   1_655 S
C1264  C1265   1.525   .     S
C1264  H1277   1.111   .     S
C1265  H1279   1.110   .     S
C1265  H1278   1.111   .     S
C1266  O1302   1.412   .     S
C1266  H1281   1.116   .     S
C1266  C1267   1.528   .     S
C1267  C1269   1.526   .     S
C1267  H1284   1.112   .     S
C1267  H1283   1.112   .     S
C1268  H1292   1.078   .     S
C1269  H1288   1.111   .     S
C1269  H847    1.111   1_565 S
C1269  H848    1.109   1_565 S
C1270  C1271   1.423   .     A
C1270  C611    1.412   1_556 S
C1270  C615    1.423   1_556 S
C1271  C1275   1.420   .     A
C1273  C1274   1.392   .     A
C1273  C615    1.422   1_556 S
C1273  C603    1.397   1_556 S
C1274  C1275   1.388   .     A
C1274  H1289   1.085   .     S
H1280  C1119   1.111   1_655 S
H1282  C1120   1.114   1_655 S
H1287  C816    1.086   1_565 S
H1295  C1118   1.111   1_655 S
O1296  Zn1311  1.959   .     S
O1296  Zn1313  1.940   .     S
O1296  Zn1312  1.928   .     S
O1296  Zn1314  1.940   .     S
O1297  Zn1312  1.930   .     S
O1298  Zn1314  1.933   .     S
O1299  Zn1313  1.924   .     S
O1300  Zn1311  1.924   .     S
O1301  C1106   1.392   1_655 S
O1303  Zn1311  1.922   .     S
O1304  Zn1314  1.930   .     S
O1305  Zn1312  1.938   .     S
O1306  Zn1313  1.942   .     S
O1307  Zn1314  1.932   .     S
O1308  Zn1311  1.932   .     S
O1309  Zn1312  1.938   .     S
O1310  Zn1313  1.930   .     S
