data_str_m3_o1_o1_pcu_sym.20
_audit_creation_date              2020-01-03
_audit_creation_method            'Materials Studio'
_symmetry_space_group_name_H-M    'P1'
_symmetry_Int_Tables_number       1
_symmetry_cell_setting            triclinic
loop_
_symmetry_equiv_pos_as_xyz
  x,y,z
_cell_length_a                    30.7816
_cell_length_b                    29.8721
_cell_length_c                    29.7671
_cell_angle_alpha                 90.0000
_cell_angle_beta                  90.0000
_cell_angle_gamma                 90.0000
loop_
_atom_site_label
_atom_site_type_symbol
_atom_site_fract_x
_atom_site_fract_y
_atom_site_fract_z
_atom_site_U_iso_or_equiv
_atom_site_adp_type
_atom_site_occupancy
Br1    Br    0.00000   0.34564   0.05523   0.00000  Uiso   1.00
Br2    Br    0.00000   0.15436   0.27811   0.00000  Uiso   1.00
Br3    Br    0.00000   0.15436   0.05523   0.00000  Uiso   1.00
Br4    Br    0.00000   0.34564   0.27811   0.00000  Uiso   1.00
Br5    Br    0.25000   0.09564   0.05523   0.00000  Uiso   1.00
Br6    Br    0.25000   0.40436   0.27811   0.00000  Uiso   1.00
Br7    Br    0.25000   0.40436   0.05523   0.00000  Uiso   1.00
Br8    Br    0.25000   0.09564   0.27811   0.00000  Uiso   1.00
C9     C     0.05999   0.19004   0.16667   0.00000  Uiso   1.00
C10    C     0.00000   0.21059   0.30943   0.00000  Uiso   1.00
C11    C     0.00000   0.21059   0.02391   0.00000  Uiso   1.00
C12    C     0.00000   0.28941   0.30943   0.00000  Uiso   1.00
C13    C     0.25000   0.03941   0.02391   0.00000  Uiso   1.00
C14    C     0.25000   0.46059   0.30943   0.00000  Uiso   1.00
C15    C     0.25000   0.46059   0.02391   0.00000  Uiso   1.00
C16    C     0.25000   0.03941   0.30943   0.00000  Uiso   1.00
C17    C     0.39090   0.14103   0.12571   0.00000  Uiso   1.00
C18    C     0.10910   0.35897   0.20763   0.00000  Uiso   1.00
C19    C     0.10910   0.35897   0.12571   0.00000  Uiso   1.00
C20    C     0.44001   0.30996   0.16667   0.00000  Uiso   1.00
C21    C     0.39090   0.14103   0.20763   0.00000  Uiso   1.00
C22    C     0.10910   0.14103   0.20763   0.00000  Uiso   1.00
C23    C     0.39090   0.35897   0.12571   0.00000  Uiso   1.00
C24    C     0.39090   0.35897   0.20763   0.00000  Uiso   1.00
C25    C     0.10910   0.14103   0.12571   0.00000  Uiso   1.00
C26    C     0.14090   0.39103   0.12571   0.00000  Uiso   1.00
C27    C     0.35910   0.10897   0.20763   0.00000  Uiso   1.00
C28    C     0.35910   0.10897   0.12571   0.00000  Uiso   1.00
C29    C     0.14090   0.39103   0.20763   0.00000  Uiso   1.00
C30    C     0.35910   0.39103   0.20763   0.00000  Uiso   1.00
C31    C     0.44001   0.19004   0.16667   0.00000  Uiso   1.00
C32    C     0.14090   0.10897   0.12571   0.00000  Uiso   1.00
C33    C     0.14090   0.10897   0.20763   0.00000  Uiso   1.00
C34    C     0.35910   0.39103   0.12571   0.00000  Uiso   1.00
C35    C     0.09319   0.34306   0.16667   0.00000  Uiso   1.00
C36    C     0.40681   0.15694   0.16667   0.00000  Uiso   1.00
C37    C     0.40681   0.34306   0.16667   0.00000  Uiso   1.00
C38    C     0.09319   0.15694   0.16667   0.00000  Uiso   1.00
C39    C     0.34319   0.09306   0.16667   0.00000  Uiso   1.00
C40    C     0.15681   0.40694   0.16667   0.00000  Uiso   1.00
C41    C     0.15681   0.09306   0.16667   0.00000  Uiso   1.00
C42    C     0.05999   0.30996   0.16667   0.00000  Uiso   1.00
C43    C     0.34319   0.40694   0.16667   0.00000  Uiso   1.00
C44    C     0.30999   0.44004   0.16667   0.00000  Uiso   1.00
C45    C     0.19001   0.05996   0.16667   0.00000  Uiso   1.00
C46    C     0.19001   0.44004   0.16667   0.00000  Uiso   1.00
C47    C     0.30999   0.05996   0.16667   0.00000  Uiso   1.00
C48    C     0.00000   0.28941   0.02391   0.00000  Uiso   1.00
H49    H     0.40287   0.15320   0.09374   0.00000  Uiso   1.00
H50    H     0.34713   0.09680   0.23959   0.00000  Uiso   1.00
H51    H     0.34713   0.09680   0.09374   0.00000  Uiso   1.00
H52    H     0.15287   0.40320   0.23959   0.00000  Uiso   1.00
H53    H     0.34713   0.40320   0.23959   0.00000  Uiso   1.00
H54    H     0.15287   0.09680   0.09374   0.00000  Uiso   1.00
H55    H     0.15287   0.09680   0.23959   0.00000  Uiso   1.00
H56    H     0.34713   0.40320   0.09374   0.00000  Uiso   1.00
H57    H     0.09713   0.34680   0.23959   0.00000  Uiso   1.00
H58    H     0.09713   0.34680   0.09374   0.00000  Uiso   1.00
H59    H     0.40287   0.15320   0.23959   0.00000  Uiso   1.00
H60    H     0.09713   0.15320   0.23959   0.00000  Uiso   1.00
H61    H     0.40287   0.34680   0.09374   0.00000  Uiso   1.00
H62    H     0.40287   0.34680   0.23959   0.00000  Uiso   1.00
H63    H     0.09713   0.15320   0.09374   0.00000  Uiso   1.00
H64    H     0.15287   0.40320   0.09374   0.00000  Uiso   1.00
N65    N     0.00000   0.25000   0.28573   0.00000  Uiso   1.00
N66    N     0.00000   0.25000   0.04760   0.00000  Uiso   1.00
N67    N     0.25000   0.00000   0.28573   0.00000  Uiso   1.00
N68    N     0.25000   0.00000   0.04760   0.00000  Uiso   1.00
O69    O     0.04581   0.20419   0.20487   0.00000  Uiso   1.00
O70    O     0.20420   0.04581   0.12846   0.00000  Uiso   1.00
O71    O     0.20420   0.04581   0.20487   0.00000  Uiso   1.00
O72    O     0.29581   0.45419   0.12846   0.00000  Uiso   1.00
O73    O     0.20420   0.45419   0.12846   0.00000  Uiso   1.00
O74    O     0.29581   0.04581   0.20487   0.00000  Uiso   1.00
O75    O     0.29581   0.04581   0.12846   0.00000  Uiso   1.00
O76    O     0.20420   0.45419   0.20487   0.00000  Uiso   1.00
O77    O     0.45420   0.29581   0.12846   0.00000  Uiso   1.00
O78    O     0.45420   0.29581   0.20487   0.00000  Uiso   1.00
O79    O     0.04581   0.20419   0.12846   0.00000  Uiso   1.00
O80    O     0.45420   0.20419   0.12846   0.00000  Uiso   1.00
O81    O     0.04581   0.29581   0.20487   0.00000  Uiso   1.00
O82    O     0.04581   0.29581   0.12846   0.00000  Uiso   1.00
O83    O     0.45420   0.20419   0.20487   0.00000  Uiso   1.00
O84    O     0.29581   0.45419   0.20487   0.00000  Uiso   1.00
Zn85   Zn    0.00000   0.25000   0.21771   0.00000  Uiso   1.00
Zn86   Zn    0.00000   0.25000   0.11563   0.00000  Uiso   1.00
Zn87   Zn    0.25000   0.00000   0.21771   0.00000  Uiso   1.00
Zn88   Zn    0.25000   0.00000   0.11563   0.00000  Uiso   1.00
Br89   Br    0.50000   0.34564   0.05523   0.00000  Uiso   1.00
Br90   Br    0.50000   0.15436   0.27811   0.00000  Uiso   1.00
Br91   Br    0.50000   0.15436   0.05523   0.00000  Uiso   1.00
Br92   Br    0.50000   0.34564   0.27811   0.00000  Uiso   1.00
Br93   Br    0.75000   0.09564   0.05523   0.00000  Uiso   1.00
Br94   Br    0.75000   0.40436   0.27811   0.00000  Uiso   1.00
Br95   Br    0.75000   0.40436   0.05523   0.00000  Uiso   1.00
Br96   Br    0.75000   0.09564   0.27811   0.00000  Uiso   1.00
C97    C     0.55999   0.19004   0.16667   0.00000  Uiso   1.00
C98    C     0.50000   0.21059   0.30943   0.00000  Uiso   1.00
C99    C     0.50000   0.21059   0.02391   0.00000  Uiso   1.00
C100   C     0.50000   0.28941   0.30943   0.00000  Uiso   1.00
C101   C     0.75000   0.03941   0.02391   0.00000  Uiso   1.00
C102   C     0.75000   0.46059   0.30943   0.00000  Uiso   1.00
C103   C     0.75000   0.46059   0.02391   0.00000  Uiso   1.00
C104   C     0.75000   0.03941   0.30943   0.00000  Uiso   1.00
C105   C     0.89090   0.14103   0.12571   0.00000  Uiso   1.00
C106   C     0.60910   0.35897   0.20763   0.00000  Uiso   1.00
C107   C     0.60910   0.35897   0.12571   0.00000  Uiso   1.00
C108   C     0.94001   0.30996   0.16667   0.00000  Uiso   1.00
C109   C     0.89090   0.14103   0.20763   0.00000  Uiso   1.00
C110   C     0.60910   0.14103   0.20763   0.00000  Uiso   1.00
C111   C     0.89090   0.35897   0.12571   0.00000  Uiso   1.00
C112   C     0.89090   0.35897   0.20763   0.00000  Uiso   1.00
C113   C     0.60910   0.14103   0.12571   0.00000  Uiso   1.00
C114   C     0.64090   0.39103   0.12571   0.00000  Uiso   1.00
C115   C     0.85910   0.10897   0.20763   0.00000  Uiso   1.00
C116   C     0.85910   0.10897   0.12571   0.00000  Uiso   1.00
C117   C     0.64090   0.39103   0.20763   0.00000  Uiso   1.00
C118   C     0.85910   0.39103   0.20763   0.00000  Uiso   1.00
C119   C     0.94001   0.19004   0.16667   0.00000  Uiso   1.00
C120   C     0.64090   0.10897   0.12571   0.00000  Uiso   1.00
C121   C     0.64090   0.10897   0.20763   0.00000  Uiso   1.00
C122   C     0.85910   0.39103   0.12571   0.00000  Uiso   1.00
C123   C     0.59319   0.34306   0.16667   0.00000  Uiso   1.00
C124   C     0.90681   0.15694   0.16667   0.00000  Uiso   1.00
C125   C     0.90681   0.34306   0.16667   0.00000  Uiso   1.00
C126   C     0.59319   0.15694   0.16667   0.00000  Uiso   1.00
C127   C     0.84319   0.09306   0.16667   0.00000  Uiso   1.00
C128   C     0.65681   0.40694   0.16667   0.00000  Uiso   1.00
C129   C     0.65681   0.09306   0.16667   0.00000  Uiso   1.00
C130   C     0.55999   0.30996   0.16667   0.00000  Uiso   1.00
C131   C     0.84319   0.40694   0.16667   0.00000  Uiso   1.00
C132   C     0.80999   0.44004   0.16667   0.00000  Uiso   1.00
C133   C     0.69001   0.05996   0.16667   0.00000  Uiso   1.00
C134   C     0.69001   0.44004   0.16667   0.00000  Uiso   1.00
C135   C     0.80999   0.05996   0.16667   0.00000  Uiso   1.00
C136   C     0.50000   0.28941   0.02391   0.00000  Uiso   1.00
H137   H     0.90287   0.15320   0.09374   0.00000  Uiso   1.00
H138   H     0.84713   0.09680   0.23959   0.00000  Uiso   1.00
H139   H     0.84713   0.09680   0.09374   0.00000  Uiso   1.00
H140   H     0.65287   0.40320   0.23959   0.00000  Uiso   1.00
H141   H     0.84713   0.40320   0.23959   0.00000  Uiso   1.00
H142   H     0.65287   0.09680   0.09374   0.00000  Uiso   1.00
H143   H     0.65287   0.09680   0.23959   0.00000  Uiso   1.00
H144   H     0.84713   0.40320   0.09374   0.00000  Uiso   1.00
H145   H     0.59713   0.34680   0.23959   0.00000  Uiso   1.00
H146   H     0.59713   0.34680   0.09374   0.00000  Uiso   1.00
H147   H     0.90287   0.15320   0.23959   0.00000  Uiso   1.00
H148   H     0.59713   0.15320   0.23959   0.00000  Uiso   1.00
H149   H     0.90287   0.34680   0.09374   0.00000  Uiso   1.00
H150   H     0.90287   0.34680   0.23959   0.00000  Uiso   1.00
H151   H     0.59713   0.15320   0.09374   0.00000  Uiso   1.00
H152   H     0.65287   0.40320   0.09374   0.00000  Uiso   1.00
N153   N     0.50000   0.25000   0.28573   0.00000  Uiso   1.00
N154   N     0.50000   0.25000   0.04760   0.00000  Uiso   1.00
N155   N     0.75000   0.00000   0.28573   0.00000  Uiso   1.00
N156   N     0.75000   0.00000   0.04760   0.00000  Uiso   1.00
O157   O     0.54581   0.20419   0.20487   0.00000  Uiso   1.00
O158   O     0.70420   0.04581   0.12846   0.00000  Uiso   1.00
O159   O     0.70420   0.04581   0.20487   0.00000  Uiso   1.00
O160   O     0.79581   0.45419   0.12846   0.00000  Uiso   1.00
O161   O     0.70420   0.45419   0.12846   0.00000  Uiso   1.00
O162   O     0.79581   0.04581   0.20487   0.00000  Uiso   1.00
O163   O     0.79581   0.04581   0.12846   0.00000  Uiso   1.00
O164   O     0.70420   0.45419   0.20487   0.00000  Uiso   1.00
O165   O     0.95420   0.29581   0.12846   0.00000  Uiso   1.00
O166   O     0.95420   0.29581   0.20487   0.00000  Uiso   1.00
O167   O     0.54581   0.20419   0.12846   0.00000  Uiso   1.00
O168   O     0.95420   0.20419   0.12846   0.00000  Uiso   1.00
O169   O     0.54581   0.29581   0.20487   0.00000  Uiso   1.00
O170   O     0.54581   0.29581   0.12846   0.00000  Uiso   1.00
O171   O     0.95420   0.20419   0.20487   0.00000  Uiso   1.00
O172   O     0.79581   0.45419   0.20487   0.00000  Uiso   1.00
Zn173  Zn    0.50000   0.25000   0.21771   0.00000  Uiso   1.00
Zn174  Zn    0.50000   0.25000   0.11563   0.00000  Uiso   1.00
Zn175  Zn    0.75000   0.00000   0.21771   0.00000  Uiso   1.00
Zn176  Zn    0.75000   0.00000   0.11563   0.00000  Uiso   1.00
Br177  Br    0.00000   0.84564   0.05523   0.00000  Uiso   1.00
Br178  Br    0.00000   0.65436   0.27811   0.00000  Uiso   1.00
Br179  Br    0.00000   0.65436   0.05523   0.00000  Uiso   1.00
Br180  Br    0.00000   0.84564   0.27811   0.00000  Uiso   1.00
Br181  Br    0.25000   0.59564   0.05523   0.00000  Uiso   1.00
Br182  Br    0.25000   0.90436   0.27811   0.00000  Uiso   1.00
Br183  Br    0.25000   0.90436   0.05523   0.00000  Uiso   1.00
Br184  Br    0.25000   0.59564   0.27811   0.00000  Uiso   1.00
C185   C     0.05999   0.69004   0.16667   0.00000  Uiso   1.00
C186   C     0.00000   0.71059   0.30943   0.00000  Uiso   1.00
C187   C     0.00000   0.71059   0.02391   0.00000  Uiso   1.00
C188   C     0.00000   0.78941   0.30943   0.00000  Uiso   1.00
C189   C     0.25000   0.53941   0.02391   0.00000  Uiso   1.00
C190   C     0.25000   0.96059   0.30943   0.00000  Uiso   1.00
C191   C     0.25000   0.96059   0.02391   0.00000  Uiso   1.00
C192   C     0.25000   0.53941   0.30943   0.00000  Uiso   1.00
C193   C     0.39090   0.64103   0.12571   0.00000  Uiso   1.00
C194   C     0.10910   0.85897   0.20763   0.00000  Uiso   1.00
C195   C     0.10910   0.85897   0.12571   0.00000  Uiso   1.00
C196   C     0.44001   0.80996   0.16667   0.00000  Uiso   1.00
C197   C     0.39090   0.64103   0.20763   0.00000  Uiso   1.00
C198   C     0.10910   0.64103   0.20763   0.00000  Uiso   1.00
C199   C     0.39090   0.85897   0.12571   0.00000  Uiso   1.00
C200   C     0.39090   0.85897   0.20763   0.00000  Uiso   1.00
C201   C     0.10910   0.64103   0.12571   0.00000  Uiso   1.00
C202   C     0.14090   0.89103   0.12571   0.00000  Uiso   1.00
C203   C     0.35910   0.60897   0.20763   0.00000  Uiso   1.00
C204   C     0.35910   0.60897   0.12571   0.00000  Uiso   1.00
C205   C     0.14090   0.89103   0.20763   0.00000  Uiso   1.00
C206   C     0.35910   0.89103   0.20763   0.00000  Uiso   1.00
C207   C     0.44001   0.69004   0.16667   0.00000  Uiso   1.00
C208   C     0.14090   0.60897   0.12571   0.00000  Uiso   1.00
C209   C     0.14090   0.60897   0.20763   0.00000  Uiso   1.00
C210   C     0.35910   0.89103   0.12571   0.00000  Uiso   1.00
C211   C     0.09319   0.84306   0.16667   0.00000  Uiso   1.00
C212   C     0.40681   0.65694   0.16667   0.00000  Uiso   1.00
C213   C     0.40681   0.84306   0.16667   0.00000  Uiso   1.00
C214   C     0.09319   0.65694   0.16667   0.00000  Uiso   1.00
C215   C     0.34319   0.59306   0.16667   0.00000  Uiso   1.00
C216   C     0.15681   0.90694   0.16667   0.00000  Uiso   1.00
C217   C     0.15681   0.59306   0.16667   0.00000  Uiso   1.00
C218   C     0.05999   0.80996   0.16667   0.00000  Uiso   1.00
C219   C     0.34319   0.90694   0.16667   0.00000  Uiso   1.00
C220   C     0.30999   0.94004   0.16667   0.00000  Uiso   1.00
C221   C     0.19001   0.55996   0.16667   0.00000  Uiso   1.00
C222   C     0.19001   0.94004   0.16667   0.00000  Uiso   1.00
C223   C     0.30999   0.55996   0.16667   0.00000  Uiso   1.00
C224   C     0.00000   0.78941   0.02391   0.00000  Uiso   1.00
H225   H     0.40287   0.65320   0.09374   0.00000  Uiso   1.00
H226   H     0.34713   0.59680   0.23959   0.00000  Uiso   1.00
H227   H     0.34713   0.59680   0.09374   0.00000  Uiso   1.00
H228   H     0.15287   0.90320   0.23959   0.00000  Uiso   1.00
H229   H     0.34713   0.90320   0.23959   0.00000  Uiso   1.00
H230   H     0.15287   0.59680   0.09374   0.00000  Uiso   1.00
H231   H     0.15287   0.59680   0.23959   0.00000  Uiso   1.00
H232   H     0.34713   0.90320   0.09374   0.00000  Uiso   1.00
H233   H     0.09713   0.84680   0.23959   0.00000  Uiso   1.00
H234   H     0.09713   0.84680   0.09374   0.00000  Uiso   1.00
H235   H     0.40287   0.65320   0.23959   0.00000  Uiso   1.00
H236   H     0.09713   0.65320   0.23959   0.00000  Uiso   1.00
H237   H     0.40287   0.84680   0.09374   0.00000  Uiso   1.00
H238   H     0.40287   0.84680   0.23959   0.00000  Uiso   1.00
H239   H     0.09713   0.65320   0.09374   0.00000  Uiso   1.00
H240   H     0.15287   0.90320   0.09374   0.00000  Uiso   1.00
N241   N     0.00000   0.75000   0.28573   0.00000  Uiso   1.00
N242   N     0.00000   0.75000   0.04760   0.00000  Uiso   1.00
N243   N     0.25000   0.50000   0.28573   0.00000  Uiso   1.00
N244   N     0.25000   0.50000   0.04760   0.00000  Uiso   1.00
O245   O     0.04581   0.70419   0.20487   0.00000  Uiso   1.00
O246   O     0.20420   0.54581   0.12846   0.00000  Uiso   1.00
O247   O     0.20420   0.54581   0.20487   0.00000  Uiso   1.00
O248   O     0.29581   0.95419   0.12846   0.00000  Uiso   1.00
O249   O     0.20420   0.95419   0.12846   0.00000  Uiso   1.00
O250   O     0.29581   0.54581   0.20487   0.00000  Uiso   1.00
O251   O     0.29581   0.54581   0.12846   0.00000  Uiso   1.00
O252   O     0.20420   0.95419   0.20487   0.00000  Uiso   1.00
O253   O     0.45420   0.79581   0.12846   0.00000  Uiso   1.00
O254   O     0.45420   0.79581   0.20487   0.00000  Uiso   1.00
O255   O     0.04581   0.70419   0.12846   0.00000  Uiso   1.00
O256   O     0.45420   0.70419   0.12846   0.00000  Uiso   1.00
O257   O     0.04581   0.79581   0.20487   0.00000  Uiso   1.00
O258   O     0.04581   0.79581   0.12846   0.00000  Uiso   1.00
O259   O     0.45420   0.70419   0.20487   0.00000  Uiso   1.00
O260   O     0.29581   0.95419   0.20487   0.00000  Uiso   1.00
Zn261  Zn    0.00000   0.75000   0.21771   0.00000  Uiso   1.00
Zn262  Zn    0.00000   0.75000   0.11563   0.00000  Uiso   1.00
Zn263  Zn    0.25000   0.50000   0.21771   0.00000  Uiso   1.00
Zn264  Zn    0.25000   0.50000   0.11563   0.00000  Uiso   1.00
Br265  Br    0.50000   0.84564   0.05523   0.00000  Uiso   1.00
Br266  Br    0.50000   0.65436   0.27811   0.00000  Uiso   1.00
Br267  Br    0.50000   0.65436   0.05523   0.00000  Uiso   1.00
Br268  Br    0.50000   0.84564   0.27811   0.00000  Uiso   1.00
Br269  Br    0.75000   0.59564   0.05523   0.00000  Uiso   1.00
Br270  Br    0.75000   0.90436   0.27811   0.00000  Uiso   1.00
Br271  Br    0.75000   0.90436   0.05523   0.00000  Uiso   1.00
Br272  Br    0.75000   0.59564   0.27811   0.00000  Uiso   1.00
C273   C     0.55999   0.69004   0.16667   0.00000  Uiso   1.00
C274   C     0.50000   0.71059   0.30943   0.00000  Uiso   1.00
C275   C     0.50000   0.71059   0.02391   0.00000  Uiso   1.00
C276   C     0.50000   0.78941   0.30943   0.00000  Uiso   1.00
C277   C     0.75000   0.53941   0.02391   0.00000  Uiso   1.00
C278   C     0.75000   0.96059   0.30943   0.00000  Uiso   1.00
C279   C     0.75000   0.96059   0.02391   0.00000  Uiso   1.00
C280   C     0.75000   0.53941   0.30943   0.00000  Uiso   1.00
C281   C     0.89090   0.64103   0.12571   0.00000  Uiso   1.00
C282   C     0.60910   0.85897   0.20763   0.00000  Uiso   1.00
C283   C     0.60910   0.85897   0.12571   0.00000  Uiso   1.00
C284   C     0.94001   0.80996   0.16667   0.00000  Uiso   1.00
C285   C     0.89090   0.64103   0.20763   0.00000  Uiso   1.00
C286   C     0.60910   0.64103   0.20763   0.00000  Uiso   1.00
C287   C     0.89090   0.85897   0.12571   0.00000  Uiso   1.00
C288   C     0.89090   0.85897   0.20763   0.00000  Uiso   1.00
C289   C     0.60910   0.64103   0.12571   0.00000  Uiso   1.00
C290   C     0.64090   0.89103   0.12571   0.00000  Uiso   1.00
C291   C     0.85910   0.60897   0.20763   0.00000  Uiso   1.00
C292   C     0.85910   0.60897   0.12571   0.00000  Uiso   1.00
C293   C     0.64090   0.89103   0.20763   0.00000  Uiso   1.00
C294   C     0.85910   0.89103   0.20763   0.00000  Uiso   1.00
C295   C     0.94001   0.69004   0.16667   0.00000  Uiso   1.00
C296   C     0.64090   0.60897   0.12571   0.00000  Uiso   1.00
C297   C     0.64090   0.60897   0.20763   0.00000  Uiso   1.00
C298   C     0.85910   0.89103   0.12571   0.00000  Uiso   1.00
C299   C     0.59319   0.84306   0.16667   0.00000  Uiso   1.00
C300   C     0.90681   0.65694   0.16667   0.00000  Uiso   1.00
C301   C     0.90681   0.84306   0.16667   0.00000  Uiso   1.00
C302   C     0.59319   0.65694   0.16667   0.00000  Uiso   1.00
C303   C     0.84319   0.59306   0.16667   0.00000  Uiso   1.00
C304   C     0.65681   0.90694   0.16667   0.00000  Uiso   1.00
C305   C     0.65681   0.59306   0.16667   0.00000  Uiso   1.00
C306   C     0.55999   0.80996   0.16667   0.00000  Uiso   1.00
C307   C     0.84319   0.90694   0.16667   0.00000  Uiso   1.00
C308   C     0.80999   0.94004   0.16667   0.00000  Uiso   1.00
C309   C     0.69001   0.55996   0.16667   0.00000  Uiso   1.00
C310   C     0.69001   0.94004   0.16667   0.00000  Uiso   1.00
C311   C     0.80999   0.55996   0.16667   0.00000  Uiso   1.00
C312   C     0.50000   0.78941   0.02391   0.00000  Uiso   1.00
H313   H     0.90287   0.65320   0.09374   0.00000  Uiso   1.00
H314   H     0.84713   0.59680   0.23959   0.00000  Uiso   1.00
H315   H     0.84713   0.59680   0.09374   0.00000  Uiso   1.00
H316   H     0.65287   0.90320   0.23959   0.00000  Uiso   1.00
H317   H     0.84713   0.90320   0.23959   0.00000  Uiso   1.00
H318   H     0.65287   0.59680   0.09374   0.00000  Uiso   1.00
H319   H     0.65287   0.59680   0.23959   0.00000  Uiso   1.00
H320   H     0.84713   0.90320   0.09374   0.00000  Uiso   1.00
H321   H     0.59713   0.84680   0.23959   0.00000  Uiso   1.00
H322   H     0.59713   0.84680   0.09374   0.00000  Uiso   1.00
H323   H     0.90287   0.65320   0.23959   0.00000  Uiso   1.00
H324   H     0.59713   0.65320   0.23959   0.00000  Uiso   1.00
H325   H     0.90287   0.84680   0.09374   0.00000  Uiso   1.00
H326   H     0.90287   0.84680   0.23959   0.00000  Uiso   1.00
H327   H     0.59713   0.65320   0.09374   0.00000  Uiso   1.00
H328   H     0.65287   0.90320   0.09374   0.00000  Uiso   1.00
N329   N     0.50000   0.75000   0.28573   0.00000  Uiso   1.00
N330   N     0.50000   0.75000   0.04760   0.00000  Uiso   1.00
N331   N     0.75000   0.50000   0.28573   0.00000  Uiso   1.00
N332   N     0.75000   0.50000   0.04760   0.00000  Uiso   1.00
O333   O     0.54581   0.70419   0.20487   0.00000  Uiso   1.00
O334   O     0.70420   0.54581   0.12846   0.00000  Uiso   1.00
O335   O     0.70420   0.54581   0.20487   0.00000  Uiso   1.00
O336   O     0.79581   0.95419   0.12846   0.00000  Uiso   1.00
O337   O     0.70420   0.95419   0.12846   0.00000  Uiso   1.00
O338   O     0.79581   0.54581   0.20487   0.00000  Uiso   1.00
O339   O     0.79581   0.54581   0.12846   0.00000  Uiso   1.00
O340   O     0.70420   0.95419   0.20487   0.00000  Uiso   1.00
O341   O     0.95420   0.79581   0.12846   0.00000  Uiso   1.00
O342   O     0.95420   0.79581   0.20487   0.00000  Uiso   1.00
O343   O     0.54581   0.70419   0.12846   0.00000  Uiso   1.00
O344   O     0.95420   0.70419   0.12846   0.00000  Uiso   1.00
O345   O     0.54581   0.79581   0.20487   0.00000  Uiso   1.00
O346   O     0.54581   0.79581   0.12846   0.00000  Uiso   1.00
O347   O     0.95420   0.70419   0.20487   0.00000  Uiso   1.00
O348   O     0.79581   0.95419   0.20487   0.00000  Uiso   1.00
Zn349  Zn    0.50000   0.75000   0.21771   0.00000  Uiso   1.00
Zn350  Zn    0.50000   0.75000   0.11563   0.00000  Uiso   1.00
Zn351  Zn    0.75000   0.50000   0.21771   0.00000  Uiso   1.00
Zn352  Zn    0.75000   0.50000   0.11563   0.00000  Uiso   1.00
Br353  Br    0.00000   0.34564   0.38856   0.00000  Uiso   1.00
Br354  Br    0.00000   0.15436   0.61144   0.00000  Uiso   1.00
Br355  Br    0.00000   0.15436   0.38856   0.00000  Uiso   1.00
Br356  Br    0.00000   0.34564   0.61144   0.00000  Uiso   1.00
Br357  Br    0.25000   0.09564   0.38856   0.00000  Uiso   1.00
Br358  Br    0.25000   0.40436   0.61144   0.00000  Uiso   1.00
Br359  Br    0.25000   0.40436   0.38856   0.00000  Uiso   1.00
Br360  Br    0.25000   0.09564   0.61144   0.00000  Uiso   1.00
C361   C     0.05999   0.19004   0.50000   0.00000  Uiso   1.00
C362   C     0.00000   0.21059   0.64276   0.00000  Uiso   1.00
C363   C     0.00000   0.21059   0.35724   0.00000  Uiso   1.00
C364   C     0.00000   0.28941   0.64276   0.00000  Uiso   1.00
C365   C     0.25000   0.03941   0.35724   0.00000  Uiso   1.00
C366   C     0.25000   0.46059   0.64276   0.00000  Uiso   1.00
C367   C     0.25000   0.46059   0.35724   0.00000  Uiso   1.00
C368   C     0.25000   0.03941   0.64276   0.00000  Uiso   1.00
C369   C     0.39090   0.14103   0.45904   0.00000  Uiso   1.00
C370   C     0.10910   0.35897   0.54096   0.00000  Uiso   1.00
C371   C     0.10910   0.35897   0.45904   0.00000  Uiso   1.00
C372   C     0.44001   0.30996   0.50000   0.00000  Uiso   1.00
C373   C     0.39090   0.14103   0.54096   0.00000  Uiso   1.00
C374   C     0.10910   0.14103   0.54096   0.00000  Uiso   1.00
C375   C     0.39090   0.35897   0.45904   0.00000  Uiso   1.00
C376   C     0.39090   0.35897   0.54096   0.00000  Uiso   1.00
C377   C     0.10910   0.14103   0.45904   0.00000  Uiso   1.00
C378   C     0.14090   0.39103   0.45904   0.00000  Uiso   1.00
C379   C     0.35910   0.10897   0.54096   0.00000  Uiso   1.00
C380   C     0.35910   0.10897   0.45904   0.00000  Uiso   1.00
C381   C     0.14090   0.39103   0.54096   0.00000  Uiso   1.00
C382   C     0.35910   0.39103   0.54096   0.00000  Uiso   1.00
C383   C     0.44001   0.19004   0.50000   0.00000  Uiso   1.00
C384   C     0.14090   0.10897   0.45904   0.00000  Uiso   1.00
C385   C     0.14090   0.10897   0.54096   0.00000  Uiso   1.00
C386   C     0.35910   0.39103   0.45904   0.00000  Uiso   1.00
C387   C     0.09319   0.34306   0.50000   0.00000  Uiso   1.00
C388   C     0.40681   0.15694   0.50000   0.00000  Uiso   1.00
C389   C     0.40681   0.34306   0.50000   0.00000  Uiso   1.00
C390   C     0.09319   0.15694   0.50000   0.00000  Uiso   1.00
C391   C     0.34319   0.09306   0.50000   0.00000  Uiso   1.00
C392   C     0.15681   0.40694   0.50000   0.00000  Uiso   1.00
C393   C     0.15681   0.09306   0.50000   0.00000  Uiso   1.00
C394   C     0.05999   0.30996   0.50000   0.00000  Uiso   1.00
C395   C     0.34319   0.40694   0.50000   0.00000  Uiso   1.00
C396   C     0.30999   0.44004   0.50000   0.00000  Uiso   1.00
C397   C     0.19001   0.05996   0.50000   0.00000  Uiso   1.00
C398   C     0.19001   0.44004   0.50000   0.00000  Uiso   1.00
C399   C     0.30999   0.05996   0.50000   0.00000  Uiso   1.00
C400   C     0.00000   0.28941   0.35724   0.00000  Uiso   1.00
H401   H     0.40287   0.15320   0.42707   0.00000  Uiso   1.00
H402   H     0.34713   0.09680   0.57293   0.00000  Uiso   1.00
H403   H     0.34713   0.09680   0.42707   0.00000  Uiso   1.00
H404   H     0.15287   0.40320   0.57293   0.00000  Uiso   1.00
H405   H     0.34713   0.40320   0.57293   0.00000  Uiso   1.00
H406   H     0.15287   0.09680   0.42707   0.00000  Uiso   1.00
H407   H     0.15287   0.09680   0.57293   0.00000  Uiso   1.00
H408   H     0.34713   0.40320   0.42707   0.00000  Uiso   1.00
H409   H     0.09713   0.34680   0.57293   0.00000  Uiso   1.00
H410   H     0.09713   0.34680   0.42707   0.00000  Uiso   1.00
H411   H     0.40287   0.15320   0.57293   0.00000  Uiso   1.00
H412   H     0.09713   0.15320   0.57293   0.00000  Uiso   1.00
H413   H     0.40287   0.34680   0.42707   0.00000  Uiso   1.00
H414   H     0.40287   0.34680   0.57293   0.00000  Uiso   1.00
H415   H     0.09713   0.15320   0.42707   0.00000  Uiso   1.00
H416   H     0.15287   0.40320   0.42707   0.00000  Uiso   1.00
N417   N     0.00000   0.25000   0.61907   0.00000  Uiso   1.00
N418   N     0.00000   0.25000   0.38093   0.00000  Uiso   1.00
N419   N     0.25000   0.00000   0.61907   0.00000  Uiso   1.00
N420   N     0.25000   0.00000   0.38093   0.00000  Uiso   1.00
O421   O     0.04581   0.20419   0.53821   0.00000  Uiso   1.00
O422   O     0.20420   0.04581   0.46179   0.00000  Uiso   1.00
O423   O     0.20420   0.04581   0.53821   0.00000  Uiso   1.00
O424   O     0.29581   0.45419   0.46179   0.00000  Uiso   1.00
O425   O     0.20420   0.45419   0.46179   0.00000  Uiso   1.00
O426   O     0.29581   0.04581   0.53821   0.00000  Uiso   1.00
O427   O     0.29581   0.04581   0.46179   0.00000  Uiso   1.00
O428   O     0.20420   0.45419   0.53821   0.00000  Uiso   1.00
O429   O     0.45420   0.29581   0.46179   0.00000  Uiso   1.00
O430   O     0.45420   0.29581   0.53821   0.00000  Uiso   1.00
O431   O     0.04581   0.20419   0.46179   0.00000  Uiso   1.00
O432   O     0.45420   0.20419   0.46179   0.00000  Uiso   1.00
O433   O     0.04581   0.29581   0.53821   0.00000  Uiso   1.00
O434   O     0.04581   0.29581   0.46179   0.00000  Uiso   1.00
O435   O     0.45420   0.20419   0.53821   0.00000  Uiso   1.00
O436   O     0.29581   0.45419   0.53821   0.00000  Uiso   1.00
Zn437  Zn    0.00000   0.25000   0.55104   0.00000  Uiso   1.00
Zn438  Zn    0.00000   0.25000   0.44896   0.00000  Uiso   1.00
Zn439  Zn    0.25000   0.00000   0.55104   0.00000  Uiso   1.00
Zn440  Zn    0.25000   0.00000   0.44896   0.00000  Uiso   1.00
Br441  Br    0.50000   0.34564   0.38856   0.00000  Uiso   1.00
Br442  Br    0.50000   0.15436   0.61144   0.00000  Uiso   1.00
Br443  Br    0.50000   0.15436   0.38856   0.00000  Uiso   1.00
Br444  Br    0.50000   0.34564   0.61144   0.00000  Uiso   1.00
Br445  Br    0.75000   0.09564   0.38856   0.00000  Uiso   1.00
Br446  Br    0.75000   0.40436   0.61144   0.00000  Uiso   1.00
Br447  Br    0.75000   0.40436   0.38856   0.00000  Uiso   1.00
Br448  Br    0.75000   0.09564   0.61144   0.00000  Uiso   1.00
C449   C     0.55999   0.19004   0.50000   0.00000  Uiso   1.00
C450   C     0.50000   0.21059   0.64276   0.00000  Uiso   1.00
C451   C     0.50000   0.21059   0.35724   0.00000  Uiso   1.00
C452   C     0.50000   0.28941   0.64276   0.00000  Uiso   1.00
C453   C     0.75000   0.03941   0.35724   0.00000  Uiso   1.00
C454   C     0.75000   0.46059   0.64276   0.00000  Uiso   1.00
C455   C     0.75000   0.46059   0.35724   0.00000  Uiso   1.00
C456   C     0.75000   0.03941   0.64276   0.00000  Uiso   1.00
C457   C     0.89090   0.14103   0.45904   0.00000  Uiso   1.00
C458   C     0.60910   0.35897   0.54096   0.00000  Uiso   1.00
C459   C     0.60910   0.35897   0.45904   0.00000  Uiso   1.00
C460   C     0.94001   0.30996   0.50000   0.00000  Uiso   1.00
C461   C     0.89090   0.14103   0.54096   0.00000  Uiso   1.00
C462   C     0.60910   0.14103   0.54096   0.00000  Uiso   1.00
C463   C     0.89090   0.35897   0.45904   0.00000  Uiso   1.00
C464   C     0.89090   0.35897   0.54096   0.00000  Uiso   1.00
C465   C     0.60910   0.14103   0.45904   0.00000  Uiso   1.00
C466   C     0.64090   0.39103   0.45904   0.00000  Uiso   1.00
C467   C     0.85910   0.10897   0.54096   0.00000  Uiso   1.00
C468   C     0.85910   0.10897   0.45904   0.00000  Uiso   1.00
C469   C     0.64090   0.39103   0.54096   0.00000  Uiso   1.00
C470   C     0.85910   0.39103   0.54096   0.00000  Uiso   1.00
C471   C     0.94001   0.19004   0.50000   0.00000  Uiso   1.00
C472   C     0.64090   0.10897   0.45904   0.00000  Uiso   1.00
C473   C     0.64090   0.10897   0.54096   0.00000  Uiso   1.00
C474   C     0.85910   0.39103   0.45904   0.00000  Uiso   1.00
C475   C     0.59319   0.34306   0.50000   0.00000  Uiso   1.00
C476   C     0.90681   0.15694   0.50000   0.00000  Uiso   1.00
C477   C     0.90681   0.34306   0.50000   0.00000  Uiso   1.00
C478   C     0.59319   0.15694   0.50000   0.00000  Uiso   1.00
C479   C     0.84319   0.09306   0.50000   0.00000  Uiso   1.00
C480   C     0.65681   0.40694   0.50000   0.00000  Uiso   1.00
C481   C     0.65681   0.09306   0.50000   0.00000  Uiso   1.00
C482   C     0.55999   0.30996   0.50000   0.00000  Uiso   1.00
C483   C     0.84319   0.40694   0.50000   0.00000  Uiso   1.00
C484   C     0.80999   0.44004   0.50000   0.00000  Uiso   1.00
C485   C     0.69001   0.05996   0.50000   0.00000  Uiso   1.00
C486   C     0.69001   0.44004   0.50000   0.00000  Uiso   1.00
C487   C     0.80999   0.05996   0.50000   0.00000  Uiso   1.00
C488   C     0.50000   0.28941   0.35724   0.00000  Uiso   1.00
H489   H     0.90287   0.15320   0.42707   0.00000  Uiso   1.00
H490   H     0.84713   0.09680   0.57293   0.00000  Uiso   1.00
H491   H     0.84713   0.09680   0.42707   0.00000  Uiso   1.00
H492   H     0.65287   0.40320   0.57293   0.00000  Uiso   1.00
H493   H     0.84713   0.40320   0.57293   0.00000  Uiso   1.00
H494   H     0.65287   0.09680   0.42707   0.00000  Uiso   1.00
H495   H     0.65287   0.09680   0.57293   0.00000  Uiso   1.00
H496   H     0.84713   0.40320   0.42707   0.00000  Uiso   1.00
H497   H     0.59713   0.34680   0.57293   0.00000  Uiso   1.00
H498   H     0.59713   0.34680   0.42707   0.00000  Uiso   1.00
H499   H     0.90287   0.15320   0.57293   0.00000  Uiso   1.00
H500   H     0.59713   0.15320   0.57293   0.00000  Uiso   1.00
H501   H     0.90287   0.34680   0.42707   0.00000  Uiso   1.00
H502   H     0.90287   0.34680   0.57293   0.00000  Uiso   1.00
H503   H     0.59713   0.15320   0.42707   0.00000  Uiso   1.00
H504   H     0.65287   0.40320   0.42707   0.00000  Uiso   1.00
N505   N     0.50000   0.25000   0.61907   0.00000  Uiso   1.00
N506   N     0.50000   0.25000   0.38093   0.00000  Uiso   1.00
N507   N     0.75000   0.00000   0.61907   0.00000  Uiso   1.00
N508   N     0.75000   0.00000   0.38093   0.00000  Uiso   1.00
O509   O     0.54581   0.20419   0.53821   0.00000  Uiso   1.00
O510   O     0.70420   0.04581   0.46179   0.00000  Uiso   1.00
O511   O     0.70420   0.04581   0.53821   0.00000  Uiso   1.00
O512   O     0.79581   0.45419   0.46179   0.00000  Uiso   1.00
O513   O     0.70420   0.45419   0.46179   0.00000  Uiso   1.00
O514   O     0.79581   0.04581   0.53821   0.00000  Uiso   1.00
O515   O     0.79581   0.04581   0.46179   0.00000  Uiso   1.00
O516   O     0.70420   0.45419   0.53821   0.00000  Uiso   1.00
O517   O     0.95420   0.29581   0.46179   0.00000  Uiso   1.00
O518   O     0.95420   0.29581   0.53821   0.00000  Uiso   1.00
O519   O     0.54581   0.20419   0.46179   0.00000  Uiso   1.00
O520   O     0.95420   0.20419   0.46179   0.00000  Uiso   1.00
O521   O     0.54581   0.29581   0.53821   0.00000  Uiso   1.00
O522   O     0.54581   0.29581   0.46179   0.00000  Uiso   1.00
O523   O     0.95420   0.20419   0.53821   0.00000  Uiso   1.00
O524   O     0.79581   0.45419   0.53821   0.00000  Uiso   1.00
Zn525  Zn    0.50000   0.25000   0.55104   0.00000  Uiso   1.00
Zn526  Zn    0.50000   0.25000   0.44896   0.00000  Uiso   1.00
Zn527  Zn    0.75000   0.00000   0.55104   0.00000  Uiso   1.00
Zn528  Zn    0.75000   0.00000   0.44896   0.00000  Uiso   1.00
Br529  Br    0.00000   0.84564   0.38856   0.00000  Uiso   1.00
Br530  Br    0.00000   0.65436   0.61144   0.00000  Uiso   1.00
Br531  Br    0.00000   0.65436   0.38856   0.00000  Uiso   1.00
Br532  Br    0.00000   0.84564   0.61144   0.00000  Uiso   1.00
Br533  Br    0.25000   0.59564   0.38856   0.00000  Uiso   1.00
Br534  Br    0.25000   0.90436   0.61144   0.00000  Uiso   1.00
Br535  Br    0.25000   0.90436   0.38856   0.00000  Uiso   1.00
Br536  Br    0.25000   0.59564   0.61144   0.00000  Uiso   1.00
C537   C     0.05999   0.69004   0.50000   0.00000  Uiso   1.00
C538   C     0.00000   0.71059   0.64276   0.00000  Uiso   1.00
C539   C     0.00000   0.71059   0.35724   0.00000  Uiso   1.00
C540   C     0.00000   0.78941   0.64276   0.00000  Uiso   1.00
C541   C     0.25000   0.53941   0.35724   0.00000  Uiso   1.00
C542   C     0.25000   0.96059   0.64276   0.00000  Uiso   1.00
C543   C     0.25000   0.96059   0.35724   0.00000  Uiso   1.00
C544   C     0.25000   0.53941   0.64276   0.00000  Uiso   1.00
C545   C     0.39090   0.64103   0.45904   0.00000  Uiso   1.00
C546   C     0.10910   0.85897   0.54096   0.00000  Uiso   1.00
C547   C     0.10910   0.85897   0.45904   0.00000  Uiso   1.00
C548   C     0.44001   0.80996   0.50000   0.00000  Uiso   1.00
C549   C     0.39090   0.64103   0.54096   0.00000  Uiso   1.00
C550   C     0.10910   0.64103   0.54096   0.00000  Uiso   1.00
C551   C     0.39090   0.85897   0.45904   0.00000  Uiso   1.00
C552   C     0.39090   0.85897   0.54096   0.00000  Uiso   1.00
C553   C     0.10910   0.64103   0.45904   0.00000  Uiso   1.00
C554   C     0.14090   0.89103   0.45904   0.00000  Uiso   1.00
C555   C     0.35910   0.60897   0.54096   0.00000  Uiso   1.00
C556   C     0.35910   0.60897   0.45904   0.00000  Uiso   1.00
C557   C     0.14090   0.89103   0.54096   0.00000  Uiso   1.00
C558   C     0.35910   0.89103   0.54096   0.00000  Uiso   1.00
C559   C     0.44001   0.69004   0.50000   0.00000  Uiso   1.00
C560   C     0.14090   0.60897   0.45904   0.00000  Uiso   1.00
C561   C     0.14090   0.60897   0.54096   0.00000  Uiso   1.00
C562   C     0.35910   0.89103   0.45904   0.00000  Uiso   1.00
C563   C     0.09319   0.84306   0.50000   0.00000  Uiso   1.00
C564   C     0.40681   0.65694   0.50000   0.00000  Uiso   1.00
C565   C     0.40681   0.84306   0.50000   0.00000  Uiso   1.00
C566   C     0.09319   0.65694   0.50000   0.00000  Uiso   1.00
C567   C     0.34319   0.59306   0.50000   0.00000  Uiso   1.00
C568   C     0.15681   0.90694   0.50000   0.00000  Uiso   1.00
C569   C     0.15681   0.59306   0.50000   0.00000  Uiso   1.00
C570   C     0.05999   0.80996   0.50000   0.00000  Uiso   1.00
C571   C     0.34319   0.90694   0.50000   0.00000  Uiso   1.00
C572   C     0.30999   0.94004   0.50000   0.00000  Uiso   1.00
C573   C     0.19001   0.55996   0.50000   0.00000  Uiso   1.00
C574   C     0.19001   0.94004   0.50000   0.00000  Uiso   1.00
C575   C     0.30999   0.55996   0.50000   0.00000  Uiso   1.00
C576   C     0.00000   0.78941   0.35724   0.00000  Uiso   1.00
H577   H     0.40287   0.65320   0.42707   0.00000  Uiso   1.00
H578   H     0.34713   0.59680   0.57293   0.00000  Uiso   1.00
H579   H     0.34713   0.59680   0.42707   0.00000  Uiso   1.00
H580   H     0.15287   0.90320   0.57293   0.00000  Uiso   1.00
H581   H     0.34713   0.90320   0.57293   0.00000  Uiso   1.00
H582   H     0.15287   0.59680   0.42707   0.00000  Uiso   1.00
H583   H     0.15287   0.59680   0.57293   0.00000  Uiso   1.00
H584   H     0.34713   0.90320   0.42707   0.00000  Uiso   1.00
H585   H     0.09713   0.84680   0.57293   0.00000  Uiso   1.00
H586   H     0.09713   0.84680   0.42707   0.00000  Uiso   1.00
H587   H     0.40287   0.65320   0.57293   0.00000  Uiso   1.00
H588   H     0.09713   0.65320   0.57293   0.00000  Uiso   1.00
H589   H     0.40287   0.84680   0.42707   0.00000  Uiso   1.00
H590   H     0.40287   0.84680   0.57293   0.00000  Uiso   1.00
H591   H     0.09713   0.65320   0.42707   0.00000  Uiso   1.00
H592   H     0.15287   0.90320   0.42707   0.00000  Uiso   1.00
N593   N     0.00000   0.75000   0.61907   0.00000  Uiso   1.00
N594   N     0.00000   0.75000   0.38093   0.00000  Uiso   1.00
N595   N     0.25000   0.50000   0.61907   0.00000  Uiso   1.00
N596   N     0.25000   0.50000   0.38093   0.00000  Uiso   1.00
O597   O     0.04581   0.70419   0.53821   0.00000  Uiso   1.00
O598   O     0.20420   0.54581   0.46179   0.00000  Uiso   1.00
O599   O     0.20420   0.54581   0.53821   0.00000  Uiso   1.00
O600   O     0.29581   0.95419   0.46179   0.00000  Uiso   1.00
O601   O     0.20420   0.95419   0.46179   0.00000  Uiso   1.00
O602   O     0.29581   0.54581   0.53821   0.00000  Uiso   1.00
O603   O     0.29581   0.54581   0.46179   0.00000  Uiso   1.00
O604   O     0.20420   0.95419   0.53821   0.00000  Uiso   1.00
O605   O     0.45420   0.79581   0.46179   0.00000  Uiso   1.00
O606   O     0.45420   0.79581   0.53821   0.00000  Uiso   1.00
O607   O     0.04581   0.70419   0.46179   0.00000  Uiso   1.00
O608   O     0.45420   0.70419   0.46179   0.00000  Uiso   1.00
O609   O     0.04581   0.79581   0.53821   0.00000  Uiso   1.00
O610   O     0.04581   0.79581   0.46179   0.00000  Uiso   1.00
O611   O     0.45420   0.70419   0.53821   0.00000  Uiso   1.00
O612   O     0.29581   0.95419   0.53821   0.00000  Uiso   1.00
Zn613  Zn    0.00000   0.75000   0.55104   0.00000  Uiso   1.00
Zn614  Zn    0.00000   0.75000   0.44896   0.00000  Uiso   1.00
Zn615  Zn    0.25000   0.50000   0.55104   0.00000  Uiso   1.00
Zn616  Zn    0.25000   0.50000   0.44896   0.00000  Uiso   1.00
Br617  Br    0.50000   0.84564   0.38856   0.00000  Uiso   1.00
Br618  Br    0.50000   0.65436   0.61144   0.00000  Uiso   1.00
Br619  Br    0.50000   0.65436   0.38856   0.00000  Uiso   1.00
Br620  Br    0.50000   0.84564   0.61144   0.00000  Uiso   1.00
Br621  Br    0.75000   0.59564   0.38856   0.00000  Uiso   1.00
Br622  Br    0.75000   0.90436   0.61144   0.00000  Uiso   1.00
Br623  Br    0.75000   0.90436   0.38856   0.00000  Uiso   1.00
Br624  Br    0.75000   0.59564   0.61144   0.00000  Uiso   1.00
C625   C     0.55999   0.69004   0.50000   0.00000  Uiso   1.00
C626   C     0.50000   0.71059   0.64276   0.00000  Uiso   1.00
C627   C     0.50000   0.71059   0.35724   0.00000  Uiso   1.00
C628   C     0.50000   0.78941   0.64276   0.00000  Uiso   1.00
C629   C     0.75000   0.53941   0.35724   0.00000  Uiso   1.00
C630   C     0.75000   0.96059   0.64276   0.00000  Uiso   1.00
C631   C     0.75000   0.96059   0.35724   0.00000  Uiso   1.00
C632   C     0.75000   0.53941   0.64276   0.00000  Uiso   1.00
C633   C     0.89090   0.64103   0.45904   0.00000  Uiso   1.00
C634   C     0.60910   0.85897   0.54096   0.00000  Uiso   1.00
C635   C     0.60910   0.85897   0.45904   0.00000  Uiso   1.00
C636   C     0.94001   0.80996   0.50000   0.00000  Uiso   1.00
C637   C     0.89090   0.64103   0.54096   0.00000  Uiso   1.00
C638   C     0.60910   0.64103   0.54096   0.00000  Uiso   1.00
C639   C     0.89090   0.85897   0.45904   0.00000  Uiso   1.00
C640   C     0.89090   0.85897   0.54096   0.00000  Uiso   1.00
C641   C     0.60910   0.64103   0.45904   0.00000  Uiso   1.00
C642   C     0.64090   0.89103   0.45904   0.00000  Uiso   1.00
C643   C     0.85910   0.60897   0.54096   0.00000  Uiso   1.00
C644   C     0.85910   0.60897   0.45904   0.00000  Uiso   1.00
C645   C     0.64090   0.89103   0.54096   0.00000  Uiso   1.00
C646   C     0.85910   0.89103   0.54096   0.00000  Uiso   1.00
C647   C     0.94001   0.69004   0.50000   0.00000  Uiso   1.00
C648   C     0.64090   0.60897   0.45904   0.00000  Uiso   1.00
C649   C     0.64090   0.60897   0.54096   0.00000  Uiso   1.00
C650   C     0.85910   0.89103   0.45904   0.00000  Uiso   1.00
C651   C     0.59319   0.84306   0.50000   0.00000  Uiso   1.00
C652   C     0.90681   0.65694   0.50000   0.00000  Uiso   1.00
C653   C     0.90681   0.84306   0.50000   0.00000  Uiso   1.00
C654   C     0.59319   0.65694   0.50000   0.00000  Uiso   1.00
C655   C     0.84319   0.59306   0.50000   0.00000  Uiso   1.00
C656   C     0.65681   0.90694   0.50000   0.00000  Uiso   1.00
C657   C     0.65681   0.59306   0.50000   0.00000  Uiso   1.00
C658   C     0.55999   0.80996   0.50000   0.00000  Uiso   1.00
C659   C     0.84319   0.90694   0.50000   0.00000  Uiso   1.00
C660   C     0.80999   0.94004   0.50000   0.00000  Uiso   1.00
C661   C     0.69001   0.55996   0.50000   0.00000  Uiso   1.00
C662   C     0.69001   0.94004   0.50000   0.00000  Uiso   1.00
C663   C     0.80999   0.55996   0.50000   0.00000  Uiso   1.00
C664   C     0.50000   0.78941   0.35724   0.00000  Uiso   1.00
H665   H     0.90287   0.65320   0.42707   0.00000  Uiso   1.00
H666   H     0.84713   0.59680   0.57293   0.00000  Uiso   1.00
H667   H     0.84713   0.59680   0.42707   0.00000  Uiso   1.00
H668   H     0.65287   0.90320   0.57293   0.00000  Uiso   1.00
H669   H     0.84713   0.90320   0.57293   0.00000  Uiso   1.00
H670   H     0.65287   0.59680   0.42707   0.00000  Uiso   1.00
H671   H     0.65287   0.59680   0.57293   0.00000  Uiso   1.00
H672   H     0.84713   0.90320   0.42707   0.00000  Uiso   1.00
H673   H     0.59713   0.84680   0.57293   0.00000  Uiso   1.00
H674   H     0.59713   0.84680   0.42707   0.00000  Uiso   1.00
H675   H     0.90287   0.65320   0.57293   0.00000  Uiso   1.00
H676   H     0.59713   0.65320   0.57293   0.00000  Uiso   1.00
H677   H     0.90287   0.84680   0.42707   0.00000  Uiso   1.00
H678   H     0.90287   0.84680   0.57293   0.00000  Uiso   1.00
H679   H     0.59713   0.65320   0.42707   0.00000  Uiso   1.00
H680   H     0.65287   0.90320   0.42707   0.00000  Uiso   1.00
N681   N     0.50000   0.75000   0.61907   0.00000  Uiso   1.00
N682   N     0.50000   0.75000   0.38093   0.00000  Uiso   1.00
N683   N     0.75000   0.50000   0.61907   0.00000  Uiso   1.00
N684   N     0.75000   0.50000   0.38093   0.00000  Uiso   1.00
O685   O     0.54581   0.70419   0.53821   0.00000  Uiso   1.00
O686   O     0.70420   0.54581   0.46179   0.00000  Uiso   1.00
O687   O     0.70420   0.54581   0.53821   0.00000  Uiso   1.00
O688   O     0.79581   0.95419   0.46179   0.00000  Uiso   1.00
O689   O     0.70420   0.95419   0.46179   0.00000  Uiso   1.00
O690   O     0.79581   0.54581   0.53821   0.00000  Uiso   1.00
O691   O     0.79581   0.54581   0.46179   0.00000  Uiso   1.00
O692   O     0.70420   0.95419   0.53821   0.00000  Uiso   1.00
O693   O     0.95420   0.79581   0.46179   0.00000  Uiso   1.00
O694   O     0.95420   0.79581   0.53821   0.00000  Uiso   1.00
O695   O     0.54581   0.70419   0.46179   0.00000  Uiso   1.00
O696   O     0.95420   0.70419   0.46179   0.00000  Uiso   1.00
O697   O     0.54581   0.79581   0.53821   0.00000  Uiso   1.00
O698   O     0.54581   0.79581   0.46179   0.00000  Uiso   1.00
O699   O     0.95420   0.70419   0.53821   0.00000  Uiso   1.00
O700   O     0.79581   0.95419   0.53821   0.00000  Uiso   1.00
Zn701  Zn    0.50000   0.75000   0.55104   0.00000  Uiso   1.00
Zn702  Zn    0.50000   0.75000   0.44896   0.00000  Uiso   1.00
Zn703  Zn    0.75000   0.50000   0.55104   0.00000  Uiso   1.00
Zn704  Zn    0.75000   0.50000   0.44896   0.00000  Uiso   1.00
Br705  Br    0.00000   0.34564   0.72189   0.00000  Uiso   1.00
Br706  Br    0.00000   0.15436   0.94477   0.00000  Uiso   1.00
Br707  Br    0.00000   0.15436   0.72189   0.00000  Uiso   1.00
Br708  Br    0.00000   0.34564   0.94477   0.00000  Uiso   1.00
Br709  Br    0.25000   0.09564   0.72189   0.00000  Uiso   1.00
Br710  Br    0.25000   0.40436   0.94477   0.00000  Uiso   1.00
Br711  Br    0.25000   0.40436   0.72189   0.00000  Uiso   1.00
Br712  Br    0.25000   0.09564   0.94477   0.00000  Uiso   1.00
C713   C     0.05999   0.19004   0.83333   0.00000  Uiso   1.00
C714   C     0.00000   0.21059   0.97609   0.00000  Uiso   1.00
C715   C     0.00000   0.21059   0.69057   0.00000  Uiso   1.00
C716   C     0.00000   0.28941   0.97609   0.00000  Uiso   1.00
C717   C     0.25000   0.03941   0.69057   0.00000  Uiso   1.00
C718   C     0.25000   0.46059   0.97609   0.00000  Uiso   1.00
C719   C     0.25000   0.46059   0.69057   0.00000  Uiso   1.00
C720   C     0.25000   0.03941   0.97609   0.00000  Uiso   1.00
C721   C     0.39090   0.14103   0.79237   0.00000  Uiso   1.00
C722   C     0.10910   0.35897   0.87430   0.00000  Uiso   1.00
C723   C     0.10910   0.35897   0.79237   0.00000  Uiso   1.00
C724   C     0.44001   0.30996   0.83333   0.00000  Uiso   1.00
C725   C     0.39090   0.14103   0.87430   0.00000  Uiso   1.00
C726   C     0.10910   0.14103   0.87430   0.00000  Uiso   1.00
C727   C     0.39090   0.35897   0.79237   0.00000  Uiso   1.00
C728   C     0.39090   0.35897   0.87430   0.00000  Uiso   1.00
C729   C     0.10910   0.14103   0.79237   0.00000  Uiso   1.00
C730   C     0.14090   0.39103   0.79237   0.00000  Uiso   1.00
C731   C     0.35910   0.10897   0.87430   0.00000  Uiso   1.00
C732   C     0.35910   0.10897   0.79237   0.00000  Uiso   1.00
C733   C     0.14090   0.39103   0.87430   0.00000  Uiso   1.00
C734   C     0.35910   0.39103   0.87430   0.00000  Uiso   1.00
C735   C     0.44001   0.19004   0.83333   0.00000  Uiso   1.00
C736   C     0.14090   0.10897   0.79237   0.00000  Uiso   1.00
C737   C     0.14090   0.10897   0.87430   0.00000  Uiso   1.00
C738   C     0.35910   0.39103   0.79237   0.00000  Uiso   1.00
C739   C     0.09319   0.34306   0.83333   0.00000  Uiso   1.00
C740   C     0.40681   0.15694   0.83333   0.00000  Uiso   1.00
C741   C     0.40681   0.34306   0.83333   0.00000  Uiso   1.00
C742   C     0.09319   0.15694   0.83333   0.00000  Uiso   1.00
C743   C     0.34319   0.09306   0.83333   0.00000  Uiso   1.00
C744   C     0.15681   0.40694   0.83333   0.00000  Uiso   1.00
C745   C     0.15681   0.09306   0.83333   0.00000  Uiso   1.00
C746   C     0.05999   0.30996   0.83333   0.00000  Uiso   1.00
C747   C     0.34319   0.40694   0.83333   0.00000  Uiso   1.00
C748   C     0.30999   0.44004   0.83333   0.00000  Uiso   1.00
C749   C     0.19001   0.05996   0.83333   0.00000  Uiso   1.00
C750   C     0.19001   0.44004   0.83333   0.00000  Uiso   1.00
C751   C     0.30999   0.05996   0.83333   0.00000  Uiso   1.00
C752   C     0.00000   0.28941   0.69057   0.00000  Uiso   1.00
H753   H     0.40287   0.15320   0.76041   0.00000  Uiso   1.00
H754   H     0.34713   0.09680   0.90626   0.00000  Uiso   1.00
H755   H     0.34713   0.09680   0.76041   0.00000  Uiso   1.00
H756   H     0.15287   0.40320   0.90626   0.00000  Uiso   1.00
H757   H     0.34713   0.40320   0.90626   0.00000  Uiso   1.00
H758   H     0.15287   0.09680   0.76041   0.00000  Uiso   1.00
H759   H     0.15287   0.09680   0.90626   0.00000  Uiso   1.00
H760   H     0.34713   0.40320   0.76041   0.00000  Uiso   1.00
H761   H     0.09713   0.34680   0.90626   0.00000  Uiso   1.00
H762   H     0.09713   0.34680   0.76041   0.00000  Uiso   1.00
H763   H     0.40287   0.15320   0.90626   0.00000  Uiso   1.00
H764   H     0.09713   0.15320   0.90626   0.00000  Uiso   1.00
H765   H     0.40287   0.34680   0.76041   0.00000  Uiso   1.00
H766   H     0.40287   0.34680   0.90626   0.00000  Uiso   1.00
H767   H     0.09713   0.15320   0.76041   0.00000  Uiso   1.00
H768   H     0.15287   0.40320   0.76041   0.00000  Uiso   1.00
N769   N     0.00000   0.25000   0.95240   0.00000  Uiso   1.00
N770   N     0.00000   0.25000   0.71427   0.00000  Uiso   1.00
N771   N     0.25000   0.00000   0.95240   0.00000  Uiso   1.00
N772   N     0.25000   0.00000   0.71427   0.00000  Uiso   1.00
O773   O     0.04581   0.20419   0.87154   0.00000  Uiso   1.00
O774   O     0.20420   0.04581   0.79513   0.00000  Uiso   1.00
O775   O     0.20420   0.04581   0.87154   0.00000  Uiso   1.00
O776   O     0.29581   0.45419   0.79513   0.00000  Uiso   1.00
O777   O     0.20420   0.45419   0.79513   0.00000  Uiso   1.00
O778   O     0.29581   0.04581   0.87154   0.00000  Uiso   1.00
O779   O     0.29581   0.04581   0.79513   0.00000  Uiso   1.00
O780   O     0.20420   0.45419   0.87154   0.00000  Uiso   1.00
O781   O     0.45420   0.29581   0.79513   0.00000  Uiso   1.00
O782   O     0.45420   0.29581   0.87154   0.00000  Uiso   1.00
O783   O     0.04581   0.20419   0.79513   0.00000  Uiso   1.00
O784   O     0.45420   0.20419   0.79513   0.00000  Uiso   1.00
O785   O     0.04581   0.29581   0.87154   0.00000  Uiso   1.00
O786   O     0.04581   0.29581   0.79513   0.00000  Uiso   1.00
O787   O     0.45420   0.20419   0.87154   0.00000  Uiso   1.00
O788   O     0.29581   0.45419   0.87154   0.00000  Uiso   1.00
Zn789  Zn    0.00000   0.25000   0.88437   0.00000  Uiso   1.00
Zn790  Zn    0.00000   0.25000   0.78229   0.00000  Uiso   1.00
Zn791  Zn    0.25000   0.00000   0.88437   0.00000  Uiso   1.00
Zn792  Zn    0.25000   0.00000   0.78229   0.00000  Uiso   1.00
Br793  Br    0.50000   0.34564   0.72189   0.00000  Uiso   1.00
Br794  Br    0.50000   0.15436   0.94477   0.00000  Uiso   1.00
Br795  Br    0.50000   0.15436   0.72189   0.00000  Uiso   1.00
Br796  Br    0.50000   0.34564   0.94477   0.00000  Uiso   1.00
Br797  Br    0.75000   0.09564   0.72189   0.00000  Uiso   1.00
Br798  Br    0.75000   0.40436   0.94477   0.00000  Uiso   1.00
Br799  Br    0.75000   0.40436   0.72189   0.00000  Uiso   1.00
Br800  Br    0.75000   0.09564   0.94477   0.00000  Uiso   1.00
C801   C     0.55999   0.19004   0.83333   0.00000  Uiso   1.00
C802   C     0.50000   0.21059   0.97609   0.00000  Uiso   1.00
C803   C     0.50000   0.21059   0.69057   0.00000  Uiso   1.00
C804   C     0.50000   0.28941   0.97609   0.00000  Uiso   1.00
C805   C     0.75000   0.03941   0.69057   0.00000  Uiso   1.00
C806   C     0.75000   0.46059   0.97609   0.00000  Uiso   1.00
C807   C     0.75000   0.46059   0.69057   0.00000  Uiso   1.00
C808   C     0.75000   0.03941   0.97609   0.00000  Uiso   1.00
C809   C     0.89090   0.14103   0.79237   0.00000  Uiso   1.00
C810   C     0.60910   0.35897   0.87430   0.00000  Uiso   1.00
C811   C     0.60910   0.35897   0.79237   0.00000  Uiso   1.00
C812   C     0.94001   0.30996   0.83333   0.00000  Uiso   1.00
C813   C     0.89090   0.14103   0.87430   0.00000  Uiso   1.00
C814   C     0.60910   0.14103   0.87430   0.00000  Uiso   1.00
C815   C     0.89090   0.35897   0.79237   0.00000  Uiso   1.00
C816   C     0.89090   0.35897   0.87430   0.00000  Uiso   1.00
C817   C     0.60910   0.14103   0.79237   0.00000  Uiso   1.00
C818   C     0.64090   0.39103   0.79237   0.00000  Uiso   1.00
C819   C     0.85910   0.10897   0.87430   0.00000  Uiso   1.00
C820   C     0.85910   0.10897   0.79237   0.00000  Uiso   1.00
C821   C     0.64090   0.39103   0.87430   0.00000  Uiso   1.00
C822   C     0.85910   0.39103   0.87430   0.00000  Uiso   1.00
C823   C     0.94001   0.19004   0.83333   0.00000  Uiso   1.00
C824   C     0.64090   0.10897   0.79237   0.00000  Uiso   1.00
C825   C     0.64090   0.10897   0.87430   0.00000  Uiso   1.00
C826   C     0.85910   0.39103   0.79237   0.00000  Uiso   1.00
C827   C     0.59319   0.34306   0.83333   0.00000  Uiso   1.00
C828   C     0.90681   0.15694   0.83333   0.00000  Uiso   1.00
C829   C     0.90681   0.34306   0.83333   0.00000  Uiso   1.00
C830   C     0.59319   0.15694   0.83333   0.00000  Uiso   1.00
C831   C     0.84319   0.09306   0.83333   0.00000  Uiso   1.00
C832   C     0.65681   0.40694   0.83333   0.00000  Uiso   1.00
C833   C     0.65681   0.09306   0.83333   0.00000  Uiso   1.00
C834   C     0.55999   0.30996   0.83333   0.00000  Uiso   1.00
C835   C     0.84319   0.40694   0.83333   0.00000  Uiso   1.00
C836   C     0.80999   0.44004   0.83333   0.00000  Uiso   1.00
C837   C     0.69001   0.05996   0.83333   0.00000  Uiso   1.00
C838   C     0.69001   0.44004   0.83333   0.00000  Uiso   1.00
C839   C     0.80999   0.05996   0.83333   0.00000  Uiso   1.00
C840   C     0.50000   0.28941   0.69057   0.00000  Uiso   1.00
H841   H     0.90287   0.15320   0.76041   0.00000  Uiso   1.00
H842   H     0.84713   0.09680   0.90626   0.00000  Uiso   1.00
H843   H     0.84713   0.09680   0.76041   0.00000  Uiso   1.00
H844   H     0.65287   0.40320   0.90626   0.00000  Uiso   1.00
H845   H     0.84713   0.40320   0.90626   0.00000  Uiso   1.00
H846   H     0.65287   0.09680   0.76041   0.00000  Uiso   1.00
H847   H     0.65287   0.09680   0.90626   0.00000  Uiso   1.00
H848   H     0.84713   0.40320   0.76041   0.00000  Uiso   1.00
H849   H     0.59713   0.34680   0.90626   0.00000  Uiso   1.00
H850   H     0.59713   0.34680   0.76041   0.00000  Uiso   1.00
H851   H     0.90287   0.15320   0.90626   0.00000  Uiso   1.00
H852   H     0.59713   0.15320   0.90626   0.00000  Uiso   1.00
H853   H     0.90287   0.34680   0.76041   0.00000  Uiso   1.00
H854   H     0.90287   0.34680   0.90626   0.00000  Uiso   1.00
H855   H     0.59713   0.15320   0.76041   0.00000  Uiso   1.00
H856   H     0.65287   0.40320   0.76041   0.00000  Uiso   1.00
N857   N     0.50000   0.25000   0.95240   0.00000  Uiso   1.00
N858   N     0.50000   0.25000   0.71427   0.00000  Uiso   1.00
N859   N     0.75000   0.00000   0.95240   0.00000  Uiso   1.00
N860   N     0.75000   0.00000   0.71427   0.00000  Uiso   1.00
O861   O     0.54581   0.20419   0.87154   0.00000  Uiso   1.00
O862   O     0.70420   0.04581   0.79513   0.00000  Uiso   1.00
O863   O     0.70420   0.04581   0.87154   0.00000  Uiso   1.00
O864   O     0.79581   0.45419   0.79513   0.00000  Uiso   1.00
O865   O     0.70420   0.45419   0.79513   0.00000  Uiso   1.00
O866   O     0.79581   0.04581   0.87154   0.00000  Uiso   1.00
O867   O     0.79581   0.04581   0.79513   0.00000  Uiso   1.00
O868   O     0.70420   0.45419   0.87154   0.00000  Uiso   1.00
O869   O     0.95420   0.29581   0.79513   0.00000  Uiso   1.00
O870   O     0.95420   0.29581   0.87154   0.00000  Uiso   1.00
O871   O     0.54581   0.20419   0.79513   0.00000  Uiso   1.00
O872   O     0.95420   0.20419   0.79513   0.00000  Uiso   1.00
O873   O     0.54581   0.29581   0.87154   0.00000  Uiso   1.00
O874   O     0.54581   0.29581   0.79513   0.00000  Uiso   1.00
O875   O     0.95420   0.20419   0.87154   0.00000  Uiso   1.00
O876   O     0.79581   0.45419   0.87154   0.00000  Uiso   1.00
Zn877  Zn    0.50000   0.25000   0.88437   0.00000  Uiso   1.00
Zn878  Zn    0.50000   0.25000   0.78229   0.00000  Uiso   1.00
Zn879  Zn    0.75000   0.00000   0.88437   0.00000  Uiso   1.00
Zn880  Zn    0.75000   0.00000   0.78229   0.00000  Uiso   1.00
Br881  Br    0.00000   0.84564   0.72189   0.00000  Uiso   1.00
Br882  Br    0.00000   0.65436   0.94477   0.00000  Uiso   1.00
Br883  Br    0.00000   0.65436   0.72189   0.00000  Uiso   1.00
Br884  Br    0.00000   0.84564   0.94477   0.00000  Uiso   1.00
Br885  Br    0.25000   0.59564   0.72189   0.00000  Uiso   1.00
Br886  Br    0.25000   0.90436   0.94477   0.00000  Uiso   1.00
Br887  Br    0.25000   0.90436   0.72189   0.00000  Uiso   1.00
Br888  Br    0.25000   0.59564   0.94477   0.00000  Uiso   1.00
C889   C     0.05999   0.69004   0.83333   0.00000  Uiso   1.00
C890   C     0.00000   0.71059   0.97609   0.00000  Uiso   1.00
C891   C     0.00000   0.71059   0.69057   0.00000  Uiso   1.00
C892   C     0.00000   0.78941   0.97609   0.00000  Uiso   1.00
C893   C     0.25000   0.53941   0.69057   0.00000  Uiso   1.00
C894   C     0.25000   0.96059   0.97609   0.00000  Uiso   1.00
C895   C     0.25000   0.96059   0.69057   0.00000  Uiso   1.00
C896   C     0.25000   0.53941   0.97609   0.00000  Uiso   1.00
C897   C     0.39090   0.64103   0.79237   0.00000  Uiso   1.00
C898   C     0.10910   0.85897   0.87430   0.00000  Uiso   1.00
C899   C     0.10910   0.85897   0.79237   0.00000  Uiso   1.00
C900   C     0.44001   0.80996   0.83333   0.00000  Uiso   1.00
C901   C     0.39090   0.64103   0.87430   0.00000  Uiso   1.00
C902   C     0.10910   0.64103   0.87430   0.00000  Uiso   1.00
C903   C     0.39090   0.85897   0.79237   0.00000  Uiso   1.00
C904   C     0.39090   0.85897   0.87430   0.00000  Uiso   1.00
C905   C     0.10910   0.64103   0.79237   0.00000  Uiso   1.00
C906   C     0.14090   0.89103   0.79237   0.00000  Uiso   1.00
C907   C     0.35910   0.60897   0.87430   0.00000  Uiso   1.00
C908   C     0.35910   0.60897   0.79237   0.00000  Uiso   1.00
C909   C     0.14090   0.89103   0.87430   0.00000  Uiso   1.00
C910   C     0.35910   0.89103   0.87430   0.00000  Uiso   1.00
C911   C     0.44001   0.69004   0.83333   0.00000  Uiso   1.00
C912   C     0.14090   0.60897   0.79237   0.00000  Uiso   1.00
C913   C     0.14090   0.60897   0.87430   0.00000  Uiso   1.00
C914   C     0.35910   0.89103   0.79237   0.00000  Uiso   1.00
C915   C     0.09319   0.84306   0.83333   0.00000  Uiso   1.00
C916   C     0.40681   0.65694   0.83333   0.00000  Uiso   1.00
C917   C     0.40681   0.84306   0.83333   0.00000  Uiso   1.00
C918   C     0.09319   0.65694   0.83333   0.00000  Uiso   1.00
C919   C     0.34319   0.59306   0.83333   0.00000  Uiso   1.00
C920   C     0.15681   0.90694   0.83333   0.00000  Uiso   1.00
C921   C     0.15681   0.59306   0.83333   0.00000  Uiso   1.00
C922   C     0.05999   0.80996   0.83333   0.00000  Uiso   1.00
C923   C     0.34319   0.90694   0.83333   0.00000  Uiso   1.00
C924   C     0.30999   0.94004   0.83333   0.00000  Uiso   1.00
C925   C     0.19001   0.55996   0.83333   0.00000  Uiso   1.00
C926   C     0.19001   0.94004   0.83333   0.00000  Uiso   1.00
C927   C     0.30999   0.55996   0.83333   0.00000  Uiso   1.00
C928   C     0.00000   0.78941   0.69057   0.00000  Uiso   1.00
H929   H     0.40287   0.65320   0.76041   0.00000  Uiso   1.00
H930   H     0.34713   0.59680   0.90626   0.00000  Uiso   1.00
H931   H     0.34713   0.59680   0.76041   0.00000  Uiso   1.00
H932   H     0.15287   0.90320   0.90626   0.00000  Uiso   1.00
H933   H     0.34713   0.90320   0.90626   0.00000  Uiso   1.00
H934   H     0.15287   0.59680   0.76041   0.00000  Uiso   1.00
H935   H     0.15287   0.59680   0.90626   0.00000  Uiso   1.00
H936   H     0.34713   0.90320   0.76041   0.00000  Uiso   1.00
H937   H     0.09713   0.84680   0.90626   0.00000  Uiso   1.00
H938   H     0.09713   0.84680   0.76041   0.00000  Uiso   1.00
H939   H     0.40287   0.65320   0.90626   0.00000  Uiso   1.00
H940   H     0.09713   0.65320   0.90626   0.00000  Uiso   1.00
H941   H     0.40287   0.84680   0.76041   0.00000  Uiso   1.00
H942   H     0.40287   0.84680   0.90626   0.00000  Uiso   1.00
H943   H     0.09713   0.65320   0.76041   0.00000  Uiso   1.00
H944   H     0.15287   0.90320   0.76041   0.00000  Uiso   1.00
N945   N     0.00000   0.75000   0.95240   0.00000  Uiso   1.00
N946   N     0.00000   0.75000   0.71427   0.00000  Uiso   1.00
N947   N     0.25000   0.50000   0.95240   0.00000  Uiso   1.00
N948   N     0.25000   0.50000   0.71427   0.00000  Uiso   1.00
O949   O     0.04581   0.70419   0.87154   0.00000  Uiso   1.00
O950   O     0.20420   0.54581   0.79513   0.00000  Uiso   1.00
O951   O     0.20420   0.54581   0.87154   0.00000  Uiso   1.00
O952   O     0.29581   0.95419   0.79513   0.00000  Uiso   1.00
O953   O     0.20420   0.95419   0.79513   0.00000  Uiso   1.00
O954   O     0.29581   0.54581   0.87154   0.00000  Uiso   1.00
O955   O     0.29581   0.54581   0.79513   0.00000  Uiso   1.00
O956   O     0.20420   0.95419   0.87154   0.00000  Uiso   1.00
O957   O     0.45420   0.79581   0.79513   0.00000  Uiso   1.00
O958   O     0.45420   0.79581   0.87154   0.00000  Uiso   1.00
O959   O     0.04581   0.70419   0.79513   0.00000  Uiso   1.00
O960   O     0.45420   0.70419   0.79513   0.00000  Uiso   1.00
O961   O     0.04581   0.79581   0.87154   0.00000  Uiso   1.00
O962   O     0.04581   0.79581   0.79513   0.00000  Uiso   1.00
O963   O     0.45420   0.70419   0.87154   0.00000  Uiso   1.00
O964   O     0.29581   0.95419   0.87154   0.00000  Uiso   1.00
Zn965  Zn    0.00000   0.75000   0.88437   0.00000  Uiso   1.00
Zn966  Zn    0.00000   0.75000   0.78229   0.00000  Uiso   1.00
Zn967  Zn    0.25000   0.50000   0.88437   0.00000  Uiso   1.00
Zn968  Zn    0.25000   0.50000   0.78229   0.00000  Uiso   1.00
Br969  Br    0.50000   0.84564   0.72189   0.00000  Uiso   1.00
Br970  Br    0.50000   0.65436   0.94477   0.00000  Uiso   1.00
Br971  Br    0.50000   0.65436   0.72189   0.00000  Uiso   1.00
Br972  Br    0.50000   0.84564   0.94477   0.00000  Uiso   1.00
Br973  Br    0.75000   0.59564   0.72189   0.00000  Uiso   1.00
Br974  Br    0.75000   0.90436   0.94477   0.00000  Uiso   1.00
Br975  Br    0.75000   0.90436   0.72189   0.00000  Uiso   1.00
Br976  Br    0.75000   0.59564   0.94477   0.00000  Uiso   1.00
C977   C     0.55999   0.69004   0.83333   0.00000  Uiso   1.00
C978   C     0.50000   0.71059   0.97609   0.00000  Uiso   1.00
C979   C     0.50000   0.71059   0.69057   0.00000  Uiso   1.00
C980   C     0.50000   0.78941   0.97609   0.00000  Uiso   1.00
C981   C     0.75000   0.53941   0.69057   0.00000  Uiso   1.00
C982   C     0.75000   0.96059   0.97609   0.00000  Uiso   1.00
C983   C     0.75000   0.96059   0.69057   0.00000  Uiso   1.00
C984   C     0.75000   0.53941   0.97609   0.00000  Uiso   1.00
C985   C     0.89090   0.64103   0.79237   0.00000  Uiso   1.00
C986   C     0.60910   0.85897   0.87430   0.00000  Uiso   1.00
C987   C     0.60910   0.85897   0.79237   0.00000  Uiso   1.00
C988   C     0.94001   0.80996   0.83333   0.00000  Uiso   1.00
C989   C     0.89090   0.64103   0.87430   0.00000  Uiso   1.00
C990   C     0.60910   0.64103   0.87430   0.00000  Uiso   1.00
C991   C     0.89090   0.85897   0.79237   0.00000  Uiso   1.00
C992   C     0.89090   0.85897   0.87430   0.00000  Uiso   1.00
C993   C     0.60910   0.64103   0.79237   0.00000  Uiso   1.00
C994   C     0.64090   0.89103   0.79237   0.00000  Uiso   1.00
C995   C     0.85910   0.60897   0.87430   0.00000  Uiso   1.00
C996   C     0.85910   0.60897   0.79237   0.00000  Uiso   1.00
C997   C     0.64090   0.89103   0.87430   0.00000  Uiso   1.00
C998   C     0.85910   0.89103   0.87430   0.00000  Uiso   1.00
C999   C     0.94001   0.69004   0.83333   0.00000  Uiso   1.00
C1000  C     0.64090   0.60897   0.79237   0.00000  Uiso   1.00
C1001  C     0.64090   0.60897   0.87430   0.00000  Uiso   1.00
C1002  C     0.85910   0.89103   0.79237   0.00000  Uiso   1.00
C1003  C     0.59319   0.84306   0.83333   0.00000  Uiso   1.00
C1004  C     0.90681   0.65694   0.83333   0.00000  Uiso   1.00
C1005  C     0.90681   0.84306   0.83333   0.00000  Uiso   1.00
C1006  C     0.59319   0.65694   0.83333   0.00000  Uiso   1.00
C1007  C     0.84319   0.59306   0.83333   0.00000  Uiso   1.00
C1008  C     0.65681   0.90694   0.83333   0.00000  Uiso   1.00
C1009  C     0.65681   0.59306   0.83333   0.00000  Uiso   1.00
C1010  C     0.55999   0.80996   0.83333   0.00000  Uiso   1.00
C1011  C     0.84319   0.90694   0.83333   0.00000  Uiso   1.00
C1012  C     0.80999   0.94004   0.83333   0.00000  Uiso   1.00
C1013  C     0.69001   0.55996   0.83333   0.00000  Uiso   1.00
C1014  C     0.69001   0.94004   0.83333   0.00000  Uiso   1.00
C1015  C     0.80999   0.55996   0.83333   0.00000  Uiso   1.00
C1016  C     0.50000   0.78941   0.69057   0.00000  Uiso   1.00
H1017  H     0.90287   0.65320   0.76041   0.00000  Uiso   1.00
H1018  H     0.84713   0.59680   0.90626   0.00000  Uiso   1.00
H1019  H     0.84713   0.59680   0.76041   0.00000  Uiso   1.00
H1020  H     0.65287   0.90320   0.90626   0.00000  Uiso   1.00
H1021  H     0.84713   0.90320   0.90626   0.00000  Uiso   1.00
H1022  H     0.65287   0.59680   0.76041   0.00000  Uiso   1.00
H1023  H     0.65287   0.59680   0.90626   0.00000  Uiso   1.00
H1024  H     0.84713   0.90320   0.76041   0.00000  Uiso   1.00
H1025  H     0.59713   0.84680   0.90626   0.00000  Uiso   1.00
H1026  H     0.59713   0.84680   0.76041   0.00000  Uiso   1.00
H1027  H     0.90287   0.65320   0.90626   0.00000  Uiso   1.00
H1028  H     0.59713   0.65320   0.90626   0.00000  Uiso   1.00
H1029  H     0.90287   0.84680   0.76041   0.00000  Uiso   1.00
H1030  H     0.90287   0.84680   0.90626   0.00000  Uiso   1.00
H1031  H     0.59713   0.65320   0.76041   0.00000  Uiso   1.00
H1032  H     0.65287   0.90320   0.76041   0.00000  Uiso   1.00
N1033  N     0.50000   0.75000   0.95240   0.00000  Uiso   1.00
N1034  N     0.50000   0.75000   0.71427   0.00000  Uiso   1.00
N1035  N     0.75000   0.50000   0.95240   0.00000  Uiso   1.00
N1036  N     0.75000   0.50000   0.71427   0.00000  Uiso   1.00
O1037  O     0.54581   0.70419   0.87154   0.00000  Uiso   1.00
O1038  O     0.70420   0.54581   0.79513   0.00000  Uiso   1.00
O1039  O     0.70420   0.54581   0.87154   0.00000  Uiso   1.00
O1040  O     0.79581   0.95419   0.79513   0.00000  Uiso   1.00
O1041  O     0.70420   0.95419   0.79513   0.00000  Uiso   1.00
O1042  O     0.79581   0.54581   0.87154   0.00000  Uiso   1.00
O1043  O     0.79581   0.54581   0.79513   0.00000  Uiso   1.00
O1044  O     0.70420   0.95419   0.87154   0.00000  Uiso   1.00
O1045  O     0.95420   0.79581   0.79513   0.00000  Uiso   1.00
O1046  O     0.95420   0.79581   0.87154   0.00000  Uiso   1.00
O1047  O     0.54581   0.70419   0.79513   0.00000  Uiso   1.00
O1048  O     0.95420   0.70419   0.79513   0.00000  Uiso   1.00
O1049  O     0.54581   0.79581   0.87154   0.00000  Uiso   1.00
O1050  O     0.54581   0.79581   0.79513   0.00000  Uiso   1.00
O1051  O     0.95420   0.70419   0.87154   0.00000  Uiso   1.00
O1052  O     0.79581   0.95419   0.87154   0.00000  Uiso   1.00
Zn1053 Zn    0.50000   0.75000   0.88437   0.00000  Uiso   1.00
Zn1054 Zn    0.50000   0.75000   0.78229   0.00000  Uiso   1.00
Zn1055 Zn    0.75000   0.50000   0.88437   0.00000  Uiso   1.00
Zn1056 Zn    0.75000   0.50000   0.78229   0.00000  Uiso   1.00
loop_
_geom_bond_atom_site_label_1
_geom_bond_atom_site_label_2
_geom_bond_distance
_geom_bond_site_symmetry_2
_ccdc_geom_bond_type
Br1    C48     1.921   .     S
Br2    C10     1.921   .     S
Br3    C11     1.921   .     S
Br4    C12     1.921   .     S
Br5    C13     1.921   .     S
Br6    C14     1.921   .     S
Br7    C15     1.921   .     S
Br8    C16     1.921   .     S
C9     O69     1.289   .     A
C9     O79     1.289   .     A
C9     C38     1.422   .     S
C10    C363    1.423   .     S
C10    N65     1.372   .     S
C11    N66     1.372   .     A
C11    C714    1.423   1_554 S
C12    C400    1.423   .     S
C12    N65     1.372   .     S
C13    N68     1.372   .     A
C13    C720    1.423   1_554 S
C14    C367    1.423   .     S
C14    N243    1.372   .     S
C15    C718    1.423   1_554 S
C15    N244    1.372   .     S
C16    N67     1.372   .     A
C16    C365    1.423   .     S
C17    C36     1.397   .     A
C17    H49     1.083   .     S
C17    C28     1.369   .     A
C18    C35     1.397   .     A
C18    H57     1.083   .     S
C18    C29     1.369   .     A
C19    C26     1.369   .     A
C19    H58     1.083   .     S
C19    C35     1.397   .     A
C20    O77     1.289   .     A
C20    O78     1.289   .     A
C20    C37     1.422   .     S
C21    C36     1.397   .     A
C21    H59     1.083   .     S
C21    C27     1.369   .     A
C22    H60     1.083   .     S
C22    C38     1.397   .     A
C22    C33     1.369   .     A
C23    C34     1.369   .     A
C23    C37     1.397   .     A
C23    H61     1.083   .     S
C24    C37     1.397   .     A
C24    H62     1.083   .     S
C24    C30     1.369   .     A
C25    H63     1.083   .     S
C25    C32     1.369   .     A
C25    C38     1.397   .     A
C26    H64     1.083   .     S
C26    C40     1.397   .     A
C27    C39     1.397   .     A
C27    H50     1.083   .     S
C28    H51     1.083   .     S
C28    C39     1.397   .     A
C29    C40     1.397   .     A
C29    H52     1.083   .     S
C30    H53     1.083   .     S
C30    C43     1.397   .     A
C31    O80     1.289   .     A
C31    O83     1.289   .     A
C31    C36     1.422   .     S
C32    C41     1.397   .     A
C32    H54     1.083   .     S
C33    H55     1.083   .     S
C33    C41     1.397   .     A
C34    H56     1.083   .     S
C34    C43     1.397   .     A
C35    C42     1.422   .     S
C39    C47     1.422   .     S
C40    C46     1.422   .     S
C41    C45     1.422   .     S
C42    O82     1.289   .     A
C42    O81     1.289   .     A
C43    C44     1.422   .     S
C44    O84     1.289   .     A
C44    O72     1.289   .     A
C45    O71     1.289   .     A
C45    O70     1.289   .     A
C46    O76     1.289   .     A
C46    O73     1.289   .     A
C47    O74     1.289   .     A
C47    O75     1.289   .     A
C48    C716    1.423   1_554 S
C48    N66     1.372   .     S
N65    Zn85    2.025   .     S
N66    Zn86    2.025   .     S
N67    Zn87    2.025   .     S
N67    C190    1.372   1_545 S
N68    Zn88    2.025   .     S
N68    C191    1.372   1_545 S
O69    Zn85    2.002   .     S
O70    Zn88    2.002   .     S
O71    Zn87    2.002   .     S
O72    Zn264   2.002   .     S
O73    Zn264   2.002   .     S
O74    Zn87    2.002   .     S
O75    Zn88    2.002   .     S
O76    Zn263   2.002   .     S
O77    Zn174   2.002   .     S
O78    Zn173   2.002   .     S
O79    Zn86    2.002   .     S
O80    Zn174   2.002   .     S
O81    Zn85    2.002   .     S
O82    Zn86    2.002   .     S
O83    Zn173   2.002   .     S
O84    Zn263   2.002   .     S
Zn85   O166    2.002   1_455 S
Zn85   O171    2.002   1_455 S
Zn86   O168    2.002   1_455 S
Zn86   O165    2.002   1_455 S
Zn87   O252    2.002   1_545 S
Zn87   O260    2.002   1_545 S
Zn88   O249    2.002   1_545 S
Zn88   O248    2.002   1_545 S
Br89   C136    1.921   .     S
Br90   C98     1.921   .     S
Br91   C99     1.921   .     S
Br92   C100    1.921   .     S
Br93   C101    1.921   .     S
Br94   C102    1.921   .     S
Br95   C103    1.921   .     S
Br96   C104    1.921   .     S
C97    O157    1.289   .     A
C97    O167    1.289   .     A
C97    C126    1.422   .     S
C98    C451    1.423   .     S
C98    N153    1.372   .     S
C99    N154    1.372   .     A
C99    C802    1.423   1_554 S
C100   C488    1.423   .     S
C100   N153    1.372   .     S
C101   N156    1.372   .     A
C101   C808    1.423   1_554 S
C102   C455    1.423   .     S
C102   N331    1.372   .     S
C103   C806    1.423   1_554 S
C103   N332    1.372   .     S
C104   N155    1.372   .     A
C104   C453    1.423   .     S
C105   C124    1.397   .     A
C105   H137    1.083   .     S
C105   C116    1.369   .     A
C106   C123    1.397   .     A
C106   H145    1.083   .     S
C106   C117    1.369   .     A
C107   C114    1.369   .     A
C107   H146    1.083   .     S
C107   C123    1.397   .     A
C108   O165    1.289   .     A
C108   O166    1.289   .     A
C108   C125    1.422   .     S
C109   C124    1.397   .     A
C109   H147    1.083   .     S
C109   C115    1.369   .     A
C110   H148    1.083   .     S
C110   C126    1.397   .     A
C110   C121    1.369   .     A
C111   C122    1.369   .     A
C111   C125    1.397   .     A
C111   H149    1.083   .     S
C112   C125    1.397   .     A
C112   H150    1.083   .     S
C112   C118    1.369   .     A
C113   H151    1.083   .     S
C113   C120    1.369   .     A
C113   C126    1.397   .     A
C114   H152    1.083   .     S
C114   C128    1.397   .     A
C115   C127    1.397   .     A
C115   H138    1.083   .     S
C116   H139    1.083   .     S
C116   C127    1.397   .     A
C117   C128    1.397   .     A
C117   H140    1.083   .     S
C118   H141    1.083   .     S
C118   C131    1.397   .     A
C119   O168    1.289   .     A
C119   O171    1.289   .     A
C119   C124    1.422   .     S
C120   C129    1.397   .     A
C120   H142    1.083   .     S
C121   H143    1.083   .     S
C121   C129    1.397   .     A
C122   H144    1.083   .     S
C122   C131    1.397   .     A
C123   C130    1.422   .     S
C127   C135    1.422   .     S
C128   C134    1.422   .     S
C129   C133    1.422   .     S
C130   O170    1.289   .     A
C130   O169    1.289   .     A
C131   C132    1.422   .     S
C132   O172    1.289   .     A
C132   O160    1.289   .     A
C133   O159    1.289   .     A
C133   O158    1.289   .     A
C134   O164    1.289   .     A
C134   O161    1.289   .     A
C135   O162    1.289   .     A
C135   O163    1.289   .     A
C136   C804    1.423   1_554 S
C136   N154    1.372   .     S
N153   Zn173   2.025   .     S
N154   Zn174   2.025   .     S
N155   Zn175   2.025   .     S
N155   C278    1.372   1_545 S
N156   Zn176   2.025   .     S
N156   C279    1.372   1_545 S
O157   Zn173   2.002   .     S
O158   Zn176   2.002   .     S
O159   Zn175   2.002   .     S
O160   Zn352   2.002   .     S
O161   Zn352   2.002   .     S
O162   Zn175   2.002   .     S
O163   Zn176   2.002   .     S
O164   Zn351   2.002   .     S
O165   Zn86    2.002   1_655 S
O166   Zn85    2.002   1_655 S
O167   Zn174   2.002   .     S
O168   Zn86    2.002   1_655 S
O169   Zn173   2.002   .     S
O170   Zn174   2.002   .     S
O171   Zn85    2.002   1_655 S
O172   Zn351   2.002   .     S
Zn175  O340    2.002   1_545 S
Zn175  O348    2.002   1_545 S
Zn176  O337    2.002   1_545 S
Zn176  O336    2.002   1_545 S
Br177  C224    1.921   .     S
Br178  C186    1.921   .     S
Br179  C187    1.921   .     S
Br180  C188    1.921   .     S
Br181  C189    1.921   .     S
Br182  C190    1.921   .     S
Br183  C191    1.921   .     S
Br184  C192    1.921   .     S
C185   O245    1.289   .     A
C185   O255    1.289   .     A
C185   C214    1.422   .     S
C186   C539    1.423   .     S
C186   N241    1.372   .     S
C187   N242    1.372   .     A
C187   C890    1.423   1_554 S
C188   C576    1.423   .     S
C188   N241    1.372   .     S
C189   N244    1.372   .     A
C189   C896    1.423   1_554 S
C190   C543    1.423   .     S
C190   N67     1.372   1_565 S
C191   C894    1.423   1_554 S
C191   N68     1.372   1_565 S
C192   N243    1.372   .     A
C192   C541    1.423   .     S
C193   C212    1.397   .     A
C193   H225    1.083   .     S
C193   C204    1.369   .     A
C194   C211    1.397   .     A
C194   H233    1.083   .     S
C194   C205    1.369   .     A
C195   C202    1.369   .     A
C195   H234    1.083   .     S
C195   C211    1.397   .     A
C196   O253    1.289   .     A
C196   O254    1.289   .     A
C196   C213    1.422   .     S
C197   C212    1.397   .     A
C197   H235    1.083   .     S
C197   C203    1.369   .     A
C198   H236    1.083   .     S
C198   C214    1.397   .     A
C198   C209    1.369   .     A
C199   C210    1.369   .     A
C199   C213    1.397   .     A
C199   H237    1.083   .     S
C200   C213    1.397   .     A
C200   H238    1.083   .     S
C200   C206    1.369   .     A
C201   H239    1.083   .     S
C201   C208    1.369   .     A
C201   C214    1.397   .     A
C202   H240    1.083   .     S
C202   C216    1.397   .     A
C203   C215    1.397   .     A
C203   H226    1.083   .     S
C204   H227    1.083   .     S
C204   C215    1.397   .     A
C205   C216    1.397   .     A
C205   H228    1.083   .     S
C206   H229    1.083   .     S
C206   C219    1.397   .     A
C207   O256    1.289   .     A
C207   O259    1.289   .     A
C207   C212    1.422   .     S
C208   C217    1.397   .     A
C208   H230    1.083   .     S
C209   H231    1.083   .     S
C209   C217    1.397   .     A
C210   H232    1.083   .     S
C210   C219    1.397   .     A
C211   C218    1.422   .     S
C215   C223    1.422   .     S
C216   C222    1.422   .     S
C217   C221    1.422   .     S
C218   O258    1.289   .     A
C218   O257    1.289   .     A
C219   C220    1.422   .     S
C220   O260    1.289   .     A
C220   O248    1.289   .     A
C221   O247    1.289   .     A
C221   O246    1.289   .     A
C222   O252    1.289   .     A
C222   O249    1.289   .     A
C223   O250    1.289   .     A
C223   O251    1.289   .     A
C224   C892    1.423   1_554 S
C224   N242    1.372   .     S
N241   Zn261   2.025   .     S
N242   Zn262   2.025   .     S
N243   Zn263   2.025   .     S
N244   Zn264   2.025   .     S
O245   Zn261   2.002   .     S
O246   Zn264   2.002   .     S
O247   Zn263   2.002   .     S
O248   Zn88    2.002   1_565 S
O249   Zn88    2.002   1_565 S
O250   Zn263   2.002   .     S
O251   Zn264   2.002   .     S
O252   Zn87    2.002   1_565 S
O253   Zn350   2.002   .     S
O254   Zn349   2.002   .     S
O255   Zn262   2.002   .     S
O256   Zn350   2.002   .     S
O257   Zn261   2.002   .     S
O258   Zn262   2.002   .     S
O259   Zn349   2.002   .     S
O260   Zn87    2.002   1_565 S
Zn261  O342    2.002   1_455 S
Zn261  O347    2.002   1_455 S
Zn262  O344    2.002   1_455 S
Zn262  O341    2.002   1_455 S
Br265  C312    1.921   .     S
Br266  C274    1.921   .     S
Br267  C275    1.921   .     S
Br268  C276    1.921   .     S
Br269  C277    1.921   .     S
Br270  C278    1.921   .     S
Br271  C279    1.921   .     S
Br272  C280    1.921   .     S
C273   O333    1.289   .     A
C273   O343    1.289   .     A
C273   C302    1.422   .     S
C274   C627    1.423   .     S
C274   N329    1.372   .     S
C275   N330    1.372   .     A
C275   C978    1.423   1_554 S
C276   C664    1.423   .     S
C276   N329    1.372   .     S
C277   N332    1.372   .     A
C277   C984    1.423   1_554 S
C278   C631    1.423   .     S
C278   N155    1.372   1_565 S
C279   C982    1.423   1_554 S
C279   N156    1.372   1_565 S
C280   N331    1.372   .     A
C280   C629    1.423   .     S
C281   C300    1.397   .     A
C281   H313    1.083   .     S
C281   C292    1.369   .     A
C282   C299    1.397   .     A
C282   H321    1.083   .     S
C282   C293    1.369   .     A
C283   C290    1.369   .     A
C283   H322    1.083   .     S
C283   C299    1.397   .     A
C284   O341    1.289   .     A
C284   O342    1.289   .     A
C284   C301    1.422   .     S
C285   C300    1.397   .     A
C285   H323    1.083   .     S
C285   C291    1.369   .     A
C286   H324    1.083   .     S
C286   C302    1.397   .     A
C286   C297    1.369   .     A
C287   C298    1.369   .     A
C287   C301    1.397   .     A
C287   H325    1.083   .     S
C288   C301    1.397   .     A
C288   H326    1.083   .     S
C288   C294    1.369   .     A
C289   H327    1.083   .     S
C289   C296    1.369   .     A
C289   C302    1.397   .     A
C290   H328    1.083   .     S
C290   C304    1.397   .     A
C291   C303    1.397   .     A
C291   H314    1.083   .     S
C292   H315    1.083   .     S
C292   C303    1.397   .     A
C293   C304    1.397   .     A
C293   H316    1.083   .     S
C294   H317    1.083   .     S
C294   C307    1.397   .     A
C295   O344    1.289   .     A
C295   O347    1.289   .     A
C295   C300    1.422   .     S
C296   C305    1.397   .     A
C296   H318    1.083   .     S
C297   H319    1.083   .     S
C297   C305    1.397   .     A
C298   H320    1.083   .     S
C298   C307    1.397   .     A
C299   C306    1.422   .     S
C303   C311    1.422   .     S
C304   C310    1.422   .     S
C305   C309    1.422   .     S
C306   O346    1.289   .     A
C306   O345    1.289   .     A
C307   C308    1.422   .     S
C308   O348    1.289   .     A
C308   O336    1.289   .     A
C309   O335    1.289   .     A
C309   O334    1.289   .     A
C310   O340    1.289   .     A
C310   O337    1.289   .     A
C311   O338    1.289   .     A
C311   O339    1.289   .     A
C312   C980    1.423   1_554 S
C312   N330    1.372   .     S
N329   Zn349   2.025   .     S
N330   Zn350   2.025   .     S
N331   Zn351   2.025   .     S
N332   Zn352   2.025   .     S
O333   Zn349   2.002   .     S
O334   Zn352   2.002   .     S
O335   Zn351   2.002   .     S
O336   Zn176   2.002   1_565 S
O337   Zn176   2.002   1_565 S
O338   Zn351   2.002   .     S
O339   Zn352   2.002   .     S
O340   Zn175   2.002   1_565 S
O341   Zn262   2.002   1_655 S
O342   Zn261   2.002   1_655 S
O343   Zn350   2.002   .     S
O344   Zn262   2.002   1_655 S
O345   Zn349   2.002   .     S
O346   Zn350   2.002   .     S
O347   Zn261   2.002   1_655 S
O348   Zn175   2.002   1_565 S
Br353  C400    1.921   .     S
Br354  C362    1.921   .     S
Br355  C363    1.921   .     S
Br356  C364    1.921   .     S
Br357  C365    1.921   .     S
Br358  C366    1.921   .     S
Br359  C367    1.921   .     S
Br360  C368    1.921   .     S
C361   O421    1.289   .     A
C361   O431    1.289   .     A
C361   C390    1.422   .     S
C362   C715    1.423   .     S
C362   N417    1.372   .     S
C363   N418    1.372   .     A
C364   C752    1.423   .     S
C364   N417    1.372   .     S
C365   N420    1.372   .     A
C366   C719    1.423   .     S
C366   N595    1.372   .     S
C367   N596    1.372   .     S
C368   N419    1.372   .     A
C368   C717    1.423   .     S
C369   C388    1.397   .     A
C369   H401    1.083   .     S
C369   C380    1.369   .     A
C370   C387    1.397   .     A
C370   H409    1.083   .     S
C370   C381    1.369   .     A
C371   C378    1.369   .     A
C371   H410    1.083   .     S
C371   C387    1.397   .     A
C372   O429    1.289   .     A
C372   O430    1.289   .     A
C372   C389    1.422   .     S
C373   C388    1.397   .     A
C373   H411    1.083   .     S
C373   C379    1.369   .     A
C374   H412    1.083   .     S
C374   C390    1.397   .     A
C374   C385    1.369   .     A
C375   C386    1.369   .     A
C375   C389    1.397   .     A
C375   H413    1.083   .     S
C376   C389    1.397   .     A
C376   H414    1.083   .     S
C376   C382    1.369   .     A
C377   H415    1.083   .     S
C377   C384    1.369   .     A
C377   C390    1.397   .     A
C378   H416    1.083   .     S
C378   C392    1.397   .     A
C379   C391    1.397   .     A
C379   H402    1.083   .     S
C380   H403    1.083   .     S
C380   C391    1.397   .     A
C381   C392    1.397   .     A
C381   H404    1.083   .     S
C382   H405    1.083   .     S
C382   C395    1.397   .     A
C383   O432    1.289   .     A
C383   O435    1.289   .     A
C383   C388    1.422   .     S
C384   C393    1.397   .     A
C384   H406    1.083   .     S
C385   H407    1.083   .     S
C385   C393    1.397   .     A
C386   H408    1.083   .     S
C386   C395    1.397   .     A
C387   C394    1.422   .     S
C391   C399    1.422   .     S
C392   C398    1.422   .     S
C393   C397    1.422   .     S
C394   O434    1.289   .     A
C394   O433    1.289   .     A
C395   C396    1.422   .     S
C396   O436    1.289   .     A
C396   O424    1.289   .     A
C397   O423    1.289   .     A
C397   O422    1.289   .     A
C398   O428    1.289   .     A
C398   O425    1.289   .     A
C399   O426    1.289   .     A
C399   O427    1.289   .     A
C400   N418    1.372   .     S
N417   Zn437   2.025   .     S
N418   Zn438   2.025   .     S
N419   Zn439   2.025   .     S
N419   C542    1.372   1_545 S
N420   Zn440   2.025   .     S
N420   C543    1.372   1_545 S
O421   Zn437   2.002   .     S
O422   Zn440   2.002   .     S
O423   Zn439   2.002   .     S
O424   Zn616   2.002   .     S
O425   Zn616   2.002   .     S
O426   Zn439   2.002   .     S
O427   Zn440   2.002   .     S
O428   Zn615   2.002   .     S
O429   Zn526   2.002   .     S
O430   Zn525   2.002   .     S
O431   Zn438   2.002   .     S
O432   Zn526   2.002   .     S
O433   Zn437   2.002   .     S
O434   Zn438   2.002   .     S
O435   Zn525   2.002   .     S
O436   Zn615   2.002   .     S
Zn437  O518    2.002   1_455 S
Zn437  O523    2.002   1_455 S
Zn438  O520    2.002   1_455 S
Zn438  O517    2.002   1_455 S
Zn439  O604    2.002   1_545 S
Zn439  O612    2.002   1_545 S
Zn440  O601    2.002   1_545 S
Zn440  O600    2.002   1_545 S
Br441  C488    1.921   .     S
Br442  C450    1.921   .     S
Br443  C451    1.921   .     S
Br444  C452    1.921   .     S
Br445  C453    1.921   .     S
Br446  C454    1.921   .     S
Br447  C455    1.921   .     S
Br448  C456    1.921   .     S
C449   O509    1.289   .     A
C449   O519    1.289   .     A
C449   C478    1.422   .     S
C450   C803    1.423   .     S
C450   N505    1.372   .     S
C451   N506    1.372   .     A
C452   C840    1.423   .     S
C452   N505    1.372   .     S
C453   N508    1.372   .     A
C454   C807    1.423   .     S
C454   N683    1.372   .     S
C455   N684    1.372   .     S
C456   N507    1.372   .     A
C456   C805    1.423   .     S
C457   C476    1.397   .     A
C457   H489    1.083   .     S
C457   C468    1.369   .     A
C458   C475    1.397   .     A
C458   H497    1.083   .     S
C458   C469    1.369   .     A
C459   C466    1.369   .     A
C459   H498    1.083   .     S
C459   C475    1.397   .     A
C460   O517    1.289   .     A
C460   O518    1.289   .     A
C460   C477    1.422   .     S
C461   C476    1.397   .     A
C461   H499    1.083   .     S
C461   C467    1.369   .     A
C462   H500    1.083   .     S
C462   C478    1.397   .     A
C462   C473    1.369   .     A
C463   C474    1.369   .     A
C463   C477    1.397   .     A
C463   H501    1.083   .     S
C464   C477    1.397   .     A
C464   H502    1.083   .     S
C464   C470    1.369   .     A
C465   H503    1.083   .     S
C465   C472    1.369   .     A
C465   C478    1.397   .     A
C466   H504    1.083   .     S
C466   C480    1.397   .     A
C467   C479    1.397   .     A
C467   H490    1.083   .     S
C468   H491    1.083   .     S
C468   C479    1.397   .     A
C469   C480    1.397   .     A
C469   H492    1.083   .     S
C470   H493    1.083   .     S
C470   C483    1.397   .     A
C471   O520    1.289   .     A
C471   O523    1.289   .     A
C471   C476    1.422   .     S
C472   C481    1.397   .     A
C472   H494    1.083   .     S
C473   H495    1.083   .     S
C473   C481    1.397   .     A
C474   H496    1.083   .     S
C474   C483    1.397   .     A
C475   C482    1.422   .     S
C479   C487    1.422   .     S
C480   C486    1.422   .     S
C481   C485    1.422   .     S
C482   O522    1.289   .     A
C482   O521    1.289   .     A
C483   C484    1.422   .     S
C484   O524    1.289   .     A
C484   O512    1.289   .     A
C485   O511    1.289   .     A
C485   O510    1.289   .     A
C486   O516    1.289   .     A
C486   O513    1.289   .     A
C487   O514    1.289   .     A
C487   O515    1.289   .     A
C488   N506    1.372   .     S
N505   Zn525   2.025   .     S
N506   Zn526   2.025   .     S
N507   Zn527   2.025   .     S
N507   C630    1.372   1_545 S
N508   Zn528   2.025   .     S
N508   C631    1.372   1_545 S
O509   Zn525   2.002   .     S
O510   Zn528   2.002   .     S
O511   Zn527   2.002   .     S
O512   Zn704   2.002   .     S
O513   Zn704   2.002   .     S
O514   Zn527   2.002   .     S
O515   Zn528   2.002   .     S
O516   Zn703   2.002   .     S
O517   Zn438   2.002   1_655 S
O518   Zn437   2.002   1_655 S
O519   Zn526   2.002   .     S
O520   Zn438   2.002   1_655 S
O521   Zn525   2.002   .     S
O522   Zn526   2.002   .     S
O523   Zn437   2.002   1_655 S
O524   Zn703   2.002   .     S
Zn527  O692    2.002   1_545 S
Zn527  O700    2.002   1_545 S
Zn528  O689    2.002   1_545 S
Zn528  O688    2.002   1_545 S
Br529  C576    1.921   .     S
Br530  C538    1.921   .     S
Br531  C539    1.921   .     S
Br532  C540    1.921   .     S
Br533  C541    1.921   .     S
Br534  C542    1.921   .     S
Br535  C543    1.921   .     S
Br536  C544    1.921   .     S
C537   O597    1.289   .     A
C537   O607    1.289   .     A
C537   C566    1.422   .     S
C538   C891    1.423   .     S
C538   N593    1.372   .     S
C539   N594    1.372   .     A
C540   C928    1.423   .     S
C540   N593    1.372   .     S
C541   N596    1.372   .     A
C542   C895    1.423   .     S
C542   N419    1.372   1_565 S
C543   N420    1.372   1_565 S
C544   N595    1.372   .     A
C544   C893    1.423   .     S
C545   C564    1.397   .     A
C545   H577    1.083   .     S
C545   C556    1.369   .     A
C546   C563    1.397   .     A
C546   H585    1.083   .     S
C546   C557    1.369   .     A
C547   C554    1.369   .     A
C547   H586    1.083   .     S
C547   C563    1.397   .     A
C548   O605    1.289   .     A
C548   O606    1.289   .     A
C548   C565    1.422   .     S
C549   C564    1.397   .     A
C549   H587    1.083   .     S
C549   C555    1.369   .     A
C550   H588    1.083   .     S
C550   C566    1.397   .     A
C550   C561    1.369   .     A
C551   C562    1.369   .     A
C551   C565    1.397   .     A
C551   H589    1.083   .     S
C552   C565    1.397   .     A
C552   H590    1.083   .     S
C552   C558    1.369   .     A
C553   H591    1.083   .     S
C553   C560    1.369   .     A
C553   C566    1.397   .     A
C554   H592    1.083   .     S
C554   C568    1.397   .     A
C555   C567    1.397   .     A
C555   H578    1.083   .     S
C556   H579    1.083   .     S
C556   C567    1.397   .     A
C557   C568    1.397   .     A
C557   H580    1.083   .     S
C558   H581    1.083   .     S
C558   C571    1.397   .     A
C559   O608    1.289   .     A
C559   O611    1.289   .     A
C559   C564    1.422   .     S
C560   C569    1.397   .     A
C560   H582    1.083   .     S
C561   H583    1.083   .     S
C561   C569    1.397   .     A
C562   H584    1.083   .     S
C562   C571    1.397   .     A
C563   C570    1.422   .     S
C567   C575    1.422   .     S
C568   C574    1.422   .     S
C569   C573    1.422   .     S
C570   O610    1.289   .     A
C570   O609    1.289   .     A
C571   C572    1.422   .     S
C572   O612    1.289   .     A
C572   O600    1.289   .     A
C573   O599    1.289   .     A
C573   O598    1.289   .     A
C574   O604    1.289   .     A
C574   O601    1.289   .     A
C575   O602    1.289   .     A
C575   O603    1.289   .     A
C576   N594    1.372   .     S
N593   Zn613   2.025   .     S
N594   Zn614   2.025   .     S
N595   Zn615   2.025   .     S
N596   Zn616   2.025   .     S
O597   Zn613   2.002   .     S
O598   Zn616   2.002   .     S
O599   Zn615   2.002   .     S
O600   Zn440   2.002   1_565 S
O601   Zn440   2.002   1_565 S
O602   Zn615   2.002   .     S
O603   Zn616   2.002   .     S
O604   Zn439   2.002   1_565 S
O605   Zn702   2.002   .     S
O606   Zn701   2.002   .     S
O607   Zn614   2.002   .     S
O608   Zn702   2.002   .     S
O609   Zn613   2.002   .     S
O610   Zn614   2.002   .     S
O611   Zn701   2.002   .     S
O612   Zn439   2.002   1_565 S
Zn613  O694    2.002   1_455 S
Zn613  O699    2.002   1_455 S
Zn614  O696    2.002   1_455 S
Zn614  O693    2.002   1_455 S
Br617  C664    1.921   .     S
Br618  C626    1.921   .     S
Br619  C627    1.921   .     S
Br620  C628    1.921   .     S
Br621  C629    1.921   .     S
Br622  C630    1.921   .     S
Br623  C631    1.921   .     S
Br624  C632    1.921   .     S
C625   O685    1.289   .     A
C625   O695    1.289   .     A
C625   C654    1.422   .     S
C626   C979    1.423   .     S
C626   N681    1.372   .     S
C627   N682    1.372   .     A
C628   C1016   1.423   .     S
C628   N681    1.372   .     S
C629   N684    1.372   .     A
C630   C983    1.423   .     S
C630   N507    1.372   1_565 S
C631   N508    1.372   1_565 S
C632   N683    1.372   .     A
C632   C981    1.423   .     S
C633   C652    1.397   .     A
C633   H665    1.083   .     S
C633   C644    1.369   .     A
C634   C651    1.397   .     A
C634   H673    1.083   .     S
C634   C645    1.369   .     A
C635   C642    1.369   .     A
C635   H674    1.083   .     S
C635   C651    1.397   .     A
C636   O693    1.289   .     A
C636   O694    1.289   .     A
C636   C653    1.422   .     S
C637   C652    1.397   .     A
C637   H675    1.083   .     S
C637   C643    1.369   .     A
C638   H676    1.083   .     S
C638   C654    1.397   .     A
C638   C649    1.369   .     A
C639   C650    1.369   .     A
C639   C653    1.397   .     A
C639   H677    1.083   .     S
C640   C653    1.397   .     A
C640   H678    1.083   .     S
C640   C646    1.369   .     A
C641   H679    1.083   .     S
C641   C648    1.369   .     A
C641   C654    1.397   .     A
C642   H680    1.083   .     S
C642   C656    1.397   .     A
C643   C655    1.397   .     A
C643   H666    1.083   .     S
C644   H667    1.083   .     S
C644   C655    1.397   .     A
C645   C656    1.397   .     A
C645   H668    1.083   .     S
C646   H669    1.083   .     S
C646   C659    1.397   .     A
C647   O696    1.289   .     A
C647   O699    1.289   .     A
C647   C652    1.422   .     S
C648   C657    1.397   .     A
C648   H670    1.083   .     S
C649   H671    1.083   .     S
C649   C657    1.397   .     A
C650   H672    1.083   .     S
C650   C659    1.397   .     A
C651   C658    1.422   .     S
C655   C663    1.422   .     S
C656   C662    1.422   .     S
C657   C661    1.422   .     S
C658   O698    1.289   .     A
C658   O697    1.289   .     A
C659   C660    1.422   .     S
C660   O700    1.289   .     A
C660   O688    1.289   .     A
C661   O687    1.289   .     A
C661   O686    1.289   .     A
C662   O692    1.289   .     A
C662   O689    1.289   .     A
C663   O690    1.289   .     A
C663   O691    1.289   .     A
C664   N682    1.372   .     S
N681   Zn701   2.025   .     S
N682   Zn702   2.025   .     S
N683   Zn703   2.025   .     S
N684   Zn704   2.025   .     S
O685   Zn701   2.002   .     S
O686   Zn704   2.002   .     S
O687   Zn703   2.002   .     S
O688   Zn528   2.002   1_565 S
O689   Zn528   2.002   1_565 S
O690   Zn703   2.002   .     S
O691   Zn704   2.002   .     S
O692   Zn527   2.002   1_565 S
O693   Zn614   2.002   1_655 S
O694   Zn613   2.002   1_655 S
O695   Zn702   2.002   .     S
O696   Zn614   2.002   1_655 S
O697   Zn701   2.002   .     S
O698   Zn702   2.002   .     S
O699   Zn613   2.002   1_655 S
O700   Zn527   2.002   1_565 S
Br705  C752    1.921   .     S
Br706  C714    1.921   .     S
Br707  C715    1.921   .     S
Br708  C716    1.921   .     S
Br709  C717    1.921   .     S
Br710  C718    1.921   .     S
Br711  C719    1.921   .     S
Br712  C720    1.921   .     S
C713   O773    1.289   .     A
C713   O783    1.289   .     A
C713   C742    1.422   .     S
C714   C11     1.423   1_556 S
C714   N769    1.372   .     S
C715   N770    1.372   .     A
C716   C48     1.423   1_556 S
C716   N769    1.372   .     S
C717   N772    1.372   .     A
C718   C15     1.423   1_556 S
C718   N947    1.372   .     S
C719   N948    1.372   .     S
C720   N771    1.372   .     A
C720   C13     1.423   1_556 S
C721   C740    1.397   .     A
C721   H753    1.083   .     S
C721   C732    1.369   .     A
C722   C739    1.397   .     A
C722   H761    1.083   .     S
C722   C733    1.369   .     A
C723   C730    1.369   .     A
C723   H762    1.083   .     S
C723   C739    1.397   .     A
C724   O781    1.289   .     A
C724   O782    1.289   .     A
C724   C741    1.422   .     S
C725   C740    1.397   .     A
C725   H763    1.083   .     S
C725   C731    1.369   .     A
C726   H764    1.083   .     S
C726   C742    1.397   .     A
C726   C737    1.369   .     A
C727   C738    1.369   .     A
C727   C741    1.397   .     A
C727   H765    1.083   .     S
C728   C741    1.397   .     A
C728   H766    1.083   .     S
C728   C734    1.369   .     A
C729   H767    1.083   .     S
C729   C736    1.369   .     A
C729   C742    1.397   .     A
C730   H768    1.083   .     S
C730   C744    1.397   .     A
C731   C743    1.397   .     A
C731   H754    1.083   .     S
C732   H755    1.083   .     S
C732   C743    1.397   .     A
C733   C744    1.397   .     A
C733   H756    1.083   .     S
C734   H757    1.083   .     S
C734   C747    1.397   .     A
C735   O784    1.289   .     A
C735   O787    1.289   .     A
C735   C740    1.422   .     S
C736   C745    1.397   .     A
C736   H758    1.083   .     S
C737   H759    1.083   .     S
C737   C745    1.397   .     A
C738   H760    1.083   .     S
C738   C747    1.397   .     A
C739   C746    1.422   .     S
C743   C751    1.422   .     S
C744   C750    1.422   .     S
C745   C749    1.422   .     S
C746   O786    1.289   .     A
C746   O785    1.289   .     A
C747   C748    1.422   .     S
C748   O788    1.289   .     A
C748   O776    1.289   .     A
C749   O775    1.289   .     A
C749   O774    1.289   .     A
C750   O780    1.289   .     A
C750   O777    1.289   .     A
C751   O778    1.289   .     A
C751   O779    1.289   .     A
C752   N770    1.372   .     S
N769   Zn789   2.025   .     S
N770   Zn790   2.025   .     S
N771   Zn791   2.025   .     S
N771   C894    1.372   1_545 S
N772   Zn792   2.025   .     S
N772   C895    1.372   1_545 S
O773   Zn789   2.002   .     S
O774   Zn792   2.002   .     S
O775   Zn791   2.002   .     S
O776   Zn968   2.002   .     S
O777   Zn968   2.002   .     S
O778   Zn791   2.002   .     S
O779   Zn792   2.002   .     S
O780   Zn967   2.002   .     S
O781   Zn878   2.002   .     S
O782   Zn877   2.002   .     S
O783   Zn790   2.002   .     S
O784   Zn878   2.002   .     S
O785   Zn789   2.002   .     S
O786   Zn790   2.002   .     S
O787   Zn877   2.002   .     S
O788   Zn967   2.002   .     S
Zn789  O870    2.002   1_455 S
Zn789  O875    2.002   1_455 S
Zn790  O872    2.002   1_455 S
Zn790  O869    2.002   1_455 S
Zn791  O956    2.002   1_545 S
Zn791  O964    2.002   1_545 S
Zn792  O953    2.002   1_545 S
Zn792  O952    2.002   1_545 S
Br793  C840    1.921   .     S
Br794  C802    1.921   .     S
Br795  C803    1.921   .     S
Br796  C804    1.921   .     S
Br797  C805    1.921   .     S
Br798  C806    1.921   .     S
Br799  C807    1.921   .     S
Br800  C808    1.921   .     S
C801   O861    1.289   .     A
C801   O871    1.289   .     A
C801   C830    1.422   .     S
C802   C99     1.423   1_556 S
C802   N857    1.372   .     S
C803   N858    1.372   .     A
C804   C136    1.423   1_556 S
C804   N857    1.372   .     S
C805   N860    1.372   .     A
C806   C103    1.423   1_556 S
C806   N1035   1.372   .     S
C807   N1036   1.372   .     S
C808   N859    1.372   .     A
C808   C101    1.423   1_556 S
C809   C828    1.397   .     A
C809   H841    1.083   .     S
C809   C820    1.369   .     A
C810   C827    1.397   .     A
C810   H849    1.083   .     S
C810   C821    1.369   .     A
C811   C818    1.369   .     A
C811   H850    1.083   .     S
C811   C827    1.397   .     A
C812   O869    1.289   .     A
C812   O870    1.289   .     A
C812   C829    1.422   .     S
C813   C828    1.397   .     A
C813   H851    1.083   .     S
C813   C819    1.369   .     A
C814   H852    1.083   .     S
C814   C830    1.397   .     A
C814   C825    1.369   .     A
C815   C826    1.369   .     A
C815   C829    1.397   .     A
C815   H853    1.083   .     S
C816   C829    1.397   .     A
C816   H854    1.083   .     S
C816   C822    1.369   .     A
C817   H855    1.083   .     S
C817   C824    1.369   .     A
C817   C830    1.397   .     A
C818   H856    1.083   .     S
C818   C832    1.397   .     A
C819   C831    1.397   .     A
C819   H842    1.083   .     S
C820   H843    1.083   .     S
C820   C831    1.397   .     A
C821   C832    1.397   .     A
C821   H844    1.083   .     S
C822   H845    1.083   .     S
C822   C835    1.397   .     A
C823   O872    1.289   .     A
C823   O875    1.289   .     A
C823   C828    1.422   .     S
C824   C833    1.397   .     A
C824   H846    1.083   .     S
C825   H847    1.083   .     S
C825   C833    1.397   .     A
C826   H848    1.083   .     S
C826   C835    1.397   .     A
C827   C834    1.422   .     S
C831   C839    1.422   .     S
C832   C838    1.422   .     S
C833   C837    1.422   .     S
C834   O874    1.289   .     A
C834   O873    1.289   .     A
C835   C836    1.422   .     S
C836   O876    1.289   .     A
C836   O864    1.289   .     A
C837   O863    1.289   .     A
C837   O862    1.289   .     A
C838   O868    1.289   .     A
C838   O865    1.289   .     A
C839   O866    1.289   .     A
C839   O867    1.289   .     A
C840   N858    1.372   .     S
N857   Zn877   2.025   .     S
N858   Zn878   2.025   .     S
N859   Zn879   2.025   .     S
N859   C982    1.372   1_545 S
N860   Zn880   2.025   .     S
N860   C983    1.372   1_545 S
O861   Zn877   2.002   .     S
O862   Zn880   2.002   .     S
O863   Zn879   2.002   .     S
O864   Zn1056  2.002   .     S
O865   Zn1056  2.002   .     S
O866   Zn879   2.002   .     S
O867   Zn880   2.002   .     S
O868   Zn1055  2.002   .     S
O869   Zn790   2.002   1_655 S
O870   Zn789   2.002   1_655 S
O871   Zn878   2.002   .     S
O872   Zn790   2.002   1_655 S
O873   Zn877   2.002   .     S
O874   Zn878   2.002   .     S
O875   Zn789   2.002   1_655 S
O876   Zn1055  2.002   .     S
Zn879  O1044   2.002   1_545 S
Zn879  O1052   2.002   1_545 S
Zn880  O1041   2.002   1_545 S
Zn880  O1040   2.002   1_545 S
Br881  C928    1.921   .     S
Br882  C890    1.921   .     S
Br883  C891    1.921   .     S
Br884  C892    1.921   .     S
Br885  C893    1.921   .     S
Br886  C894    1.921   .     S
Br887  C895    1.921   .     S
Br888  C896    1.921   .     S
C889   O949    1.289   .     A
C889   O959    1.289   .     A
C889   C918    1.422   .     S
C890   C187    1.423   1_556 S
C890   N945    1.372   .     S
C891   N946    1.372   .     A
C892   C224    1.423   1_556 S
C892   N945    1.372   .     S
C893   N948    1.372   .     A
C894   C191    1.423   1_556 S
C894   N771    1.372   1_565 S
C895   N772    1.372   1_565 S
C896   N947    1.372   .     A
C896   C189    1.423   1_556 S
C897   C916    1.397   .     A
C897   H929    1.083   .     S
C897   C908    1.369   .     A
C898   C915    1.397   .     A
C898   H937    1.083   .     S
C898   C909    1.369   .     A
C899   C906    1.369   .     A
C899   H938    1.083   .     S
C899   C915    1.397   .     A
C900   O957    1.289   .     A
C900   O958    1.289   .     A
C900   C917    1.422   .     S
C901   C916    1.397   .     A
C901   H939    1.083   .     S
C901   C907    1.369   .     A
C902   H940    1.083   .     S
C902   C918    1.397   .     A
C902   C913    1.369   .     A
C903   C914    1.369   .     A
C903   C917    1.397   .     A
C903   H941    1.083   .     S
C904   C917    1.397   .     A
C904   H942    1.083   .     S
C904   C910    1.369   .     A
C905   H943    1.083   .     S
C905   C912    1.369   .     A
C905   C918    1.397   .     A
C906   H944    1.083   .     S
C906   C920    1.397   .     A
C907   C919    1.397   .     A
C907   H930    1.083   .     S
C908   H931    1.083   .     S
C908   C919    1.397   .     A
C909   C920    1.397   .     A
C909   H932    1.083   .     S
C910   H933    1.083   .     S
C910   C923    1.397   .     A
C911   O960    1.289   .     A
C911   O963    1.289   .     A
C911   C916    1.422   .     S
C912   C921    1.397   .     A
C912   H934    1.083   .     S
C913   H935    1.083   .     S
C913   C921    1.397   .     A
C914   H936    1.083   .     S
C914   C923    1.397   .     A
C915   C922    1.422   .     S
C919   C927    1.422   .     S
C920   C926    1.422   .     S
C921   C925    1.422   .     S
C922   O962    1.289   .     A
C922   O961    1.289   .     A
C923   C924    1.422   .     S
C924   O964    1.289   .     A
C924   O952    1.289   .     A
C925   O951    1.289   .     A
C925   O950    1.289   .     A
C926   O956    1.289   .     A
C926   O953    1.289   .     A
C927   O954    1.289   .     A
C927   O955    1.289   .     A
C928   N946    1.372   .     S
N945   Zn965   2.025   .     S
N946   Zn966   2.025   .     S
N947   Zn967   2.025   .     S
N948   Zn968   2.025   .     S
O949   Zn965   2.002   .     S
O950   Zn968   2.002   .     S
O951   Zn967   2.002   .     S
O952   Zn792   2.002   1_565 S
O953   Zn792   2.002   1_565 S
O954   Zn967   2.002   .     S
O955   Zn968   2.002   .     S
O956   Zn791   2.002   1_565 S
O957   Zn1054  2.002   .     S
O958   Zn1053  2.002   .     S
O959   Zn966   2.002   .     S
O960   Zn1054  2.002   .     S
O961   Zn965   2.002   .     S
O962   Zn966   2.002   .     S
O963   Zn1053  2.002   .     S
O964   Zn791   2.002   1_565 S
Zn965  O1046   2.002   1_455 S
Zn965  O1051   2.002   1_455 S
Zn966  O1048   2.002   1_455 S
Zn966  O1045   2.002   1_455 S
Br969  C1016   1.921   .     S
Br970  C978    1.921   .     S
Br971  C979    1.921   .     S
Br972  C980    1.921   .     S
Br973  C981    1.921   .     S
Br974  C982    1.921   .     S
Br975  C983    1.921   .     S
Br976  C984    1.921   .     S
C977   O1037   1.289   .     A
C977   O1047   1.289   .     A
C977   C1006   1.422   .     S
C978   C275    1.423   1_556 S
C978   N1033   1.372   .     S
C979   N1034   1.372   .     A
C980   C312    1.423   1_556 S
C980   N1033   1.372   .     S
C981   N1036   1.372   .     A
C982   C279    1.423   1_556 S
C982   N859    1.372   1_565 S
C983   N860    1.372   1_565 S
C984   N1035   1.372   .     A
C984   C277    1.423   1_556 S
C985   C1004   1.397   .     A
C985   H1017   1.083   .     S
C985   C996    1.369   .     A
C986   C1003   1.397   .     A
C986   H1025   1.083   .     S
C986   C997    1.369   .     A
C987   C994    1.369   .     A
C987   H1026   1.083   .     S
C987   C1003   1.397   .     A
C988   O1045   1.289   .     A
C988   O1046   1.289   .     A
C988   C1005   1.422   .     S
C989   C1004   1.397   .     A
C989   H1027   1.083   .     S
C989   C995    1.369   .     A
C990   H1028   1.083   .     S
C990   C1006   1.397   .     A
C990   C1001   1.369   .     A
C991   C1002   1.369   .     A
C991   C1005   1.397   .     A
C991   H1029   1.083   .     S
C992   C1005   1.397   .     A
C992   H1030   1.083   .     S
C992   C998    1.369   .     A
C993   H1031   1.083   .     S
C993   C1000   1.369   .     A
C993   C1006   1.397   .     A
C994   H1032   1.083   .     S
C994   C1008   1.397   .     A
C995   C1007   1.397   .     A
C995   H1018   1.083   .     S
C996   H1019   1.083   .     S
C996   C1007   1.397   .     A
C997   C1008   1.397   .     A
C997   H1020   1.083   .     S
C998   H1021   1.083   .     S
C998   C1011   1.397   .     A
C999   O1048   1.289   .     A
C999   O1051   1.289   .     A
C999   C1004   1.422   .     S
C1000  C1009   1.397   .     A
C1000  H1022   1.083   .     S
C1001  H1023   1.083   .     S
C1001  C1009   1.397   .     A
C1002  H1024   1.083   .     S
C1002  C1011   1.397   .     A
C1003  C1010   1.422   .     S
C1007  C1015   1.422   .     S
C1008  C1014   1.422   .     S
C1009  C1013   1.422   .     S
C1010  O1050   1.289   .     A
C1010  O1049   1.289   .     A
C1011  C1012   1.422   .     S
C1012  O1052   1.289   .     A
C1012  O1040   1.289   .     A
C1013  O1039   1.289   .     A
C1013  O1038   1.289   .     A
C1014  O1044   1.289   .     A
C1014  O1041   1.289   .     A
C1015  O1042   1.289   .     A
C1015  O1043   1.289   .     A
C1016  N1034   1.372   .     S
N1033  Zn1053  2.025   .     S
N1034  Zn1054  2.025   .     S
N1035  Zn1055  2.025   .     S
N1036  Zn1056  2.025   .     S
O1037  Zn1053  2.002   .     S
O1038  Zn1056  2.002   .     S
O1039  Zn1055  2.002   .     S
O1040  Zn880   2.002   1_565 S
O1041  Zn880   2.002   1_565 S
O1042  Zn1055  2.002   .     S
O1043  Zn1056  2.002   .     S
O1044  Zn879   2.002   1_565 S
O1045  Zn966   2.002   1_655 S
O1046  Zn965   2.002   1_655 S
O1047  Zn1054  2.002   .     S
O1048  Zn966   2.002   1_655 S
O1049  Zn1053  2.002   .     S
O1050  Zn1054  2.002   .     S
O1051  Zn965   2.002   1_655 S
O1052  Zn879   2.002   1_565 S
