data_str_m3_o1_o18_pcu_sym.176
_audit_creation_date              2020-01-03
_audit_creation_method            'Materials Studio'
_symmetry_space_group_name_H-M    'P1'
_symmetry_Int_Tables_number       1
_symmetry_cell_setting            triclinic
loop_
_symmetry_equiv_pos_as_xyz
  x,y,z
_cell_length_a                    29.5397
_cell_length_b                    32.1231
_cell_length_c                    30.8798
_cell_angle_alpha                 90.1466
_cell_angle_beta                  66.5297
_cell_angle_gamma                 89.9811
loop_
_atom_site_label
_atom_site_type_symbol
_atom_site_fract_x
_atom_site_fract_y
_atom_site_fract_z
_atom_site_U_iso_or_equiv
_atom_site_adp_type
_atom_site_occupancy
C1     C     0.16667   0.24670   0.25001   0.00000  Uiso   1.00
C2     C     0.16666   0.08663   0.24999   0.00000  Uiso   1.00
C3     C     0.11319   0.14935   0.05302   0.00000  Uiso   1.00
C4     C     0.22014   0.18398   0.44698   0.00000  Uiso   1.00
C5     C     0.07840   0.13876   0.03502   0.00000  Uiso   1.00
C6     C     0.25493   0.19457   0.46499   0.00000  Uiso   1.00
C7     C     0.21141   0.31196   0.23745   0.00000  Uiso   1.00
C8     C     0.12192   0.02137   0.26255   0.00000  Uiso   1.00
C9     C     0.21140   0.02129   0.23746   0.00000  Uiso   1.00
C10    C     0.12193   0.31205   0.26254   0.00000  Uiso   1.00
C11    C     0.16666   0.04249   0.25001   0.00000  Uiso   1.00
C12    C     0.16667   0.29084   0.24999   0.00000  Uiso   1.00
C13    C     0.32231   0.14242   0.21886   0.00000  Uiso   1.00
C14    C     0.01103   0.19092   0.28114   0.00000  Uiso   1.00
C15    C     0.03690   0.14239   0.21890   0.00000  Uiso   1.00
C16    C     0.29643   0.19094   0.28110   0.00000  Uiso   1.00
C17    C     0.13543   0.16551   0.33837   0.00000  Uiso   1.00
C18    C     0.19791   0.16782   0.16163   0.00000  Uiso   1.00
C19    C     0.11468   0.16086   0.38979   0.00000  Uiso   1.00
C20    C     0.21865   0.17247   0.11021   0.00000  Uiso   1.00
C21    C     0.05822   0.13021   0.46361   0.00000  Uiso   1.00
C22    C     0.27511   0.20313   0.03639   0.00000  Uiso   1.00
C23    C     0.07231   0.13717   0.41490   0.00000  Uiso   1.00
C24    C     0.26102   0.19617   0.08510   0.00000  Uiso   1.00
C25    C     0.14298   0.17619   0.41264   0.00000  Uiso   1.00
C26    C     0.19036   0.15715   0.08736   0.00000  Uiso   1.00
C27    C     0.13509   0.16370   0.45827   0.00000  Uiso   1.00
C28    C     0.19824   0.16963   0.04173   0.00000  Uiso   1.00
C29    C     0.08962   0.14377   0.48621   0.00000  Uiso   1.00
C30    C     0.24371   0.18956   0.01379   0.00000  Uiso   1.00
C31    C     0.17200   0.17077   0.47616   0.00000  Uiso   1.00
C32    C     0.16133   0.16257   0.02384   0.00000  Uiso   1.00
H33    H     0.24625   0.29562   0.22730   0.00000  Uiso   1.00
H34    H     0.08709   0.03771   0.27270   0.00000  Uiso   1.00
H35    H     0.06537   0.12294   0.19402   0.00000  Uiso   1.00
H36    H     0.26797   0.21039   0.30598   0.00000  Uiso   1.00
N37    N     0.04759   0.16668   0.25001   0.00000  Uiso   1.00
N38    N     0.28574   0.16666   0.24999   0.00000  Uiso   1.00
O39    O     0.12846   0.22775   0.25001   0.00000  Uiso   1.00
O40    O     0.20488   0.10558   0.25000   0.00000  Uiso   1.00
O41    O     0.20490   0.22774   0.25000   0.00000  Uiso   1.00
O42    O     0.12843   0.10559   0.25000   0.00000  Uiso   1.00
O43    O     0.10661   0.16667   0.31613   0.00000  Uiso   1.00
O44    O     0.22672   0.16666   0.18388   0.00000  Uiso   1.00
O45    O     0.18305   0.16666   0.31612   0.00000  Uiso   1.00
O46    O     0.15028   0.16667   0.18388   0.00000  Uiso   1.00
Zn47   Zn    0.11562   0.16667   0.25000   0.00000  Uiso   1.00
Zn48   Zn    0.21771   0.16666   0.25000   0.00000  Uiso   1.00
Cl49   Cl    0.02111   0.12235   0.07798   0.00000  Uiso   1.00
Cl50   Cl    0.31222   0.21098   0.42202   0.00000  Uiso   1.00
H51    H     0.16085   0.13611   0.10689   0.00000  Uiso   1.00
H52    H     0.17249   0.19723   0.39311   0.00000  Uiso   1.00
Cl53   Cl    0.29514   0.21949   0.11472   0.00000  Uiso   1.00
Cl54   Cl    0.03819   0.11385   0.38528   0.00000  Uiso   1.00
Cl55   Cl    0.00386   0.10067   0.49226   0.00000  Uiso   1.00
Cl56   Cl    0.32947   0.23267   0.00774   0.00000  Uiso   1.00
H57    H     0.10083   0.14767   0.09086   0.00000  Uiso   1.00
H58    H     0.23250   0.18567   0.40914   0.00000  Uiso   1.00
H59    H     0.24624   0.03755   0.22732   0.00000  Uiso   1.00
H60    H     0.08709   0.29578   0.27268   0.00000  Uiso   1.00
H61    H     0.31449   0.12303   0.19398   0.00000  Uiso   1.00
H62    H     0.01884   0.21030   0.30602   0.00000  Uiso   1.00
C63    C     0.50001   0.24670   0.25001   0.00000  Uiso   1.00
C64    C     0.49999   0.08663   0.24999   0.00000  Uiso   1.00
C65    C     0.44652   0.14935   0.05302   0.00000  Uiso   1.00
C66    C     0.55348   0.18398   0.44698   0.00000  Uiso   1.00
C67    C     0.41173   0.13876   0.03502   0.00000  Uiso   1.00
C68    C     0.58827   0.19457   0.46499   0.00000  Uiso   1.00
C69    C     0.54474   0.31196   0.23745   0.00000  Uiso   1.00
C70    C     0.45526   0.02137   0.26255   0.00000  Uiso   1.00
C71    C     0.54474   0.02129   0.23746   0.00000  Uiso   1.00
C72    C     0.45526   0.31205   0.26254   0.00000  Uiso   1.00
C73    C     0.50000   0.04249   0.25001   0.00000  Uiso   1.00
C74    C     0.50000   0.29084   0.24999   0.00000  Uiso   1.00
C75    C     0.65564   0.14242   0.21886   0.00000  Uiso   1.00
C76    C     0.34436   0.19092   0.28114   0.00000  Uiso   1.00
C77    C     0.37023   0.14239   0.21890   0.00000  Uiso   1.00
C78    C     0.62977   0.19094   0.28110   0.00000  Uiso   1.00
C79    C     0.46876   0.16551   0.33837   0.00000  Uiso   1.00
C80    C     0.53124   0.16782   0.16163   0.00000  Uiso   1.00
C81    C     0.44801   0.16086   0.38979   0.00000  Uiso   1.00
C82    C     0.55199   0.17247   0.11021   0.00000  Uiso   1.00
C83    C     0.39155   0.13021   0.46361   0.00000  Uiso   1.00
C84    C     0.60845   0.20313   0.03639   0.00000  Uiso   1.00
C85    C     0.40565   0.13717   0.41490   0.00000  Uiso   1.00
C86    C     0.59435   0.19617   0.08510   0.00000  Uiso   1.00
C87    C     0.47631   0.17619   0.41264   0.00000  Uiso   1.00
C88    C     0.52369   0.15715   0.08736   0.00000  Uiso   1.00
C89    C     0.46843   0.16370   0.45827   0.00000  Uiso   1.00
C90    C     0.53157   0.16963   0.04173   0.00000  Uiso   1.00
C91    C     0.42296   0.14377   0.48621   0.00000  Uiso   1.00
C92    C     0.57704   0.18956   0.01379   0.00000  Uiso   1.00
C93    C     0.50533   0.17077   0.47616   0.00000  Uiso   1.00
C94    C     0.49467   0.16257   0.02384   0.00000  Uiso   1.00
H95    H     0.57958   0.29562   0.22730   0.00000  Uiso   1.00
H96    H     0.42042   0.03771   0.27270   0.00000  Uiso   1.00
H97    H     0.39870   0.12294   0.19402   0.00000  Uiso   1.00
H98    H     0.60130   0.21039   0.30598   0.00000  Uiso   1.00
N99    N     0.38093   0.16668   0.25001   0.00000  Uiso   1.00
N100   N     0.61907   0.16666   0.24999   0.00000  Uiso   1.00
O101   O     0.46179   0.22775   0.25001   0.00000  Uiso   1.00
O102   O     0.53821   0.10558   0.25000   0.00000  Uiso   1.00
O103   O     0.53823   0.22774   0.25000   0.00000  Uiso   1.00
O104   O     0.46177   0.10559   0.25000   0.00000  Uiso   1.00
O105   O     0.43994   0.16667   0.31613   0.00000  Uiso   1.00
O106   O     0.56006   0.16666   0.18388   0.00000  Uiso   1.00
O107   O     0.51639   0.16666   0.31612   0.00000  Uiso   1.00
O108   O     0.48361   0.16667   0.18388   0.00000  Uiso   1.00
Zn109  Zn    0.44896   0.16667   0.25000   0.00000  Uiso   1.00
Zn110  Zn    0.55104   0.16666   0.25000   0.00000  Uiso   1.00
Cl111  Cl    0.35445   0.12235   0.07798   0.00000  Uiso   1.00
Cl112  Cl    0.64555   0.21098   0.42202   0.00000  Uiso   1.00
H113   H     0.49418   0.13611   0.10689   0.00000  Uiso   1.00
H114   H     0.50582   0.19723   0.39311   0.00000  Uiso   1.00
Cl115  Cl    0.62847   0.21949   0.11472   0.00000  Uiso   1.00
Cl116  Cl    0.37153   0.11385   0.38528   0.00000  Uiso   1.00
Cl117  Cl    0.33720   0.10067   0.49226   0.00000  Uiso   1.00
Cl118  Cl    0.66280   0.23267   0.00774   0.00000  Uiso   1.00
H119   H     0.43416   0.14767   0.09086   0.00000  Uiso   1.00
H120   H     0.56584   0.18567   0.40914   0.00000  Uiso   1.00
H121   H     0.57957   0.03755   0.22732   0.00000  Uiso   1.00
H122   H     0.42043   0.29578   0.27268   0.00000  Uiso   1.00
H123   H     0.64783   0.12303   0.19398   0.00000  Uiso   1.00
H124   H     0.35217   0.21030   0.30602   0.00000  Uiso   1.00
C125   C     0.83334   0.24670   0.25001   0.00000  Uiso   1.00
C126   C     0.83333   0.08663   0.24999   0.00000  Uiso   1.00
C127   C     0.77986   0.14935   0.05302   0.00000  Uiso   1.00
C128   C     0.88681   0.18398   0.44698   0.00000  Uiso   1.00
C129   C     0.74507   0.13876   0.03502   0.00000  Uiso   1.00
C130   C     0.92160   0.19457   0.46499   0.00000  Uiso   1.00
C131   C     0.87808   0.31196   0.23745   0.00000  Uiso   1.00
C132   C     0.78859   0.02137   0.26255   0.00000  Uiso   1.00
C133   C     0.87807   0.02129   0.23746   0.00000  Uiso   1.00
C134   C     0.78860   0.31205   0.26254   0.00000  Uiso   1.00
C135   C     0.83333   0.04249   0.25001   0.00000  Uiso   1.00
C136   C     0.83334   0.29084   0.24999   0.00000  Uiso   1.00
C137   C     0.98897   0.14242   0.21886   0.00000  Uiso   1.00
C138   C     0.67769   0.19092   0.28114   0.00000  Uiso   1.00
C139   C     0.70357   0.14239   0.21890   0.00000  Uiso   1.00
C140   C     0.96310   0.19094   0.28110   0.00000  Uiso   1.00
C141   C     0.80209   0.16551   0.33837   0.00000  Uiso   1.00
C142   C     0.86457   0.16782   0.16163   0.00000  Uiso   1.00
C143   C     0.78135   0.16086   0.38979   0.00000  Uiso   1.00
C144   C     0.88532   0.17247   0.11021   0.00000  Uiso   1.00
C145   C     0.72489   0.13021   0.46361   0.00000  Uiso   1.00
C146   C     0.94178   0.20313   0.03639   0.00000  Uiso   1.00
C147   C     0.73898   0.13717   0.41490   0.00000  Uiso   1.00
C148   C     0.92769   0.19617   0.08510   0.00000  Uiso   1.00
C149   C     0.80964   0.17619   0.41264   0.00000  Uiso   1.00
C150   C     0.85702   0.15715   0.08736   0.00000  Uiso   1.00
C151   C     0.80176   0.16370   0.45827   0.00000  Uiso   1.00
C152   C     0.86491   0.16963   0.04173   0.00000  Uiso   1.00
C153   C     0.75629   0.14377   0.48621   0.00000  Uiso   1.00
C154   C     0.91038   0.18956   0.01379   0.00000  Uiso   1.00
C155   C     0.83867   0.17077   0.47616   0.00000  Uiso   1.00
C156   C     0.82800   0.16257   0.02384   0.00000  Uiso   1.00
H157   H     0.91291   0.29562   0.22730   0.00000  Uiso   1.00
H158   H     0.75375   0.03771   0.27270   0.00000  Uiso   1.00
H159   H     0.73203   0.12294   0.19402   0.00000  Uiso   1.00
H160   H     0.93463   0.21039   0.30598   0.00000  Uiso   1.00
N161   N     0.71426   0.16668   0.25001   0.00000  Uiso   1.00
N162   N     0.95241   0.16666   0.24999   0.00000  Uiso   1.00
O163   O     0.79512   0.22775   0.25001   0.00000  Uiso   1.00
O164   O     0.87154   0.10558   0.25000   0.00000  Uiso   1.00
O165   O     0.87157   0.22774   0.25000   0.00000  Uiso   1.00
O166   O     0.79510   0.10559   0.25000   0.00000  Uiso   1.00
O167   O     0.77328   0.16667   0.31613   0.00000  Uiso   1.00
O168   O     0.89339   0.16666   0.18388   0.00000  Uiso   1.00
O169   O     0.84972   0.16666   0.31612   0.00000  Uiso   1.00
O170   O     0.81695   0.16667   0.18388   0.00000  Uiso   1.00
Zn171  Zn    0.78229   0.16667   0.25000   0.00000  Uiso   1.00
Zn172  Zn    0.88438   0.16666   0.25000   0.00000  Uiso   1.00
Cl173  Cl    0.68778   0.12235   0.07798   0.00000  Uiso   1.00
Cl174  Cl    0.97889   0.21098   0.42202   0.00000  Uiso   1.00
H175   H     0.82751   0.13611   0.10689   0.00000  Uiso   1.00
H176   H     0.83915   0.19723   0.39311   0.00000  Uiso   1.00
Cl177  Cl    0.96181   0.21949   0.11472   0.00000  Uiso   1.00
Cl178  Cl    0.70486   0.11385   0.38528   0.00000  Uiso   1.00
Cl179  Cl    0.67053   0.10067   0.49226   0.00000  Uiso   1.00
Cl180  Cl    0.99614   0.23267   0.00774   0.00000  Uiso   1.00
H181   H     0.76750   0.14767   0.09086   0.00000  Uiso   1.00
H182   H     0.89917   0.18567   0.40914   0.00000  Uiso   1.00
H183   H     0.91291   0.03755   0.22732   0.00000  Uiso   1.00
H184   H     0.75376   0.29578   0.27268   0.00000  Uiso   1.00
H185   H     0.98116   0.12303   0.19398   0.00000  Uiso   1.00
H186   H     0.68551   0.21030   0.30602   0.00000  Uiso   1.00
C187   C     0.16667   0.58003   0.25001   0.00000  Uiso   1.00
C188   C     0.16666   0.41997   0.24999   0.00000  Uiso   1.00
C189   C     0.11319   0.48269   0.05302   0.00000  Uiso   1.00
C190   C     0.22014   0.51731   0.44698   0.00000  Uiso   1.00
C191   C     0.07840   0.47209   0.03502   0.00000  Uiso   1.00
C192   C     0.25493   0.52791   0.46499   0.00000  Uiso   1.00
C193   C     0.21141   0.64529   0.23745   0.00000  Uiso   1.00
C194   C     0.12192   0.35471   0.26255   0.00000  Uiso   1.00
C195   C     0.21140   0.35462   0.23746   0.00000  Uiso   1.00
C196   C     0.12193   0.64538   0.26254   0.00000  Uiso   1.00
C197   C     0.16666   0.37582   0.25001   0.00000  Uiso   1.00
C198   C     0.16667   0.62418   0.24999   0.00000  Uiso   1.00
C199   C     0.32231   0.47575   0.21886   0.00000  Uiso   1.00
C200   C     0.01103   0.52425   0.28114   0.00000  Uiso   1.00
C201   C     0.03690   0.47573   0.21890   0.00000  Uiso   1.00
C202   C     0.29643   0.52427   0.28110   0.00000  Uiso   1.00
C203   C     0.13543   0.49884   0.33837   0.00000  Uiso   1.00
C204   C     0.19791   0.50116   0.16163   0.00000  Uiso   1.00
C205   C     0.11468   0.49419   0.38979   0.00000  Uiso   1.00
C206   C     0.21865   0.50581   0.11021   0.00000  Uiso   1.00
C207   C     0.05822   0.46354   0.46361   0.00000  Uiso   1.00
C208   C     0.27511   0.53646   0.03639   0.00000  Uiso   1.00
C209   C     0.07231   0.47050   0.41490   0.00000  Uiso   1.00
C210   C     0.26102   0.52950   0.08510   0.00000  Uiso   1.00
C211   C     0.14298   0.50952   0.41264   0.00000  Uiso   1.00
C212   C     0.19036   0.49048   0.08736   0.00000  Uiso   1.00
C213   C     0.13509   0.49703   0.45827   0.00000  Uiso   1.00
C214   C     0.19824   0.50297   0.04173   0.00000  Uiso   1.00
C215   C     0.08962   0.47710   0.48621   0.00000  Uiso   1.00
C216   C     0.24371   0.52290   0.01379   0.00000  Uiso   1.00
C217   C     0.17200   0.50410   0.47616   0.00000  Uiso   1.00
C218   C     0.16133   0.49590   0.02384   0.00000  Uiso   1.00
H219   H     0.24625   0.62896   0.22730   0.00000  Uiso   1.00
H220   H     0.08709   0.37104   0.27270   0.00000  Uiso   1.00
H221   H     0.06537   0.45627   0.19402   0.00000  Uiso   1.00
H222   H     0.26797   0.54372   0.30598   0.00000  Uiso   1.00
N223   N     0.04759   0.50001   0.25001   0.00000  Uiso   1.00
N224   N     0.28574   0.49999   0.24999   0.00000  Uiso   1.00
O225   O     0.12846   0.56108   0.25001   0.00000  Uiso   1.00
O226   O     0.20488   0.43892   0.25000   0.00000  Uiso   1.00
O227   O     0.20490   0.56107   0.25000   0.00000  Uiso   1.00
O228   O     0.12843   0.43893   0.25000   0.00000  Uiso   1.00
O229   O     0.10661   0.50001   0.31613   0.00000  Uiso   1.00
O230   O     0.22672   0.49999   0.18388   0.00000  Uiso   1.00
O231   O     0.18305   0.50000   0.31612   0.00000  Uiso   1.00
O232   O     0.15028   0.50000   0.18388   0.00000  Uiso   1.00
Zn233  Zn    0.11562   0.50001   0.25000   0.00000  Uiso   1.00
Zn234  Zn    0.21771   0.49999   0.25000   0.00000  Uiso   1.00
Cl235  Cl    0.02111   0.45568   0.07798   0.00000  Uiso   1.00
Cl236  Cl    0.31222   0.54432   0.42202   0.00000  Uiso   1.00
H237   H     0.16085   0.46944   0.10689   0.00000  Uiso   1.00
H238   H     0.17249   0.53056   0.39311   0.00000  Uiso   1.00
Cl239  Cl    0.29514   0.55282   0.11472   0.00000  Uiso   1.00
Cl240  Cl    0.03819   0.44718   0.38528   0.00000  Uiso   1.00
Cl241  Cl    0.00386   0.43400   0.49226   0.00000  Uiso   1.00
Cl242  Cl    0.32947   0.56600   0.00774   0.00000  Uiso   1.00
H243   H     0.10083   0.48100   0.09086   0.00000  Uiso   1.00
H244   H     0.23250   0.51900   0.40914   0.00000  Uiso   1.00
H245   H     0.24624   0.37089   0.22732   0.00000  Uiso   1.00
H246   H     0.08709   0.62911   0.27268   0.00000  Uiso   1.00
H247   H     0.31449   0.45637   0.19398   0.00000  Uiso   1.00
H248   H     0.01884   0.54363   0.30602   0.00000  Uiso   1.00
C249   C     0.50001   0.58003   0.25001   0.00000  Uiso   1.00
C250   C     0.49999   0.41997   0.24999   0.00000  Uiso   1.00
C251   C     0.44652   0.48269   0.05302   0.00000  Uiso   1.00
C252   C     0.55348   0.51731   0.44698   0.00000  Uiso   1.00
C253   C     0.41173   0.47209   0.03502   0.00000  Uiso   1.00
C254   C     0.58827   0.52791   0.46499   0.00000  Uiso   1.00
C255   C     0.54474   0.64529   0.23745   0.00000  Uiso   1.00
C256   C     0.45526   0.35471   0.26255   0.00000  Uiso   1.00
C257   C     0.54474   0.35462   0.23746   0.00000  Uiso   1.00
C258   C     0.45526   0.64538   0.26254   0.00000  Uiso   1.00
C259   C     0.50000   0.37582   0.25001   0.00000  Uiso   1.00
C260   C     0.50000   0.62418   0.24999   0.00000  Uiso   1.00
C261   C     0.65564   0.47575   0.21886   0.00000  Uiso   1.00
C262   C     0.34436   0.52425   0.28114   0.00000  Uiso   1.00
C263   C     0.37023   0.47573   0.21890   0.00000  Uiso   1.00
C264   C     0.62977   0.52427   0.28110   0.00000  Uiso   1.00
C265   C     0.46876   0.49884   0.33837   0.00000  Uiso   1.00
C266   C     0.53124   0.50116   0.16163   0.00000  Uiso   1.00
C267   C     0.44801   0.49419   0.38979   0.00000  Uiso   1.00
C268   C     0.55199   0.50581   0.11021   0.00000  Uiso   1.00
C269   C     0.39155   0.46354   0.46361   0.00000  Uiso   1.00
C270   C     0.60845   0.53646   0.03639   0.00000  Uiso   1.00
C271   C     0.40565   0.47050   0.41490   0.00000  Uiso   1.00
C272   C     0.59435   0.52950   0.08510   0.00000  Uiso   1.00
C273   C     0.47631   0.50952   0.41264   0.00000  Uiso   1.00
C274   C     0.52369   0.49048   0.08736   0.00000  Uiso   1.00
C275   C     0.46843   0.49703   0.45827   0.00000  Uiso   1.00
C276   C     0.53157   0.50297   0.04173   0.00000  Uiso   1.00
C277   C     0.42296   0.47710   0.48621   0.00000  Uiso   1.00
C278   C     0.57704   0.52290   0.01379   0.00000  Uiso   1.00
C279   C     0.50533   0.50410   0.47616   0.00000  Uiso   1.00
C280   C     0.49467   0.49590   0.02384   0.00000  Uiso   1.00
H281   H     0.57958   0.62896   0.22730   0.00000  Uiso   1.00
H282   H     0.42042   0.37104   0.27270   0.00000  Uiso   1.00
H283   H     0.39870   0.45627   0.19402   0.00000  Uiso   1.00
H284   H     0.60130   0.54372   0.30598   0.00000  Uiso   1.00
N285   N     0.38093   0.50001   0.25001   0.00000  Uiso   1.00
N286   N     0.61907   0.49999   0.24999   0.00000  Uiso   1.00
O287   O     0.46179   0.56108   0.25001   0.00000  Uiso   1.00
O288   O     0.53821   0.43892   0.25000   0.00000  Uiso   1.00
O289   O     0.53823   0.56107   0.25000   0.00000  Uiso   1.00
O290   O     0.46177   0.43893   0.25000   0.00000  Uiso   1.00
O291   O     0.43994   0.50001   0.31613   0.00000  Uiso   1.00
O292   O     0.56006   0.49999   0.18388   0.00000  Uiso   1.00
O293   O     0.51639   0.50000   0.31612   0.00000  Uiso   1.00
O294   O     0.48361   0.50000   0.18388   0.00000  Uiso   1.00
Zn295  Zn    0.44896   0.50001   0.25000   0.00000  Uiso   1.00
Zn296  Zn    0.55104   0.49999   0.25000   0.00000  Uiso   1.00
Cl297  Cl    0.35445   0.45568   0.07798   0.00000  Uiso   1.00
Cl298  Cl    0.64555   0.54432   0.42202   0.00000  Uiso   1.00
H299   H     0.49418   0.46944   0.10689   0.00000  Uiso   1.00
H300   H     0.50582   0.53056   0.39311   0.00000  Uiso   1.00
Cl301  Cl    0.62847   0.55282   0.11472   0.00000  Uiso   1.00
Cl302  Cl    0.37153   0.44718   0.38528   0.00000  Uiso   1.00
Cl303  Cl    0.33720   0.43400   0.49226   0.00000  Uiso   1.00
Cl304  Cl    0.66280   0.56600   0.00774   0.00000  Uiso   1.00
H305   H     0.43416   0.48100   0.09086   0.00000  Uiso   1.00
H306   H     0.56584   0.51900   0.40914   0.00000  Uiso   1.00
H307   H     0.57957   0.37089   0.22732   0.00000  Uiso   1.00
H308   H     0.42043   0.62911   0.27268   0.00000  Uiso   1.00
H309   H     0.64783   0.45637   0.19398   0.00000  Uiso   1.00
H310   H     0.35217   0.54363   0.30602   0.00000  Uiso   1.00
C311   C     0.83334   0.58003   0.25001   0.00000  Uiso   1.00
C312   C     0.83333   0.41997   0.24999   0.00000  Uiso   1.00
C313   C     0.77986   0.48269   0.05302   0.00000  Uiso   1.00
C314   C     0.88681   0.51731   0.44698   0.00000  Uiso   1.00
C315   C     0.74507   0.47209   0.03502   0.00000  Uiso   1.00
C316   C     0.92160   0.52791   0.46499   0.00000  Uiso   1.00
C317   C     0.87808   0.64529   0.23745   0.00000  Uiso   1.00
C318   C     0.78859   0.35471   0.26255   0.00000  Uiso   1.00
C319   C     0.87807   0.35462   0.23746   0.00000  Uiso   1.00
C320   C     0.78860   0.64538   0.26254   0.00000  Uiso   1.00
C321   C     0.83333   0.37582   0.25001   0.00000  Uiso   1.00
C322   C     0.83334   0.62418   0.24999   0.00000  Uiso   1.00
C323   C     0.98897   0.47575   0.21886   0.00000  Uiso   1.00
C324   C     0.67769   0.52425   0.28114   0.00000  Uiso   1.00
C325   C     0.70357   0.47573   0.21890   0.00000  Uiso   1.00
C326   C     0.96310   0.52427   0.28110   0.00000  Uiso   1.00
C327   C     0.80209   0.49884   0.33837   0.00000  Uiso   1.00
C328   C     0.86457   0.50116   0.16163   0.00000  Uiso   1.00
C329   C     0.78135   0.49419   0.38979   0.00000  Uiso   1.00
C330   C     0.88532   0.50581   0.11021   0.00000  Uiso   1.00
C331   C     0.72489   0.46354   0.46361   0.00000  Uiso   1.00
C332   C     0.94178   0.53646   0.03639   0.00000  Uiso   1.00
C333   C     0.73898   0.47050   0.41490   0.00000  Uiso   1.00
C334   C     0.92769   0.52950   0.08510   0.00000  Uiso   1.00
C335   C     0.80964   0.50952   0.41264   0.00000  Uiso   1.00
C336   C     0.85702   0.49048   0.08736   0.00000  Uiso   1.00
C337   C     0.80176   0.49703   0.45827   0.00000  Uiso   1.00
C338   C     0.86491   0.50297   0.04173   0.00000  Uiso   1.00
C339   C     0.75629   0.47710   0.48621   0.00000  Uiso   1.00
C340   C     0.91038   0.52290   0.01379   0.00000  Uiso   1.00
C341   C     0.83867   0.50410   0.47616   0.00000  Uiso   1.00
C342   C     0.82800   0.49590   0.02384   0.00000  Uiso   1.00
H343   H     0.91291   0.62896   0.22730   0.00000  Uiso   1.00
H344   H     0.75375   0.37104   0.27270   0.00000  Uiso   1.00
H345   H     0.73203   0.45627   0.19402   0.00000  Uiso   1.00
H346   H     0.93463   0.54372   0.30598   0.00000  Uiso   1.00
N347   N     0.71426   0.50001   0.25001   0.00000  Uiso   1.00
N348   N     0.95241   0.49999   0.24999   0.00000  Uiso   1.00
O349   O     0.79512   0.56108   0.25001   0.00000  Uiso   1.00
O350   O     0.87154   0.43892   0.25000   0.00000  Uiso   1.00
O351   O     0.87157   0.56107   0.25000   0.00000  Uiso   1.00
O352   O     0.79510   0.43893   0.25000   0.00000  Uiso   1.00
O353   O     0.77328   0.50001   0.31613   0.00000  Uiso   1.00
O354   O     0.89339   0.49999   0.18388   0.00000  Uiso   1.00
O355   O     0.84972   0.50000   0.31612   0.00000  Uiso   1.00
O356   O     0.81695   0.50000   0.18388   0.00000  Uiso   1.00
Zn357  Zn    0.78229   0.50001   0.25000   0.00000  Uiso   1.00
Zn358  Zn    0.88438   0.49999   0.25000   0.00000  Uiso   1.00
Cl359  Cl    0.68778   0.45568   0.07798   0.00000  Uiso   1.00
Cl360  Cl    0.97889   0.54432   0.42202   0.00000  Uiso   1.00
H361   H     0.82751   0.46944   0.10689   0.00000  Uiso   1.00
H362   H     0.83915   0.53056   0.39311   0.00000  Uiso   1.00
Cl363  Cl    0.96181   0.55282   0.11472   0.00000  Uiso   1.00
Cl364  Cl    0.70486   0.44718   0.38528   0.00000  Uiso   1.00
Cl365  Cl    0.67053   0.43400   0.49226   0.00000  Uiso   1.00
Cl366  Cl    0.99614   0.56600   0.00774   0.00000  Uiso   1.00
H367   H     0.76750   0.48100   0.09086   0.00000  Uiso   1.00
H368   H     0.89917   0.51900   0.40914   0.00000  Uiso   1.00
H369   H     0.91291   0.37089   0.22732   0.00000  Uiso   1.00
H370   H     0.75376   0.62911   0.27268   0.00000  Uiso   1.00
H371   H     0.98116   0.45637   0.19398   0.00000  Uiso   1.00
H372   H     0.68551   0.54363   0.30602   0.00000  Uiso   1.00
C373   C     0.16667   0.91337   0.25001   0.00000  Uiso   1.00
C374   C     0.16666   0.75330   0.24999   0.00000  Uiso   1.00
C375   C     0.11319   0.81602   0.05302   0.00000  Uiso   1.00
C376   C     0.22014   0.85065   0.44698   0.00000  Uiso   1.00
C377   C     0.07840   0.80543   0.03502   0.00000  Uiso   1.00
C378   C     0.25493   0.86124   0.46499   0.00000  Uiso   1.00
C379   C     0.21141   0.97863   0.23745   0.00000  Uiso   1.00
C380   C     0.12192   0.68804   0.26255   0.00000  Uiso   1.00
C381   C     0.21140   0.68795   0.23746   0.00000  Uiso   1.00
C382   C     0.12193   0.97871   0.26254   0.00000  Uiso   1.00
C383   C     0.16666   0.70916   0.25001   0.00000  Uiso   1.00
C384   C     0.16667   0.95751   0.24999   0.00000  Uiso   1.00
C385   C     0.32231   0.80908   0.21886   0.00000  Uiso   1.00
C386   C     0.01103   0.85758   0.28114   0.00000  Uiso   1.00
C387   C     0.03690   0.80906   0.21890   0.00000  Uiso   1.00
C388   C     0.29643   0.85761   0.28110   0.00000  Uiso   1.00
C389   C     0.13543   0.83218   0.33837   0.00000  Uiso   1.00
C390   C     0.19791   0.83449   0.16163   0.00000  Uiso   1.00
C391   C     0.11468   0.82753   0.38979   0.00000  Uiso   1.00
C392   C     0.21865   0.83914   0.11021   0.00000  Uiso   1.00
C393   C     0.05822   0.79687   0.46361   0.00000  Uiso   1.00
C394   C     0.27511   0.86979   0.03639   0.00000  Uiso   1.00
C395   C     0.07231   0.80383   0.41490   0.00000  Uiso   1.00
C396   C     0.26102   0.86283   0.08510   0.00000  Uiso   1.00
C397   C     0.14298   0.84285   0.41264   0.00000  Uiso   1.00
C398   C     0.19036   0.82381   0.08736   0.00000  Uiso   1.00
C399   C     0.13509   0.83037   0.45827   0.00000  Uiso   1.00
C400   C     0.19824   0.83630   0.04173   0.00000  Uiso   1.00
C401   C     0.08962   0.81044   0.48621   0.00000  Uiso   1.00
C402   C     0.24371   0.85623   0.01379   0.00000  Uiso   1.00
C403   C     0.17200   0.83743   0.47616   0.00000  Uiso   1.00
C404   C     0.16133   0.82923   0.02384   0.00000  Uiso   1.00
H405   H     0.24625   0.96229   0.22730   0.00000  Uiso   1.00
H406   H     0.08709   0.70437   0.27270   0.00000  Uiso   1.00
H407   H     0.06537   0.78961   0.19402   0.00000  Uiso   1.00
H408   H     0.26797   0.87706   0.30598   0.00000  Uiso   1.00
N409   N     0.04759   0.83334   0.25001   0.00000  Uiso   1.00
N410   N     0.28574   0.83332   0.24999   0.00000  Uiso   1.00
O411   O     0.12846   0.89442   0.25001   0.00000  Uiso   1.00
O412   O     0.20488   0.77225   0.25000   0.00000  Uiso   1.00
O413   O     0.20490   0.89441   0.25000   0.00000  Uiso   1.00
O414   O     0.12843   0.77226   0.25000   0.00000  Uiso   1.00
O415   O     0.10661   0.83334   0.31613   0.00000  Uiso   1.00
O416   O     0.22672   0.83333   0.18388   0.00000  Uiso   1.00
O417   O     0.18305   0.83333   0.31612   0.00000  Uiso   1.00
O418   O     0.15028   0.83334   0.18388   0.00000  Uiso   1.00
Zn419  Zn    0.11562   0.83334   0.25000   0.00000  Uiso   1.00
Zn420  Zn    0.21771   0.83333   0.25000   0.00000  Uiso   1.00
Cl421  Cl    0.02111   0.78902   0.07798   0.00000  Uiso   1.00
Cl422  Cl    0.31222   0.87765   0.42202   0.00000  Uiso   1.00
H423   H     0.16085   0.80277   0.10689   0.00000  Uiso   1.00
H424   H     0.17249   0.86389   0.39311   0.00000  Uiso   1.00
Cl425  Cl    0.29514   0.88616   0.11472   0.00000  Uiso   1.00
Cl426  Cl    0.03819   0.78051   0.38528   0.00000  Uiso   1.00
Cl427  Cl    0.00386   0.76734   0.49226   0.00000  Uiso   1.00
Cl428  Cl    0.32947   0.89933   0.00774   0.00000  Uiso   1.00
H429   H     0.10083   0.81433   0.09086   0.00000  Uiso   1.00
H430   H     0.23250   0.85233   0.40914   0.00000  Uiso   1.00
H431   H     0.24624   0.70422   0.22732   0.00000  Uiso   1.00
H432   H     0.08709   0.96245   0.27268   0.00000  Uiso   1.00
H433   H     0.31449   0.78970   0.19398   0.00000  Uiso   1.00
H434   H     0.01884   0.87697   0.30602   0.00000  Uiso   1.00
C435   C     0.50001   0.91337   0.25001   0.00000  Uiso   1.00
C436   C     0.49999   0.75330   0.24999   0.00000  Uiso   1.00
C437   C     0.44652   0.81602   0.05302   0.00000  Uiso   1.00
C438   C     0.55348   0.85065   0.44698   0.00000  Uiso   1.00
C439   C     0.41173   0.80543   0.03502   0.00000  Uiso   1.00
C440   C     0.58827   0.86124   0.46499   0.00000  Uiso   1.00
C441   C     0.54474   0.97863   0.23745   0.00000  Uiso   1.00
C442   C     0.45526   0.68804   0.26255   0.00000  Uiso   1.00
C443   C     0.54474   0.68795   0.23746   0.00000  Uiso   1.00
C444   C     0.45526   0.97871   0.26254   0.00000  Uiso   1.00
C445   C     0.50000   0.70916   0.25001   0.00000  Uiso   1.00
C446   C     0.50000   0.95751   0.24999   0.00000  Uiso   1.00
C447   C     0.65564   0.80908   0.21886   0.00000  Uiso   1.00
C448   C     0.34436   0.85758   0.28114   0.00000  Uiso   1.00
C449   C     0.37023   0.80906   0.21890   0.00000  Uiso   1.00
C450   C     0.62977   0.85761   0.28110   0.00000  Uiso   1.00
C451   C     0.46876   0.83218   0.33837   0.00000  Uiso   1.00
C452   C     0.53124   0.83449   0.16163   0.00000  Uiso   1.00
C453   C     0.44801   0.82753   0.38979   0.00000  Uiso   1.00
C454   C     0.55199   0.83914   0.11021   0.00000  Uiso   1.00
C455   C     0.39155   0.79687   0.46361   0.00000  Uiso   1.00
C456   C     0.60845   0.86979   0.03639   0.00000  Uiso   1.00
C457   C     0.40565   0.80383   0.41490   0.00000  Uiso   1.00
C458   C     0.59435   0.86283   0.08510   0.00000  Uiso   1.00
C459   C     0.47631   0.84285   0.41264   0.00000  Uiso   1.00
C460   C     0.52369   0.82381   0.08736   0.00000  Uiso   1.00
C461   C     0.46843   0.83037   0.45827   0.00000  Uiso   1.00
C462   C     0.53157   0.83630   0.04173   0.00000  Uiso   1.00
C463   C     0.42296   0.81044   0.48621   0.00000  Uiso   1.00
C464   C     0.57704   0.85623   0.01379   0.00000  Uiso   1.00
C465   C     0.50533   0.83743   0.47616   0.00000  Uiso   1.00
C466   C     0.49467   0.82923   0.02384   0.00000  Uiso   1.00
H467   H     0.57958   0.96229   0.22730   0.00000  Uiso   1.00
H468   H     0.42042   0.70437   0.27270   0.00000  Uiso   1.00
H469   H     0.39870   0.78961   0.19402   0.00000  Uiso   1.00
H470   H     0.60130   0.87706   0.30598   0.00000  Uiso   1.00
N471   N     0.38093   0.83334   0.25001   0.00000  Uiso   1.00
N472   N     0.61907   0.83332   0.24999   0.00000  Uiso   1.00
O473   O     0.46179   0.89442   0.25001   0.00000  Uiso   1.00
O474   O     0.53821   0.77225   0.25000   0.00000  Uiso   1.00
O475   O     0.53823   0.89441   0.25000   0.00000  Uiso   1.00
O476   O     0.46177   0.77226   0.25000   0.00000  Uiso   1.00
O477   O     0.43994   0.83334   0.31613   0.00000  Uiso   1.00
O478   O     0.56006   0.83333   0.18388   0.00000  Uiso   1.00
O479   O     0.51639   0.83333   0.31612   0.00000  Uiso   1.00
O480   O     0.48361   0.83334   0.18388   0.00000  Uiso   1.00
Zn481  Zn    0.44896   0.83334   0.25000   0.00000  Uiso   1.00
Zn482  Zn    0.55104   0.83333   0.25000   0.00000  Uiso   1.00
Cl483  Cl    0.35445   0.78902   0.07798   0.00000  Uiso   1.00
Cl484  Cl    0.64555   0.87765   0.42202   0.00000  Uiso   1.00
H485   H     0.49418   0.80277   0.10689   0.00000  Uiso   1.00
H486   H     0.50582   0.86389   0.39311   0.00000  Uiso   1.00
Cl487  Cl    0.62847   0.88616   0.11472   0.00000  Uiso   1.00
Cl488  Cl    0.37153   0.78051   0.38528   0.00000  Uiso   1.00
Cl489  Cl    0.33720   0.76734   0.49226   0.00000  Uiso   1.00
Cl490  Cl    0.66280   0.89933   0.00774   0.00000  Uiso   1.00
H491   H     0.43416   0.81433   0.09086   0.00000  Uiso   1.00
H492   H     0.56584   0.85233   0.40914   0.00000  Uiso   1.00
H493   H     0.57957   0.70422   0.22732   0.00000  Uiso   1.00
H494   H     0.42043   0.96245   0.27268   0.00000  Uiso   1.00
H495   H     0.64783   0.78970   0.19398   0.00000  Uiso   1.00
H496   H     0.35217   0.87697   0.30602   0.00000  Uiso   1.00
C497   C     0.83334   0.91337   0.25001   0.00000  Uiso   1.00
C498   C     0.83333   0.75330   0.24999   0.00000  Uiso   1.00
C499   C     0.77986   0.81602   0.05302   0.00000  Uiso   1.00
C500   C     0.88681   0.85065   0.44698   0.00000  Uiso   1.00
C501   C     0.74507   0.80543   0.03502   0.00000  Uiso   1.00
C502   C     0.92160   0.86124   0.46499   0.00000  Uiso   1.00
C503   C     0.87808   0.97863   0.23745   0.00000  Uiso   1.00
C504   C     0.78859   0.68804   0.26255   0.00000  Uiso   1.00
C505   C     0.87807   0.68795   0.23746   0.00000  Uiso   1.00
C506   C     0.78860   0.97871   0.26254   0.00000  Uiso   1.00
C507   C     0.83333   0.70916   0.25001   0.00000  Uiso   1.00
C508   C     0.83334   0.95751   0.24999   0.00000  Uiso   1.00
C509   C     0.98897   0.80908   0.21886   0.00000  Uiso   1.00
C510   C     0.67769   0.85758   0.28114   0.00000  Uiso   1.00
C511   C     0.70357   0.80906   0.21890   0.00000  Uiso   1.00
C512   C     0.96310   0.85761   0.28110   0.00000  Uiso   1.00
C513   C     0.80209   0.83218   0.33837   0.00000  Uiso   1.00
C514   C     0.86457   0.83449   0.16163   0.00000  Uiso   1.00
C515   C     0.78135   0.82753   0.38979   0.00000  Uiso   1.00
C516   C     0.88532   0.83914   0.11021   0.00000  Uiso   1.00
C517   C     0.72489   0.79687   0.46361   0.00000  Uiso   1.00
C518   C     0.94178   0.86979   0.03639   0.00000  Uiso   1.00
C519   C     0.73898   0.80383   0.41490   0.00000  Uiso   1.00
C520   C     0.92769   0.86283   0.08510   0.00000  Uiso   1.00
C521   C     0.80964   0.84285   0.41264   0.00000  Uiso   1.00
C522   C     0.85702   0.82381   0.08736   0.00000  Uiso   1.00
C523   C     0.80176   0.83037   0.45827   0.00000  Uiso   1.00
C524   C     0.86491   0.83630   0.04173   0.00000  Uiso   1.00
C525   C     0.75629   0.81044   0.48621   0.00000  Uiso   1.00
C526   C     0.91038   0.85623   0.01379   0.00000  Uiso   1.00
C527   C     0.83867   0.83743   0.47616   0.00000  Uiso   1.00
C528   C     0.82800   0.82923   0.02384   0.00000  Uiso   1.00
H529   H     0.91291   0.96229   0.22730   0.00000  Uiso   1.00
H530   H     0.75375   0.70437   0.27270   0.00000  Uiso   1.00
H531   H     0.73203   0.78961   0.19402   0.00000  Uiso   1.00
H532   H     0.93463   0.87706   0.30598   0.00000  Uiso   1.00
N533   N     0.71426   0.83334   0.25001   0.00000  Uiso   1.00
N534   N     0.95241   0.83332   0.24999   0.00000  Uiso   1.00
O535   O     0.79512   0.89442   0.25001   0.00000  Uiso   1.00
O536   O     0.87154   0.77225   0.25000   0.00000  Uiso   1.00
O537   O     0.87157   0.89441   0.25000   0.00000  Uiso   1.00
O538   O     0.79510   0.77226   0.25000   0.00000  Uiso   1.00
O539   O     0.77328   0.83334   0.31613   0.00000  Uiso   1.00
O540   O     0.89339   0.83333   0.18388   0.00000  Uiso   1.00
O541   O     0.84972   0.83333   0.31612   0.00000  Uiso   1.00
O542   O     0.81695   0.83334   0.18388   0.00000  Uiso   1.00
Zn543  Zn    0.78229   0.83334   0.25000   0.00000  Uiso   1.00
Zn544  Zn    0.88438   0.83333   0.25000   0.00000  Uiso   1.00
Cl545  Cl    0.68778   0.78902   0.07798   0.00000  Uiso   1.00
Cl546  Cl    0.97889   0.87765   0.42202   0.00000  Uiso   1.00
H547   H     0.82751   0.80277   0.10689   0.00000  Uiso   1.00
H548   H     0.83915   0.86389   0.39311   0.00000  Uiso   1.00
Cl549  Cl    0.96181   0.88616   0.11472   0.00000  Uiso   1.00
Cl550  Cl    0.70486   0.78051   0.38528   0.00000  Uiso   1.00
Cl551  Cl    0.67053   0.76734   0.49226   0.00000  Uiso   1.00
Cl552  Cl    0.99614   0.89933   0.00774   0.00000  Uiso   1.00
H553   H     0.76750   0.81433   0.09086   0.00000  Uiso   1.00
H554   H     0.89917   0.85233   0.40914   0.00000  Uiso   1.00
H555   H     0.91291   0.70422   0.22732   0.00000  Uiso   1.00
H556   H     0.75376   0.96245   0.27268   0.00000  Uiso   1.00
H557   H     0.98116   0.78970   0.19398   0.00000  Uiso   1.00
H558   H     0.68551   0.87697   0.30602   0.00000  Uiso   1.00
C559   C     0.16667   0.24670   0.75001   0.00000  Uiso   1.00
C560   C     0.16666   0.08663   0.74999   0.00000  Uiso   1.00
C561   C     0.11319   0.14935   0.55302   0.00000  Uiso   1.00
C562   C     0.22014   0.18398   0.94698   0.00000  Uiso   1.00
C563   C     0.07840   0.13876   0.53502   0.00000  Uiso   1.00
C564   C     0.25493   0.19457   0.96499   0.00000  Uiso   1.00
C565   C     0.21141   0.31196   0.73745   0.00000  Uiso   1.00
C566   C     0.12192   0.02137   0.76255   0.00000  Uiso   1.00
C567   C     0.21140   0.02129   0.73746   0.00000  Uiso   1.00
C568   C     0.12193   0.31205   0.76254   0.00000  Uiso   1.00
C569   C     0.16666   0.04249   0.75001   0.00000  Uiso   1.00
C570   C     0.16667   0.29084   0.74999   0.00000  Uiso   1.00
C571   C     0.32231   0.14242   0.71886   0.00000  Uiso   1.00
C572   C     0.01103   0.19092   0.78114   0.00000  Uiso   1.00
C573   C     0.03690   0.14239   0.71890   0.00000  Uiso   1.00
C574   C     0.29643   0.19094   0.78110   0.00000  Uiso   1.00
C575   C     0.13543   0.16551   0.83837   0.00000  Uiso   1.00
C576   C     0.19791   0.16782   0.66163   0.00000  Uiso   1.00
C577   C     0.11468   0.16086   0.88979   0.00000  Uiso   1.00
C578   C     0.21865   0.17247   0.61021   0.00000  Uiso   1.00
C579   C     0.05822   0.13021   0.96361   0.00000  Uiso   1.00
C580   C     0.27511   0.20313   0.53639   0.00000  Uiso   1.00
C581   C     0.07231   0.13717   0.91490   0.00000  Uiso   1.00
C582   C     0.26102   0.19617   0.58510   0.00000  Uiso   1.00
C583   C     0.14298   0.17619   0.91264   0.00000  Uiso   1.00
C584   C     0.19036   0.15715   0.58736   0.00000  Uiso   1.00
C585   C     0.13509   0.16370   0.95827   0.00000  Uiso   1.00
C586   C     0.19824   0.16963   0.54173   0.00000  Uiso   1.00
C587   C     0.08962   0.14377   0.98621   0.00000  Uiso   1.00
C588   C     0.24371   0.18956   0.51379   0.00000  Uiso   1.00
C589   C     0.17200   0.17077   0.97616   0.00000  Uiso   1.00
C590   C     0.16133   0.16257   0.52384   0.00000  Uiso   1.00
H591   H     0.24625   0.29562   0.72730   0.00000  Uiso   1.00
H592   H     0.08709   0.03771   0.77270   0.00000  Uiso   1.00
H593   H     0.06537   0.12294   0.69402   0.00000  Uiso   1.00
H594   H     0.26797   0.21039   0.80598   0.00000  Uiso   1.00
N595   N     0.04759   0.16668   0.75001   0.00000  Uiso   1.00
N596   N     0.28574   0.16666   0.74999   0.00000  Uiso   1.00
O597   O     0.12846   0.22775   0.75001   0.00000  Uiso   1.00
O598   O     0.20488   0.10558   0.75000   0.00000  Uiso   1.00
O599   O     0.20490   0.22774   0.75000   0.00000  Uiso   1.00
O600   O     0.12843   0.10559   0.75000   0.00000  Uiso   1.00
O601   O     0.10661   0.16667   0.81613   0.00000  Uiso   1.00
O602   O     0.22672   0.16666   0.68388   0.00000  Uiso   1.00
O603   O     0.18305   0.16666   0.81612   0.00000  Uiso   1.00
O604   O     0.15028   0.16667   0.68388   0.00000  Uiso   1.00
Zn605  Zn    0.11562   0.16667   0.75000   0.00000  Uiso   1.00
Zn606  Zn    0.21771   0.16666   0.75000   0.00000  Uiso   1.00
Cl607  Cl    0.02111   0.12235   0.57798   0.00000  Uiso   1.00
Cl608  Cl    0.31222   0.21098   0.92202   0.00000  Uiso   1.00
H609   H     0.16085   0.13611   0.60689   0.00000  Uiso   1.00
H610   H     0.17249   0.19723   0.89311   0.00000  Uiso   1.00
Cl611  Cl    0.29514   0.21949   0.61472   0.00000  Uiso   1.00
Cl612  Cl    0.03819   0.11385   0.88528   0.00000  Uiso   1.00
Cl613  Cl    0.00386   0.10067   0.99226   0.00000  Uiso   1.00
Cl614  Cl    0.32947   0.23267   0.50774   0.00000  Uiso   1.00
H615   H     0.10083   0.14767   0.59086   0.00000  Uiso   1.00
H616   H     0.23250   0.18567   0.90914   0.00000  Uiso   1.00
H617   H     0.24624   0.03755   0.72732   0.00000  Uiso   1.00
H618   H     0.08709   0.29578   0.77268   0.00000  Uiso   1.00
H619   H     0.31449   0.12303   0.69398   0.00000  Uiso   1.00
H620   H     0.01884   0.21030   0.80602   0.00000  Uiso   1.00
C621   C     0.50001   0.24670   0.75001   0.00000  Uiso   1.00
C622   C     0.49999   0.08663   0.74999   0.00000  Uiso   1.00
C623   C     0.44652   0.14935   0.55302   0.00000  Uiso   1.00
C624   C     0.55348   0.18398   0.94698   0.00000  Uiso   1.00
C625   C     0.41173   0.13876   0.53502   0.00000  Uiso   1.00
C626   C     0.58827   0.19457   0.96499   0.00000  Uiso   1.00
C627   C     0.54474   0.31196   0.73745   0.00000  Uiso   1.00
C628   C     0.45526   0.02137   0.76255   0.00000  Uiso   1.00
C629   C     0.54474   0.02129   0.73746   0.00000  Uiso   1.00
C630   C     0.45526   0.31205   0.76254   0.00000  Uiso   1.00
C631   C     0.50000   0.04249   0.75001   0.00000  Uiso   1.00
C632   C     0.50000   0.29084   0.74999   0.00000  Uiso   1.00
C633   C     0.65564   0.14242   0.71886   0.00000  Uiso   1.00
C634   C     0.34436   0.19092   0.78114   0.00000  Uiso   1.00
C635   C     0.37023   0.14239   0.71890   0.00000  Uiso   1.00
C636   C     0.62977   0.19094   0.78110   0.00000  Uiso   1.00
C637   C     0.46876   0.16551   0.83837   0.00000  Uiso   1.00
C638   C     0.53124   0.16782   0.66163   0.00000  Uiso   1.00
C639   C     0.44801   0.16086   0.88979   0.00000  Uiso   1.00
C640   C     0.55199   0.17247   0.61021   0.00000  Uiso   1.00
C641   C     0.39155   0.13021   0.96361   0.00000  Uiso   1.00
C642   C     0.60845   0.20313   0.53639   0.00000  Uiso   1.00
C643   C     0.40565   0.13717   0.91490   0.00000  Uiso   1.00
C644   C     0.59435   0.19617   0.58510   0.00000  Uiso   1.00
C645   C     0.47631   0.17619   0.91264   0.00000  Uiso   1.00
C646   C     0.52369   0.15715   0.58736   0.00000  Uiso   1.00
C647   C     0.46843   0.16370   0.95827   0.00000  Uiso   1.00
C648   C     0.53157   0.16963   0.54173   0.00000  Uiso   1.00
C649   C     0.42296   0.14377   0.98621   0.00000  Uiso   1.00
C650   C     0.57704   0.18956   0.51379   0.00000  Uiso   1.00
C651   C     0.50533   0.17077   0.97616   0.00000  Uiso   1.00
C652   C     0.49467   0.16257   0.52384   0.00000  Uiso   1.00
H653   H     0.57958   0.29562   0.72730   0.00000  Uiso   1.00
H654   H     0.42042   0.03771   0.77270   0.00000  Uiso   1.00
H655   H     0.39870   0.12294   0.69402   0.00000  Uiso   1.00
H656   H     0.60130   0.21039   0.80598   0.00000  Uiso   1.00
N657   N     0.38093   0.16668   0.75001   0.00000  Uiso   1.00
N658   N     0.61907   0.16666   0.74999   0.00000  Uiso   1.00
O659   O     0.46179   0.22775   0.75001   0.00000  Uiso   1.00
O660   O     0.53821   0.10558   0.75000   0.00000  Uiso   1.00
O661   O     0.53823   0.22774   0.75000   0.00000  Uiso   1.00
O662   O     0.46177   0.10559   0.75000   0.00000  Uiso   1.00
O663   O     0.43994   0.16667   0.81613   0.00000  Uiso   1.00
O664   O     0.56006   0.16666   0.68388   0.00000  Uiso   1.00
O665   O     0.51639   0.16666   0.81612   0.00000  Uiso   1.00
O666   O     0.48361   0.16667   0.68388   0.00000  Uiso   1.00
Zn667  Zn    0.44896   0.16667   0.75000   0.00000  Uiso   1.00
Zn668  Zn    0.55104   0.16666   0.75000   0.00000  Uiso   1.00
Cl669  Cl    0.35445   0.12235   0.57798   0.00000  Uiso   1.00
Cl670  Cl    0.64555   0.21098   0.92202   0.00000  Uiso   1.00
H671   H     0.49418   0.13611   0.60689   0.00000  Uiso   1.00
H672   H     0.50582   0.19723   0.89311   0.00000  Uiso   1.00
Cl673  Cl    0.62847   0.21949   0.61472   0.00000  Uiso   1.00
Cl674  Cl    0.37153   0.11385   0.88528   0.00000  Uiso   1.00
Cl675  Cl    0.33720   0.10067   0.99226   0.00000  Uiso   1.00
Cl676  Cl    0.66280   0.23267   0.50774   0.00000  Uiso   1.00
H677   H     0.43416   0.14767   0.59086   0.00000  Uiso   1.00
H678   H     0.56584   0.18567   0.90914   0.00000  Uiso   1.00
H679   H     0.57957   0.03755   0.72732   0.00000  Uiso   1.00
H680   H     0.42043   0.29578   0.77268   0.00000  Uiso   1.00
H681   H     0.64783   0.12303   0.69398   0.00000  Uiso   1.00
H682   H     0.35217   0.21030   0.80602   0.00000  Uiso   1.00
C683   C     0.83334   0.24670   0.75001   0.00000  Uiso   1.00
C684   C     0.83333   0.08663   0.74999   0.00000  Uiso   1.00
C685   C     0.77986   0.14935   0.55302   0.00000  Uiso   1.00
C686   C     0.88681   0.18398   0.94698   0.00000  Uiso   1.00
C687   C     0.74507   0.13876   0.53502   0.00000  Uiso   1.00
C688   C     0.92160   0.19457   0.96499   0.00000  Uiso   1.00
C689   C     0.87808   0.31196   0.73745   0.00000  Uiso   1.00
C690   C     0.78859   0.02137   0.76255   0.00000  Uiso   1.00
C691   C     0.87807   0.02129   0.73746   0.00000  Uiso   1.00
C692   C     0.78860   0.31205   0.76254   0.00000  Uiso   1.00
C693   C     0.83333   0.04249   0.75001   0.00000  Uiso   1.00
C694   C     0.83334   0.29084   0.74999   0.00000  Uiso   1.00
C695   C     0.98897   0.14242   0.71886   0.00000  Uiso   1.00
C696   C     0.67769   0.19092   0.78114   0.00000  Uiso   1.00
C697   C     0.70357   0.14239   0.71890   0.00000  Uiso   1.00
C698   C     0.96310   0.19094   0.78110   0.00000  Uiso   1.00
C699   C     0.80209   0.16551   0.83837   0.00000  Uiso   1.00
C700   C     0.86457   0.16782   0.66163   0.00000  Uiso   1.00
C701   C     0.78135   0.16086   0.88979   0.00000  Uiso   1.00
C702   C     0.88532   0.17247   0.61021   0.00000  Uiso   1.00
C703   C     0.72489   0.13021   0.96361   0.00000  Uiso   1.00
C704   C     0.94178   0.20313   0.53639   0.00000  Uiso   1.00
C705   C     0.73898   0.13717   0.91490   0.00000  Uiso   1.00
C706   C     0.92769   0.19617   0.58510   0.00000  Uiso   1.00
C707   C     0.80964   0.17619   0.91264   0.00000  Uiso   1.00
C708   C     0.85702   0.15715   0.58736   0.00000  Uiso   1.00
C709   C     0.80176   0.16370   0.95827   0.00000  Uiso   1.00
C710   C     0.86491   0.16963   0.54173   0.00000  Uiso   1.00
C711   C     0.75629   0.14377   0.98621   0.00000  Uiso   1.00
C712   C     0.91038   0.18956   0.51379   0.00000  Uiso   1.00
C713   C     0.83867   0.17077   0.97616   0.00000  Uiso   1.00
C714   C     0.82800   0.16257   0.52384   0.00000  Uiso   1.00
H715   H     0.91291   0.29562   0.72730   0.00000  Uiso   1.00
H716   H     0.75375   0.03771   0.77270   0.00000  Uiso   1.00
H717   H     0.73203   0.12294   0.69402   0.00000  Uiso   1.00
H718   H     0.93463   0.21039   0.80598   0.00000  Uiso   1.00
N719   N     0.71426   0.16668   0.75001   0.00000  Uiso   1.00
N720   N     0.95241   0.16666   0.74999   0.00000  Uiso   1.00
O721   O     0.79512   0.22775   0.75001   0.00000  Uiso   1.00
O722   O     0.87154   0.10558   0.75000   0.00000  Uiso   1.00
O723   O     0.87157   0.22774   0.75000   0.00000  Uiso   1.00
O724   O     0.79510   0.10559   0.75000   0.00000  Uiso   1.00
O725   O     0.77328   0.16667   0.81613   0.00000  Uiso   1.00
O726   O     0.89339   0.16666   0.68388   0.00000  Uiso   1.00
O727   O     0.84972   0.16666   0.81612   0.00000  Uiso   1.00
O728   O     0.81695   0.16667   0.68388   0.00000  Uiso   1.00
Zn729  Zn    0.78229   0.16667   0.75000   0.00000  Uiso   1.00
Zn730  Zn    0.88438   0.16666   0.75000   0.00000  Uiso   1.00
Cl731  Cl    0.68778   0.12235   0.57798   0.00000  Uiso   1.00
Cl732  Cl    0.97889   0.21098   0.92202   0.00000  Uiso   1.00
H733   H     0.82751   0.13611   0.60689   0.00000  Uiso   1.00
H734   H     0.83915   0.19723   0.89311   0.00000  Uiso   1.00
Cl735  Cl    0.96181   0.21949   0.61472   0.00000  Uiso   1.00
Cl736  Cl    0.70486   0.11385   0.88528   0.00000  Uiso   1.00
Cl737  Cl    0.67053   0.10067   0.99226   0.00000  Uiso   1.00
Cl738  Cl    0.99614   0.23267   0.50774   0.00000  Uiso   1.00
H739   H     0.76750   0.14767   0.59086   0.00000  Uiso   1.00
H740   H     0.89917   0.18567   0.90914   0.00000  Uiso   1.00
H741   H     0.91291   0.03755   0.72732   0.00000  Uiso   1.00
H742   H     0.75376   0.29578   0.77268   0.00000  Uiso   1.00
H743   H     0.98116   0.12303   0.69398   0.00000  Uiso   1.00
H744   H     0.68551   0.21030   0.80602   0.00000  Uiso   1.00
C745   C     0.16667   0.58003   0.75001   0.00000  Uiso   1.00
C746   C     0.16666   0.41997   0.74999   0.00000  Uiso   1.00
C747   C     0.11319   0.48269   0.55302   0.00000  Uiso   1.00
C748   C     0.22014   0.51731   0.94698   0.00000  Uiso   1.00
C749   C     0.07840   0.47209   0.53502   0.00000  Uiso   1.00
C750   C     0.25493   0.52791   0.96499   0.00000  Uiso   1.00
C751   C     0.21141   0.64529   0.73745   0.00000  Uiso   1.00
C752   C     0.12192   0.35471   0.76255   0.00000  Uiso   1.00
C753   C     0.21140   0.35462   0.73746   0.00000  Uiso   1.00
C754   C     0.12193   0.64538   0.76254   0.00000  Uiso   1.00
C755   C     0.16666   0.37582   0.75001   0.00000  Uiso   1.00
C756   C     0.16667   0.62418   0.74999   0.00000  Uiso   1.00
C757   C     0.32231   0.47575   0.71886   0.00000  Uiso   1.00
C758   C     0.01103   0.52425   0.78114   0.00000  Uiso   1.00
C759   C     0.03690   0.47573   0.71890   0.00000  Uiso   1.00
C760   C     0.29643   0.52427   0.78110   0.00000  Uiso   1.00
C761   C     0.13543   0.49884   0.83837   0.00000  Uiso   1.00
C762   C     0.19791   0.50116   0.66163   0.00000  Uiso   1.00
C763   C     0.11468   0.49419   0.88979   0.00000  Uiso   1.00
C764   C     0.21865   0.50581   0.61021   0.00000  Uiso   1.00
C765   C     0.05822   0.46354   0.96361   0.00000  Uiso   1.00
C766   C     0.27511   0.53646   0.53639   0.00000  Uiso   1.00
C767   C     0.07231   0.47050   0.91490   0.00000  Uiso   1.00
C768   C     0.26102   0.52950   0.58510   0.00000  Uiso   1.00
C769   C     0.14298   0.50952   0.91264   0.00000  Uiso   1.00
C770   C     0.19036   0.49048   0.58736   0.00000  Uiso   1.00
C771   C     0.13509   0.49703   0.95827   0.00000  Uiso   1.00
C772   C     0.19824   0.50297   0.54173   0.00000  Uiso   1.00
C773   C     0.08962   0.47710   0.98621   0.00000  Uiso   1.00
C774   C     0.24371   0.52290   0.51379   0.00000  Uiso   1.00
C775   C     0.17200   0.50410   0.97616   0.00000  Uiso   1.00
C776   C     0.16133   0.49590   0.52384   0.00000  Uiso   1.00
H777   H     0.24625   0.62896   0.72730   0.00000  Uiso   1.00
H778   H     0.08709   0.37104   0.77270   0.00000  Uiso   1.00
H779   H     0.06537   0.45627   0.69402   0.00000  Uiso   1.00
H780   H     0.26797   0.54372   0.80598   0.00000  Uiso   1.00
N781   N     0.04759   0.50001   0.75001   0.00000  Uiso   1.00
N782   N     0.28574   0.49999   0.74999   0.00000  Uiso   1.00
O783   O     0.12846   0.56108   0.75001   0.00000  Uiso   1.00
O784   O     0.20488   0.43892   0.75000   0.00000  Uiso   1.00
O785   O     0.20490   0.56107   0.75000   0.00000  Uiso   1.00
O786   O     0.12843   0.43893   0.75000   0.00000  Uiso   1.00
O787   O     0.10661   0.50001   0.81613   0.00000  Uiso   1.00
O788   O     0.22672   0.49999   0.68388   0.00000  Uiso   1.00
O789   O     0.18305   0.50000   0.81612   0.00000  Uiso   1.00
O790   O     0.15028   0.50000   0.68388   0.00000  Uiso   1.00
Zn791  Zn    0.11562   0.50001   0.75000   0.00000  Uiso   1.00
Zn792  Zn    0.21771   0.49999   0.75000   0.00000  Uiso   1.00
Cl793  Cl    0.02111   0.45568   0.57798   0.00000  Uiso   1.00
Cl794  Cl    0.31222   0.54432   0.92202   0.00000  Uiso   1.00
H795   H     0.16085   0.46944   0.60689   0.00000  Uiso   1.00
H796   H     0.17249   0.53056   0.89311   0.00000  Uiso   1.00
Cl797  Cl    0.29514   0.55282   0.61472   0.00000  Uiso   1.00
Cl798  Cl    0.03819   0.44718   0.88528   0.00000  Uiso   1.00
Cl799  Cl    0.00386   0.43400   0.99226   0.00000  Uiso   1.00
Cl800  Cl    0.32947   0.56600   0.50774   0.00000  Uiso   1.00
H801   H     0.10083   0.48100   0.59086   0.00000  Uiso   1.00
H802   H     0.23250   0.51900   0.90914   0.00000  Uiso   1.00
H803   H     0.24624   0.37089   0.72732   0.00000  Uiso   1.00
H804   H     0.08709   0.62911   0.77268   0.00000  Uiso   1.00
H805   H     0.31449   0.45637   0.69398   0.00000  Uiso   1.00
H806   H     0.01884   0.54363   0.80602   0.00000  Uiso   1.00
C807   C     0.50001   0.58003   0.75001   0.00000  Uiso   1.00
C808   C     0.49999   0.41997   0.74999   0.00000  Uiso   1.00
C809   C     0.44652   0.48269   0.55302   0.00000  Uiso   1.00
C810   C     0.55348   0.51731   0.94698   0.00000  Uiso   1.00
C811   C     0.41173   0.47209   0.53502   0.00000  Uiso   1.00
C812   C     0.58827   0.52791   0.96499   0.00000  Uiso   1.00
C813   C     0.54474   0.64529   0.73745   0.00000  Uiso   1.00
C814   C     0.45526   0.35471   0.76255   0.00000  Uiso   1.00
C815   C     0.54474   0.35462   0.73746   0.00000  Uiso   1.00
C816   C     0.45526   0.64538   0.76254   0.00000  Uiso   1.00
C817   C     0.50000   0.37582   0.75001   0.00000  Uiso   1.00
C818   C     0.50000   0.62418   0.74999   0.00000  Uiso   1.00
C819   C     0.65564   0.47575   0.71886   0.00000  Uiso   1.00
C820   C     0.34436   0.52425   0.78114   0.00000  Uiso   1.00
C821   C     0.37023   0.47573   0.71890   0.00000  Uiso   1.00
C822   C     0.62977   0.52427   0.78110   0.00000  Uiso   1.00
C823   C     0.46876   0.49884   0.83837   0.00000  Uiso   1.00
C824   C     0.53124   0.50116   0.66163   0.00000  Uiso   1.00
C825   C     0.44801   0.49419   0.88979   0.00000  Uiso   1.00
C826   C     0.55199   0.50581   0.61021   0.00000  Uiso   1.00
C827   C     0.39155   0.46354   0.96361   0.00000  Uiso   1.00
C828   C     0.60845   0.53646   0.53639   0.00000  Uiso   1.00
C829   C     0.40565   0.47050   0.91490   0.00000  Uiso   1.00
C830   C     0.59435   0.52950   0.58510   0.00000  Uiso   1.00
C831   C     0.47631   0.50952   0.91264   0.00000  Uiso   1.00
C832   C     0.52369   0.49048   0.58736   0.00000  Uiso   1.00
C833   C     0.46843   0.49703   0.95827   0.00000  Uiso   1.00
C834   C     0.53157   0.50297   0.54173   0.00000  Uiso   1.00
C835   C     0.42296   0.47710   0.98621   0.00000  Uiso   1.00
C836   C     0.57704   0.52290   0.51379   0.00000  Uiso   1.00
C837   C     0.50533   0.50410   0.97616   0.00000  Uiso   1.00
C838   C     0.49467   0.49590   0.52384   0.00000  Uiso   1.00
H839   H     0.57958   0.62896   0.72730   0.00000  Uiso   1.00
H840   H     0.42042   0.37104   0.77270   0.00000  Uiso   1.00
H841   H     0.39870   0.45627   0.69402   0.00000  Uiso   1.00
H842   H     0.60130   0.54372   0.80598   0.00000  Uiso   1.00
N843   N     0.38093   0.50001   0.75001   0.00000  Uiso   1.00
N844   N     0.61907   0.49999   0.74999   0.00000  Uiso   1.00
O845   O     0.46179   0.56108   0.75001   0.00000  Uiso   1.00
O846   O     0.53821   0.43892   0.75000   0.00000  Uiso   1.00
O847   O     0.53823   0.56107   0.75000   0.00000  Uiso   1.00
O848   O     0.46177   0.43893   0.75000   0.00000  Uiso   1.00
O849   O     0.43994   0.50001   0.81613   0.00000  Uiso   1.00
O850   O     0.56006   0.49999   0.68388   0.00000  Uiso   1.00
O851   O     0.51639   0.50000   0.81612   0.00000  Uiso   1.00
O852   O     0.48361   0.50000   0.68388   0.00000  Uiso   1.00
Zn853  Zn    0.44896   0.50001   0.75000   0.00000  Uiso   1.00
Zn854  Zn    0.55104   0.49999   0.75000   0.00000  Uiso   1.00
Cl855  Cl    0.35445   0.45568   0.57798   0.00000  Uiso   1.00
Cl856  Cl    0.64555   0.54432   0.92202   0.00000  Uiso   1.00
H857   H     0.49418   0.46944   0.60689   0.00000  Uiso   1.00
H858   H     0.50582   0.53056   0.89311   0.00000  Uiso   1.00
Cl859  Cl    0.62847   0.55282   0.61472   0.00000  Uiso   1.00
Cl860  Cl    0.37153   0.44718   0.88528   0.00000  Uiso   1.00
Cl861  Cl    0.33720   0.43400   0.99226   0.00000  Uiso   1.00
Cl862  Cl    0.66280   0.56600   0.50774   0.00000  Uiso   1.00
H863   H     0.43416   0.48100   0.59086   0.00000  Uiso   1.00
H864   H     0.56584   0.51900   0.90914   0.00000  Uiso   1.00
H865   H     0.57957   0.37089   0.72732   0.00000  Uiso   1.00
H866   H     0.42043   0.62911   0.77268   0.00000  Uiso   1.00
H867   H     0.64783   0.45637   0.69398   0.00000  Uiso   1.00
H868   H     0.35217   0.54363   0.80602   0.00000  Uiso   1.00
C869   C     0.83334   0.58003   0.75001   0.00000  Uiso   1.00
C870   C     0.83333   0.41997   0.74999   0.00000  Uiso   1.00
C871   C     0.77986   0.48269   0.55302   0.00000  Uiso   1.00
C872   C     0.88681   0.51731   0.94698   0.00000  Uiso   1.00
C873   C     0.74507   0.47209   0.53502   0.00000  Uiso   1.00
C874   C     0.92160   0.52791   0.96499   0.00000  Uiso   1.00
C875   C     0.87808   0.64529   0.73745   0.00000  Uiso   1.00
C876   C     0.78859   0.35471   0.76255   0.00000  Uiso   1.00
C877   C     0.87807   0.35462   0.73746   0.00000  Uiso   1.00
C878   C     0.78860   0.64538   0.76254   0.00000  Uiso   1.00
C879   C     0.83333   0.37582   0.75001   0.00000  Uiso   1.00
C880   C     0.83334   0.62418   0.74999   0.00000  Uiso   1.00
C881   C     0.98897   0.47575   0.71886   0.00000  Uiso   1.00
C882   C     0.67769   0.52425   0.78114   0.00000  Uiso   1.00
C883   C     0.70357   0.47573   0.71890   0.00000  Uiso   1.00
C884   C     0.96310   0.52427   0.78110   0.00000  Uiso   1.00
C885   C     0.80209   0.49884   0.83837   0.00000  Uiso   1.00
C886   C     0.86457   0.50116   0.66163   0.00000  Uiso   1.00
C887   C     0.78135   0.49419   0.88979   0.00000  Uiso   1.00
C888   C     0.88532   0.50581   0.61021   0.00000  Uiso   1.00
C889   C     0.72489   0.46354   0.96361   0.00000  Uiso   1.00
C890   C     0.94178   0.53646   0.53639   0.00000  Uiso   1.00
C891   C     0.73898   0.47050   0.91490   0.00000  Uiso   1.00
C892   C     0.92769   0.52950   0.58510   0.00000  Uiso   1.00
C893   C     0.80964   0.50952   0.91264   0.00000  Uiso   1.00
C894   C     0.85702   0.49048   0.58736   0.00000  Uiso   1.00
C895   C     0.80176   0.49703   0.95827   0.00000  Uiso   1.00
C896   C     0.86491   0.50297   0.54173   0.00000  Uiso   1.00
C897   C     0.75629   0.47710   0.98621   0.00000  Uiso   1.00
C898   C     0.91038   0.52290   0.51379   0.00000  Uiso   1.00
C899   C     0.83867   0.50410   0.97616   0.00000  Uiso   1.00
C900   C     0.82800   0.49590   0.52384   0.00000  Uiso   1.00
H901   H     0.91291   0.62896   0.72730   0.00000  Uiso   1.00
H902   H     0.75375   0.37104   0.77270   0.00000  Uiso   1.00
H903   H     0.73203   0.45627   0.69402   0.00000  Uiso   1.00
H904   H     0.93463   0.54372   0.80598   0.00000  Uiso   1.00
N905   N     0.71426   0.50001   0.75001   0.00000  Uiso   1.00
N906   N     0.95241   0.49999   0.74999   0.00000  Uiso   1.00
O907   O     0.79512   0.56108   0.75001   0.00000  Uiso   1.00
O908   O     0.87154   0.43892   0.75000   0.00000  Uiso   1.00
O909   O     0.87157   0.56107   0.75000   0.00000  Uiso   1.00
O910   O     0.79510   0.43893   0.75000   0.00000  Uiso   1.00
O911   O     0.77328   0.50001   0.81613   0.00000  Uiso   1.00
O912   O     0.89339   0.49999   0.68388   0.00000  Uiso   1.00
O913   O     0.84972   0.50000   0.81612   0.00000  Uiso   1.00
O914   O     0.81695   0.50000   0.68388   0.00000  Uiso   1.00
Zn915  Zn    0.78229   0.50001   0.75000   0.00000  Uiso   1.00
Zn916  Zn    0.88438   0.49999   0.75000   0.00000  Uiso   1.00
Cl917  Cl    0.68778   0.45568   0.57798   0.00000  Uiso   1.00
Cl918  Cl    0.97889   0.54432   0.92202   0.00000  Uiso   1.00
H919   H     0.82751   0.46944   0.60689   0.00000  Uiso   1.00
H920   H     0.83915   0.53056   0.89311   0.00000  Uiso   1.00
Cl921  Cl    0.96181   0.55282   0.61472   0.00000  Uiso   1.00
Cl922  Cl    0.70486   0.44718   0.88528   0.00000  Uiso   1.00
Cl923  Cl    0.67053   0.43400   0.99226   0.00000  Uiso   1.00
Cl924  Cl    0.99614   0.56600   0.50774   0.00000  Uiso   1.00
H925   H     0.76750   0.48100   0.59086   0.00000  Uiso   1.00
H926   H     0.89917   0.51900   0.90914   0.00000  Uiso   1.00
H927   H     0.91291   0.37089   0.72732   0.00000  Uiso   1.00
H928   H     0.75376   0.62911   0.77268   0.00000  Uiso   1.00
H929   H     0.98116   0.45637   0.69398   0.00000  Uiso   1.00
H930   H     0.68551   0.54363   0.80602   0.00000  Uiso   1.00
C931   C     0.16667   0.91337   0.75001   0.00000  Uiso   1.00
C932   C     0.16666   0.75330   0.74999   0.00000  Uiso   1.00
C933   C     0.11319   0.81602   0.55302   0.00000  Uiso   1.00
C934   C     0.22014   0.85065   0.94698   0.00000  Uiso   1.00
C935   C     0.07840   0.80543   0.53502   0.00000  Uiso   1.00
C936   C     0.25493   0.86124   0.96499   0.00000  Uiso   1.00
C937   C     0.21141   0.97863   0.73745   0.00000  Uiso   1.00
C938   C     0.12192   0.68804   0.76255   0.00000  Uiso   1.00
C939   C     0.21140   0.68795   0.73746   0.00000  Uiso   1.00
C940   C     0.12193   0.97871   0.76254   0.00000  Uiso   1.00
C941   C     0.16666   0.70916   0.75001   0.00000  Uiso   1.00
C942   C     0.16667   0.95751   0.74999   0.00000  Uiso   1.00
C943   C     0.32231   0.80908   0.71886   0.00000  Uiso   1.00
C944   C     0.01103   0.85758   0.78114   0.00000  Uiso   1.00
C945   C     0.03690   0.80906   0.71890   0.00000  Uiso   1.00
C946   C     0.29643   0.85761   0.78110   0.00000  Uiso   1.00
C947   C     0.13543   0.83218   0.83837   0.00000  Uiso   1.00
C948   C     0.19791   0.83449   0.66163   0.00000  Uiso   1.00
C949   C     0.11468   0.82753   0.88979   0.00000  Uiso   1.00
C950   C     0.21865   0.83914   0.61021   0.00000  Uiso   1.00
C951   C     0.05822   0.79687   0.96361   0.00000  Uiso   1.00
C952   C     0.27511   0.86979   0.53639   0.00000  Uiso   1.00
C953   C     0.07231   0.80383   0.91490   0.00000  Uiso   1.00
C954   C     0.26102   0.86283   0.58510   0.00000  Uiso   1.00
C955   C     0.14298   0.84285   0.91264   0.00000  Uiso   1.00
C956   C     0.19036   0.82381   0.58736   0.00000  Uiso   1.00
C957   C     0.13509   0.83037   0.95827   0.00000  Uiso   1.00
C958   C     0.19824   0.83630   0.54173   0.00000  Uiso   1.00
C959   C     0.08962   0.81044   0.98621   0.00000  Uiso   1.00
C960   C     0.24371   0.85623   0.51379   0.00000  Uiso   1.00
C961   C     0.17200   0.83743   0.97616   0.00000  Uiso   1.00
C962   C     0.16133   0.82923   0.52384   0.00000  Uiso   1.00
H963   H     0.24625   0.96229   0.72730   0.00000  Uiso   1.00
H964   H     0.08709   0.70437   0.77270   0.00000  Uiso   1.00
H965   H     0.06537   0.78961   0.69402   0.00000  Uiso   1.00
H966   H     0.26797   0.87706   0.80598   0.00000  Uiso   1.00
N967   N     0.04759   0.83334   0.75001   0.00000  Uiso   1.00
N968   N     0.28574   0.83332   0.74999   0.00000  Uiso   1.00
O969   O     0.12846   0.89442   0.75001   0.00000  Uiso   1.00
O970   O     0.20488   0.77225   0.75000   0.00000  Uiso   1.00
O971   O     0.20490   0.89441   0.75000   0.00000  Uiso   1.00
O972   O     0.12843   0.77226   0.75000   0.00000  Uiso   1.00
O973   O     0.10661   0.83334   0.81613   0.00000  Uiso   1.00
O974   O     0.22672   0.83333   0.68388   0.00000  Uiso   1.00
O975   O     0.18305   0.83333   0.81612   0.00000  Uiso   1.00
O976   O     0.15028   0.83334   0.68388   0.00000  Uiso   1.00
Zn977  Zn    0.11562   0.83334   0.75000   0.00000  Uiso   1.00
Zn978  Zn    0.21771   0.83333   0.75000   0.00000  Uiso   1.00
Cl979  Cl    0.02111   0.78902   0.57798   0.00000  Uiso   1.00
Cl980  Cl    0.31222   0.87765   0.92202   0.00000  Uiso   1.00
H981   H     0.16085   0.80277   0.60689   0.00000  Uiso   1.00
H982   H     0.17249   0.86389   0.89311   0.00000  Uiso   1.00
Cl983  Cl    0.29514   0.88616   0.61472   0.00000  Uiso   1.00
Cl984  Cl    0.03819   0.78051   0.88528   0.00000  Uiso   1.00
Cl985  Cl    0.00386   0.76734   0.99226   0.00000  Uiso   1.00
Cl986  Cl    0.32947   0.89933   0.50774   0.00000  Uiso   1.00
H987   H     0.10083   0.81433   0.59086   0.00000  Uiso   1.00
H988   H     0.23250   0.85233   0.90914   0.00000  Uiso   1.00
H989   H     0.24624   0.70422   0.72732   0.00000  Uiso   1.00
H990   H     0.08709   0.96245   0.77268   0.00000  Uiso   1.00
H991   H     0.31449   0.78970   0.69398   0.00000  Uiso   1.00
H992   H     0.01884   0.87697   0.80602   0.00000  Uiso   1.00
C993   C     0.50001   0.91337   0.75001   0.00000  Uiso   1.00
C994   C     0.49999   0.75330   0.74999   0.00000  Uiso   1.00
C995   C     0.44652   0.81602   0.55302   0.00000  Uiso   1.00
C996   C     0.55348   0.85065   0.94698   0.00000  Uiso   1.00
C997   C     0.41173   0.80543   0.53502   0.00000  Uiso   1.00
C998   C     0.58827   0.86124   0.96499   0.00000  Uiso   1.00
C999   C     0.54474   0.97863   0.73745   0.00000  Uiso   1.00
C1000  C     0.45526   0.68804   0.76255   0.00000  Uiso   1.00
C1001  C     0.54474   0.68795   0.73746   0.00000  Uiso   1.00
C1002  C     0.45526   0.97871   0.76254   0.00000  Uiso   1.00
C1003  C     0.50000   0.70916   0.75001   0.00000  Uiso   1.00
C1004  C     0.50000   0.95751   0.74999   0.00000  Uiso   1.00
C1005  C     0.65564   0.80908   0.71886   0.00000  Uiso   1.00
C1006  C     0.34436   0.85758   0.78114   0.00000  Uiso   1.00
C1007  C     0.37023   0.80906   0.71890   0.00000  Uiso   1.00
C1008  C     0.62977   0.85761   0.78110   0.00000  Uiso   1.00
C1009  C     0.46876   0.83218   0.83837   0.00000  Uiso   1.00
C1010  C     0.53124   0.83449   0.66163   0.00000  Uiso   1.00
C1011  C     0.44801   0.82753   0.88979   0.00000  Uiso   1.00
C1012  C     0.55199   0.83914   0.61021   0.00000  Uiso   1.00
C1013  C     0.39155   0.79687   0.96361   0.00000  Uiso   1.00
C1014  C     0.60845   0.86979   0.53639   0.00000  Uiso   1.00
C1015  C     0.40565   0.80383   0.91490   0.00000  Uiso   1.00
C1016  C     0.59435   0.86283   0.58510   0.00000  Uiso   1.00
C1017  C     0.47631   0.84285   0.91264   0.00000  Uiso   1.00
C1018  C     0.52369   0.82381   0.58736   0.00000  Uiso   1.00
C1019  C     0.46843   0.83037   0.95827   0.00000  Uiso   1.00
C1020  C     0.53157   0.83630   0.54173   0.00000  Uiso   1.00
C1021  C     0.42296   0.81044   0.98621   0.00000  Uiso   1.00
C1022  C     0.57704   0.85623   0.51379   0.00000  Uiso   1.00
C1023  C     0.50533   0.83743   0.97616   0.00000  Uiso   1.00
C1024  C     0.49467   0.82923   0.52384   0.00000  Uiso   1.00
H1025  H     0.57958   0.96229   0.72730   0.00000  Uiso   1.00
H1026  H     0.42042   0.70437   0.77270   0.00000  Uiso   1.00
H1027  H     0.39870   0.78961   0.69402   0.00000  Uiso   1.00
H1028  H     0.60130   0.87706   0.80598   0.00000  Uiso   1.00
N1029  N     0.38093   0.83334   0.75001   0.00000  Uiso   1.00
N1030  N     0.61907   0.83332   0.74999   0.00000  Uiso   1.00
O1031  O     0.46179   0.89442   0.75001   0.00000  Uiso   1.00
O1032  O     0.53821   0.77225   0.75000   0.00000  Uiso   1.00
O1033  O     0.53823   0.89441   0.75000   0.00000  Uiso   1.00
O1034  O     0.46177   0.77226   0.75000   0.00000  Uiso   1.00
O1035  O     0.43994   0.83334   0.81613   0.00000  Uiso   1.00
O1036  O     0.56006   0.83333   0.68388   0.00000  Uiso   1.00
O1037  O     0.51639   0.83333   0.81612   0.00000  Uiso   1.00
O1038  O     0.48361   0.83334   0.68388   0.00000  Uiso   1.00
Zn1039 Zn    0.44896   0.83334   0.75000   0.00000  Uiso   1.00
Zn1040 Zn    0.55104   0.83333   0.75000   0.00000  Uiso   1.00
Cl1041 Cl    0.35445   0.78902   0.57798   0.00000  Uiso   1.00
Cl1042 Cl    0.64555   0.87765   0.92202   0.00000  Uiso   1.00
H1043  H     0.49418   0.80277   0.60689   0.00000  Uiso   1.00
H1044  H     0.50582   0.86389   0.89311   0.00000  Uiso   1.00
Cl1045 Cl    0.62847   0.88616   0.61472   0.00000  Uiso   1.00
Cl1046 Cl    0.37153   0.78051   0.88528   0.00000  Uiso   1.00
Cl1047 Cl    0.33720   0.76734   0.99226   0.00000  Uiso   1.00
Cl1048 Cl    0.66280   0.89933   0.50774   0.00000  Uiso   1.00
H1049  H     0.43416   0.81433   0.59086   0.00000  Uiso   1.00
H1050  H     0.56584   0.85233   0.90914   0.00000  Uiso   1.00
H1051  H     0.57957   0.70422   0.72732   0.00000  Uiso   1.00
H1052  H     0.42043   0.96245   0.77268   0.00000  Uiso   1.00
H1053  H     0.64783   0.78970   0.69398   0.00000  Uiso   1.00
H1054  H     0.35217   0.87697   0.80602   0.00000  Uiso   1.00
C1055  C     0.83334   0.91337   0.75001   0.00000  Uiso   1.00
C1056  C     0.83333   0.75330   0.74999   0.00000  Uiso   1.00
C1057  C     0.77986   0.81602   0.55302   0.00000  Uiso   1.00
C1058  C     0.88681   0.85065   0.94698   0.00000  Uiso   1.00
C1059  C     0.74507   0.80543   0.53502   0.00000  Uiso   1.00
C1060  C     0.92160   0.86124   0.96499   0.00000  Uiso   1.00
C1061  C     0.87808   0.97863   0.73745   0.00000  Uiso   1.00
C1062  C     0.78859   0.68804   0.76255   0.00000  Uiso   1.00
C1063  C     0.87807   0.68795   0.73746   0.00000  Uiso   1.00
C1064  C     0.78860   0.97871   0.76254   0.00000  Uiso   1.00
C1065  C     0.83333   0.70916   0.75001   0.00000  Uiso   1.00
C1066  C     0.83334   0.95751   0.74999   0.00000  Uiso   1.00
C1067  C     0.98897   0.80908   0.71886   0.00000  Uiso   1.00
C1068  C     0.67769   0.85758   0.78114   0.00000  Uiso   1.00
C1069  C     0.70357   0.80906   0.71890   0.00000  Uiso   1.00
C1070  C     0.96310   0.85761   0.78110   0.00000  Uiso   1.00
C1071  C     0.80209   0.83218   0.83837   0.00000  Uiso   1.00
C1072  C     0.86457   0.83449   0.66163   0.00000  Uiso   1.00
C1073  C     0.78135   0.82753   0.88979   0.00000  Uiso   1.00
C1074  C     0.88532   0.83914   0.61021   0.00000  Uiso   1.00
C1075  C     0.72489   0.79687   0.96361   0.00000  Uiso   1.00
C1076  C     0.94178   0.86979   0.53639   0.00000  Uiso   1.00
C1077  C     0.73898   0.80383   0.91490   0.00000  Uiso   1.00
C1078  C     0.92769   0.86283   0.58510   0.00000  Uiso   1.00
C1079  C     0.80964   0.84285   0.91264   0.00000  Uiso   1.00
C1080  C     0.85702   0.82381   0.58736   0.00000  Uiso   1.00
C1081  C     0.80176   0.83037   0.95827   0.00000  Uiso   1.00
C1082  C     0.86491   0.83630   0.54173   0.00000  Uiso   1.00
C1083  C     0.75629   0.81044   0.98621   0.00000  Uiso   1.00
C1084  C     0.91038   0.85623   0.51379   0.00000  Uiso   1.00
C1085  C     0.83867   0.83743   0.97616   0.00000  Uiso   1.00
C1086  C     0.82800   0.82923   0.52384   0.00000  Uiso   1.00
H1087  H     0.91291   0.96229   0.72730   0.00000  Uiso   1.00
H1088  H     0.75375   0.70437   0.77270   0.00000  Uiso   1.00
H1089  H     0.73203   0.78961   0.69402   0.00000  Uiso   1.00
H1090  H     0.93463   0.87706   0.80598   0.00000  Uiso   1.00
N1091  N     0.71426   0.83334   0.75001   0.00000  Uiso   1.00
N1092  N     0.95241   0.83332   0.74999   0.00000  Uiso   1.00
O1093  O     0.79512   0.89442   0.75001   0.00000  Uiso   1.00
O1094  O     0.87154   0.77225   0.75000   0.00000  Uiso   1.00
O1095  O     0.87157   0.89441   0.75000   0.00000  Uiso   1.00
O1096  O     0.79510   0.77226   0.75000   0.00000  Uiso   1.00
O1097  O     0.77328   0.83334   0.81613   0.00000  Uiso   1.00
O1098  O     0.89339   0.83333   0.68388   0.00000  Uiso   1.00
O1099  O     0.84972   0.83333   0.81612   0.00000  Uiso   1.00
O1100  O     0.81695   0.83334   0.68388   0.00000  Uiso   1.00
Zn1101 Zn    0.78229   0.83334   0.75000   0.00000  Uiso   1.00
Zn1102 Zn    0.88438   0.83333   0.75000   0.00000  Uiso   1.00
Cl1103 Cl    0.68778   0.78902   0.57798   0.00000  Uiso   1.00
Cl1104 Cl    0.97889   0.87765   0.92202   0.00000  Uiso   1.00
H1105  H     0.82751   0.80277   0.60689   0.00000  Uiso   1.00
H1106  H     0.83915   0.86389   0.89311   0.00000  Uiso   1.00
Cl1107 Cl    0.96181   0.88616   0.61472   0.00000  Uiso   1.00
Cl1108 Cl    0.70486   0.78051   0.88528   0.00000  Uiso   1.00
Cl1109 Cl    0.67053   0.76734   0.99226   0.00000  Uiso   1.00
Cl1110 Cl    0.99614   0.89933   0.50774   0.00000  Uiso   1.00
H1111  H     0.76750   0.81433   0.59086   0.00000  Uiso   1.00
H1112  H     0.89917   0.85233   0.90914   0.00000  Uiso   1.00
H1113  H     0.91291   0.70422   0.72732   0.00000  Uiso   1.00
H1114  H     0.75376   0.96245   0.77268   0.00000  Uiso   1.00
H1115  H     0.98116   0.78970   0.69398   0.00000  Uiso   1.00
H1116  H     0.68551   0.87697   0.80602   0.00000  Uiso   1.00
loop_
_geom_bond_atom_site_label_1
_geom_bond_atom_site_label_2
_geom_bond_distance
_geom_bond_site_symmetry_2
_ccdc_geom_bond_type
C1     O41     1.283   .     A
C1     C12     1.418   .     S
C1     O39     1.283   .     A
C2     O42     1.283   .     A
C2     C11     1.418   .     S
C2     O40     1.283   .     A
C3     C5      1.391   .     A
C3     H57     1.078   .     S
C3     C32     1.413   .     A
C4     C31     1.413   .     A
C4     C6      1.391   .     A
C4     H58     1.078   .     S
C5     Cl49    1.766   .     S
C5     C587    1.418   1_554 S
C6     Cl50    1.766   .     S
C6     C588    1.418   .     S
C7     H33     1.084   .     S
C7     C12     1.397   .     A
C7     C195    1.370   .     S
C8     H34     1.084   .     S
C8     C11     1.397   .     A
C8     C382    1.370   1_545 S
C9     C11     1.397   .     A
C9     H59     1.084   .     S
C9     C379    1.370   1_545 S
C10    H60     1.084   .     S
C10    C12     1.397   .     A
C10    C194    1.370   .     S
C13    N38     1.366   .     A
C13    H61     1.082   .     S
C13    C77     1.416   .     S
C14    N37     1.366   .     A
C14    H62     1.082   .     S
C14    C140    1.416   1_455 S
C15    H35     1.082   .     S
C15    N37     1.367   .     A
C15    C137    1.416   1_455 S
C16    H36     1.082   .     S
C16    N38     1.367   .     A
C16    C76     1.416   .     S
C17    O43     1.290   .     A
C17    C19     1.465   .     S
C17    O45     1.297   .     A
C18    O44     1.290   .     A
C18    O46     1.297   .     A
C18    C20     1.465   .     S
C19    C25     1.381   .     A
C19    C23     1.406   .     A
C20    C26     1.381   .     A
C20    C24     1.406   .     A
C21    C23     1.410   .     A
C21    Cl55    1.771   .     S
C21    C29     1.432   .     A
C22    C24     1.410   .     A
C22    Cl56    1.771   .     S
C22    C30     1.432   .     A
C23    Cl54    1.773   .     S
C24    Cl53    1.773   .     S
C25    H52     1.079   .     S
C25    C27     1.394   .     A
C26    C28     1.394   .     A
C26    H51     1.079   .     S
C27    C29     1.428   .     A
C27    C31     1.423   .     A
C28    C30     1.428   .     A
C28    C32     1.423   .     A
C29    C563    1.418   .     S
C30    C564    1.418   1_554 S
C31    C590    1.403   .     S
C32    C589    1.403   1_554 S
N37    Zn47    2.009   .     S
N38    Zn48    2.009   .     S
O39    Zn47    1.998   .     S
O40    Zn48    1.998   .     S
O41    Zn48    1.998   .     S
O42    Zn47    1.998   .     S
O43    Zn47    1.951   .     S
O44    Zn48    1.951   .     S
O45    Zn48    1.885   .     S
O46    Zn47    1.885   .     S
C63    O103    1.283   .     A
C63    C74     1.418   .     S
C63    O101    1.283   .     A
C64    O104    1.283   .     A
C64    C73     1.418   .     S
C64    O102    1.283   .     A
C65    C67     1.391   .     A
C65    H119    1.078   .     S
C65    C94     1.413   .     A
C66    C93     1.413   .     A
C66    C68     1.391   .     A
C66    H120    1.078   .     S
C67    Cl111   1.766   .     S
C67    C649    1.418   1_554 S
C68    Cl112   1.766   .     S
C68    C650    1.418   .     S
C69    H95     1.084   .     S
C69    C74     1.397   .     A
C69    C257    1.370   .     S
C70    H96     1.084   .     S
C70    C73     1.397   .     A
C70    C444    1.370   1_545 S
C71    C73     1.397   .     A
C71    H121    1.084   .     S
C71    C441    1.370   1_545 S
C72    H122    1.084   .     S
C72    C74     1.397   .     A
C72    C256    1.370   .     S
C75    N100    1.366   .     A
C75    H123    1.082   .     S
C75    C139    1.416   .     S
C76    N99     1.366   .     A
C76    H124    1.082   .     S
C77    H97     1.082   .     S
C77    N99     1.367   .     A
C78    H98     1.082   .     S
C78    N100    1.367   .     A
C78    C138    1.416   .     S
C79    O105    1.290   .     A
C79    C81     1.465   .     S
C79    O107    1.297   .     A
C80    O106    1.290   .     A
C80    O108    1.297   .     A
C80    C82     1.465   .     S
C81    C87     1.381   .     A
C81    C85     1.406   .     A
C82    C88     1.381   .     A
C82    C86     1.406   .     A
C83    C85     1.410   .     A
C83    Cl117   1.771   .     S
C83    C91     1.432   .     A
C84    C86     1.410   .     A
C84    Cl118   1.771   .     S
C84    C92     1.432   .     A
C85    Cl116   1.773   .     S
C86    Cl115   1.773   .     S
C87    H114    1.079   .     S
C87    C89     1.394   .     A
C88    C90     1.394   .     A
C88    H113    1.079   .     S
C89    C91     1.428   .     A
C89    C93     1.423   .     A
C90    C92     1.428   .     A
C90    C94     1.423   .     A
C91    C625    1.418   .     S
C92    C626    1.418   1_554 S
C93    C652    1.403   .     S
C94    C651    1.403   1_554 S
N99    Zn109   2.009   .     S
N100   Zn110   2.009   .     S
O101   Zn109   1.998   .     S
O102   Zn110   1.998   .     S
O103   Zn110   1.998   .     S
O104   Zn109   1.998   .     S
O105   Zn109   1.951   .     S
O106   Zn110   1.951   .     S
O107   Zn110   1.885   .     S
O108   Zn109   1.885   .     S
C125   O165    1.283   .     A
C125   C136    1.418   .     S
C125   O163    1.283   .     A
C126   O166    1.283   .     A
C126   C135    1.418   .     S
C126   O164    1.283   .     A
C127   C129    1.391   .     A
C127   H181    1.078   .     S
C127   C156    1.413   .     A
C128   C155    1.413   .     A
C128   C130    1.391   .     A
C128   H182    1.078   .     S
C129   Cl173   1.766   .     S
C129   C711    1.418   1_554 S
C130   Cl174   1.766   .     S
C130   C712    1.418   .     S
C131   H157    1.084   .     S
C131   C136    1.397   .     A
C131   C319    1.370   .     S
C132   H158    1.084   .     S
C132   C135    1.397   .     A
C132   C506    1.370   1_545 S
C133   C135    1.397   .     A
C133   H183    1.084   .     S
C133   C503    1.370   1_545 S
C134   H184    1.084   .     S
C134   C136    1.397   .     A
C134   C318    1.370   .     S
C137   N162    1.366   .     A
C137   H185    1.082   .     S
C137   C15     1.416   1_655 S
C138   N161    1.366   .     A
C138   H186    1.082   .     S
C139   H159    1.082   .     S
C139   N161    1.367   .     A
C140   H160    1.082   .     S
C140   N162    1.367   .     A
C140   C14     1.416   1_655 S
C141   O167    1.290   .     A
C141   C143    1.465   .     S
C141   O169    1.297   .     A
C142   O168    1.290   .     A
C142   O170    1.297   .     A
C142   C144    1.465   .     S
C143   C149    1.381   .     A
C143   C147    1.406   .     A
C144   C150    1.381   .     A
C144   C148    1.406   .     A
C145   C147    1.410   .     A
C145   Cl179   1.771   .     S
C145   C153    1.432   .     A
C146   C148    1.410   .     A
C146   Cl180   1.771   .     S
C146   C154    1.432   .     A
C147   Cl178   1.773   .     S
C148   Cl177   1.773   .     S
C149   H176    1.079   .     S
C149   C151    1.394   .     A
C150   C152    1.394   .     A
C150   H175    1.079   .     S
C151   C153    1.428   .     A
C151   C155    1.423   .     A
C152   C154    1.428   .     A
C152   C156    1.423   .     A
C153   C687    1.418   .     S
C154   C688    1.418   1_554 S
C155   C714    1.403   .     S
C156   C713    1.403   1_554 S
N161   Zn171   2.009   .     S
N162   Zn172   2.009   .     S
O163   Zn171   1.998   .     S
O164   Zn172   1.998   .     S
O165   Zn172   1.998   .     S
O166   Zn171   1.998   .     S
O167   Zn171   1.951   .     S
O168   Zn172   1.951   .     S
O169   Zn172   1.885   .     S
O170   Zn171   1.885   .     S
C187   O227    1.283   .     A
C187   C198    1.418   .     S
C187   O225    1.283   .     A
C188   O228    1.283   .     A
C188   C197    1.418   .     S
C188   O226    1.283   .     A
C189   C191    1.391   .     A
C189   H243    1.078   .     S
C189   C218    1.413   .     A
C190   C217    1.413   .     A
C190   C192    1.391   .     A
C190   H244    1.078   .     S
C191   Cl235   1.766   .     S
C191   C773    1.418   1_554 S
C192   Cl236   1.766   .     S
C192   C774    1.418   .     S
C193   H219    1.084   .     S
C193   C198    1.397   .     A
C193   C381    1.370   .     S
C194   H220    1.084   .     S
C194   C197    1.397   .     A
C195   C197    1.397   .     A
C195   H245    1.084   .     S
C196   H246    1.084   .     S
C196   C198    1.397   .     A
C196   C380    1.370   .     S
C199   N224    1.366   .     A
C199   H247    1.082   .     S
C199   C263    1.416   .     S
C200   N223    1.366   .     A
C200   H248    1.082   .     S
C200   C326    1.416   1_455 S
C201   H221    1.082   .     S
C201   N223    1.367   .     A
C201   C323    1.416   1_455 S
C202   H222    1.082   .     S
C202   N224    1.367   .     A
C202   C262    1.416   .     S
C203   O229    1.290   .     A
C203   C205    1.465   .     S
C203   O231    1.297   .     A
C204   O230    1.290   .     A
C204   O232    1.297   .     A
C204   C206    1.465   .     S
C205   C211    1.381   .     A
C205   C209    1.406   .     A
C206   C212    1.381   .     A
C206   C210    1.406   .     A
C207   C209    1.410   .     A
C207   Cl241   1.771   .     S
C207   C215    1.432   .     A
C208   C210    1.410   .     A
C208   Cl242   1.771   .     S
C208   C216    1.432   .     A
C209   Cl240   1.773   .     S
C210   Cl239   1.773   .     S
C211   H238    1.079   .     S
C211   C213    1.394   .     A
C212   C214    1.394   .     A
C212   H237    1.079   .     S
C213   C215    1.428   .     A
C213   C217    1.423   .     A
C214   C216    1.428   .     A
C214   C218    1.423   .     A
C215   C749    1.418   .     S
C216   C750    1.418   1_554 S
C217   C776    1.403   .     S
C218   C775    1.403   1_554 S
N223   Zn233   2.009   .     S
N224   Zn234   2.009   .     S
O225   Zn233   1.998   .     S
O226   Zn234   1.998   .     S
O227   Zn234   1.998   .     S
O228   Zn233   1.998   .     S
O229   Zn233   1.951   .     S
O230   Zn234   1.951   .     S
O231   Zn234   1.885   .     S
O232   Zn233   1.885   .     S
C249   O289    1.283   .     A
C249   C260    1.418   .     S
C249   O287    1.283   .     A
C250   O290    1.283   .     A
C250   C259    1.418   .     S
C250   O288    1.283   .     A
C251   C253    1.391   .     A
C251   H305    1.078   .     S
C251   C280    1.413   .     A
C252   C279    1.413   .     A
C252   C254    1.391   .     A
C252   H306    1.078   .     S
C253   Cl297   1.766   .     S
C253   C835    1.418   1_554 S
C254   Cl298   1.766   .     S
C254   C836    1.418   .     S
C255   H281    1.084   .     S
C255   C260    1.397   .     A
C255   C443    1.370   .     S
C256   H282    1.084   .     S
C256   C259    1.397   .     A
C257   C259    1.397   .     A
C257   H307    1.084   .     S
C258   H308    1.084   .     S
C258   C260    1.397   .     A
C258   C442    1.370   .     S
C261   N286    1.366   .     A
C261   H309    1.082   .     S
C261   C325    1.416   .     S
C262   N285    1.366   .     A
C262   H310    1.082   .     S
C263   H283    1.082   .     S
C263   N285    1.367   .     A
C264   H284    1.082   .     S
C264   N286    1.367   .     A
C264   C324    1.416   .     S
C265   O291    1.290   .     A
C265   C267    1.465   .     S
C265   O293    1.297   .     A
C266   O292    1.290   .     A
C266   O294    1.297   .     A
C266   C268    1.465   .     S
C267   C273    1.381   .     A
C267   C271    1.406   .     A
C268   C274    1.381   .     A
C268   C272    1.406   .     A
C269   C271    1.410   .     A
C269   Cl303   1.771   .     S
C269   C277    1.432   .     A
C270   C272    1.410   .     A
C270   Cl304   1.771   .     S
C270   C278    1.432   .     A
C271   Cl302   1.773   .     S
C272   Cl301   1.773   .     S
C273   H300    1.079   .     S
C273   C275    1.394   .     A
C274   C276    1.394   .     A
C274   H299    1.079   .     S
C275   C277    1.428   .     A
C275   C279    1.423   .     A
C276   C278    1.428   .     A
C276   C280    1.423   .     A
C277   C811    1.418   .     S
C278   C812    1.418   1_554 S
C279   C838    1.403   .     S
C280   C837    1.403   1_554 S
N285   Zn295   2.009   .     S
N286   Zn296   2.009   .     S
O287   Zn295   1.998   .     S
O288   Zn296   1.998   .     S
O289   Zn296   1.998   .     S
O290   Zn295   1.998   .     S
O291   Zn295   1.951   .     S
O292   Zn296   1.951   .     S
O293   Zn296   1.885   .     S
O294   Zn295   1.885   .     S
C311   O351    1.283   .     A
C311   C322    1.418   .     S
C311   O349    1.283   .     A
C312   O352    1.283   .     A
C312   C321    1.418   .     S
C312   O350    1.283   .     A
C313   C315    1.391   .     A
C313   H367    1.078   .     S
C313   C342    1.413   .     A
C314   C341    1.413   .     A
C314   C316    1.391   .     A
C314   H368    1.078   .     S
C315   Cl359   1.766   .     S
C315   C897    1.418   1_554 S
C316   Cl360   1.766   .     S
C316   C898    1.418   .     S
C317   H343    1.084   .     S
C317   C322    1.397   .     A
C317   C505    1.370   .     S
C318   H344    1.084   .     S
C318   C321    1.397   .     A
C319   C321    1.397   .     A
C319   H369    1.084   .     S
C320   H370    1.084   .     S
C320   C322    1.397   .     A
C320   C504    1.370   .     S
C323   N348    1.366   .     A
C323   H371    1.082   .     S
C323   C201    1.416   1_655 S
C324   N347    1.366   .     A
C324   H372    1.082   .     S
C325   H345    1.082   .     S
C325   N347    1.367   .     A
C326   H346    1.082   .     S
C326   N348    1.367   .     A
C326   C200    1.416   1_655 S
C327   O353    1.290   .     A
C327   C329    1.465   .     S
C327   O355    1.297   .     A
C328   O354    1.290   .     A
C328   O356    1.297   .     A
C328   C330    1.465   .     S
C329   C335    1.381   .     A
C329   C333    1.406   .     A
C330   C336    1.381   .     A
C330   C334    1.406   .     A
C331   C333    1.410   .     A
C331   Cl365   1.771   .     S
C331   C339    1.432   .     A
C332   C334    1.410   .     A
C332   Cl366   1.771   .     S
C332   C340    1.432   .     A
C333   Cl364   1.773   .     S
C334   Cl363   1.773   .     S
C335   H362    1.079   .     S
C335   C337    1.394   .     A
C336   C338    1.394   .     A
C336   H361    1.079   .     S
C337   C339    1.428   .     A
C337   C341    1.423   .     A
C338   C340    1.428   .     A
C338   C342    1.423   .     A
C339   C873    1.418   .     S
C340   C874    1.418   1_554 S
C341   C900    1.403   .     S
C342   C899    1.403   1_554 S
N347   Zn357   2.009   .     S
N348   Zn358   2.009   .     S
O349   Zn357   1.998   .     S
O350   Zn358   1.998   .     S
O351   Zn358   1.998   .     S
O352   Zn357   1.998   .     S
O353   Zn357   1.951   .     S
O354   Zn358   1.951   .     S
O355   Zn358   1.885   .     S
O356   Zn357   1.885   .     S
C373   O413    1.283   .     A
C373   C384    1.418   .     S
C373   O411    1.283   .     A
C374   O414    1.283   .     A
C374   C383    1.418   .     S
C374   O412    1.283   .     A
C375   C377    1.391   .     A
C375   H429    1.078   .     S
C375   C404    1.413   .     A
C376   C403    1.413   .     A
C376   C378    1.391   .     A
C376   H430    1.078   .     S
C377   Cl421   1.766   .     S
C377   C959    1.418   1_554 S
C378   Cl422   1.766   .     S
C378   C960    1.418   .     S
C379   H405    1.084   .     S
C379   C384    1.397   .     A
C379   C9      1.370   1_565 S
C380   H406    1.084   .     S
C380   C383    1.397   .     A
C381   C383    1.397   .     A
C381   H431    1.084   .     S
C382   H432    1.084   .     S
C382   C384    1.397   .     A
C382   C8      1.370   1_565 S
C385   N410    1.366   .     A
C385   H433    1.082   .     S
C385   C449    1.416   .     S
C386   N409    1.366   .     A
C386   H434    1.082   .     S
C386   C512    1.416   1_455 S
C387   H407    1.082   .     S
C387   N409    1.367   .     A
C387   C509    1.416   1_455 S
C388   H408    1.082   .     S
C388   N410    1.367   .     A
C388   C448    1.416   .     S
C389   O415    1.290   .     A
C389   C391    1.465   .     S
C389   O417    1.297   .     A
C390   O416    1.290   .     A
C390   O418    1.297   .     A
C390   C392    1.465   .     S
C391   C397    1.381   .     A
C391   C395    1.406   .     A
C392   C398    1.381   .     A
C392   C396    1.406   .     A
C393   C395    1.410   .     A
C393   Cl427   1.771   .     S
C393   C401    1.432   .     A
C394   C396    1.410   .     A
C394   Cl428   1.771   .     S
C394   C402    1.432   .     A
C395   Cl426   1.773   .     S
C396   Cl425   1.773   .     S
C397   H424    1.079   .     S
C397   C399    1.394   .     A
C398   C400    1.394   .     A
C398   H423    1.079   .     S
C399   C401    1.428   .     A
C399   C403    1.423   .     A
C400   C402    1.428   .     A
C400   C404    1.423   .     A
C401   C935    1.418   .     S
C402   C936    1.418   1_554 S
C403   C962    1.403   .     S
C404   C961    1.403   1_554 S
N409   Zn419   2.009   .     S
N410   Zn420   2.009   .     S
O411   Zn419   1.998   .     S
O412   Zn420   1.998   .     S
O413   Zn420   1.998   .     S
O414   Zn419   1.998   .     S
O415   Zn419   1.951   .     S
O416   Zn420   1.951   .     S
O417   Zn420   1.885   .     S
O418   Zn419   1.885   .     S
C435   O475    1.283   .     A
C435   C446    1.418   .     S
C435   O473    1.283   .     A
C436   O476    1.283   .     A
C436   C445    1.418   .     S
C436   O474    1.283   .     A
C437   C439    1.391   .     A
C437   H491    1.078   .     S
C437   C466    1.413   .     A
C438   C465    1.413   .     A
C438   C440    1.391   .     A
C438   H492    1.078   .     S
C439   Cl483   1.766   .     S
C439   C1021   1.418   1_554 S
C440   Cl484   1.766   .     S
C440   C1022   1.418   .     S
C441   H467    1.084   .     S
C441   C446    1.397   .     A
C441   C71     1.370   1_565 S
C442   H468    1.084   .     S
C442   C445    1.397   .     A
C443   C445    1.397   .     A
C443   H493    1.084   .     S
C444   H494    1.084   .     S
C444   C446    1.397   .     A
C444   C70     1.370   1_565 S
C447   N472    1.366   .     A
C447   H495    1.082   .     S
C447   C511    1.416   .     S
C448   N471    1.366   .     A
C448   H496    1.082   .     S
C449   H469    1.082   .     S
C449   N471    1.367   .     A
C450   H470    1.082   .     S
C450   N472    1.367   .     A
C450   C510    1.416   .     S
C451   O477    1.290   .     A
C451   C453    1.465   .     S
C451   O479    1.297   .     A
C452   O478    1.290   .     A
C452   O480    1.297   .     A
C452   C454    1.465   .     S
C453   C459    1.381   .     A
C453   C457    1.406   .     A
C454   C460    1.381   .     A
C454   C458    1.406   .     A
C455   C457    1.410   .     A
C455   Cl489   1.771   .     S
C455   C463    1.432   .     A
C456   C458    1.410   .     A
C456   Cl490   1.771   .     S
C456   C464    1.432   .     A
C457   Cl488   1.773   .     S
C458   Cl487   1.773   .     S
C459   H486    1.079   .     S
C459   C461    1.394   .     A
C460   C462    1.394   .     A
C460   H485    1.079   .     S
C461   C463    1.428   .     A
C461   C465    1.423   .     A
C462   C464    1.428   .     A
C462   C466    1.423   .     A
C463   C997    1.418   .     S
C464   C998    1.418   1_554 S
C465   C1024   1.403   .     S
C466   C1023   1.403   1_554 S
N471   Zn481   2.009   .     S
N472   Zn482   2.009   .     S
O473   Zn481   1.998   .     S
O474   Zn482   1.998   .     S
O475   Zn482   1.998   .     S
O476   Zn481   1.998   .     S
O477   Zn481   1.951   .     S
O478   Zn482   1.951   .     S
O479   Zn482   1.885   .     S
O480   Zn481   1.885   .     S
C497   O537    1.283   .     A
C497   C508    1.418   .     S
C497   O535    1.283   .     A
C498   O538    1.283   .     A
C498   C507    1.418   .     S
C498   O536    1.283   .     A
C499   C501    1.391   .     A
C499   H553    1.078   .     S
C499   C528    1.413   .     A
C500   C527    1.413   .     A
C500   C502    1.391   .     A
C500   H554    1.078   .     S
C501   Cl545   1.766   .     S
C501   C1083   1.418   1_554 S
C502   Cl546   1.766   .     S
C502   C1084   1.418   .     S
C503   H529    1.084   .     S
C503   C508    1.397   .     A
C503   C133    1.370   1_565 S
C504   H530    1.084   .     S
C504   C507    1.397   .     A
C505   C507    1.397   .     A
C505   H555    1.084   .     S
C506   H556    1.084   .     S
C506   C508    1.397   .     A
C506   C132    1.370   1_565 S
C509   N534    1.366   .     A
C509   H557    1.082   .     S
C509   C387    1.416   1_655 S
C510   N533    1.366   .     A
C510   H558    1.082   .     S
C511   H531    1.082   .     S
C511   N533    1.367   .     A
C512   H532    1.082   .     S
C512   N534    1.367   .     A
C512   C386    1.416   1_655 S
C513   O539    1.290   .     A
C513   C515    1.465   .     S
C513   O541    1.297   .     A
C514   O540    1.290   .     A
C514   O542    1.297   .     A
C514   C516    1.465   .     S
C515   C521    1.381   .     A
C515   C519    1.406   .     A
C516   C522    1.381   .     A
C516   C520    1.406   .     A
C517   C519    1.410   .     A
C517   Cl551   1.771   .     S
C517   C525    1.432   .     A
C518   C520    1.410   .     A
C518   Cl552   1.771   .     S
C518   C526    1.432   .     A
C519   Cl550   1.773   .     S
C520   Cl549   1.773   .     S
C521   H548    1.079   .     S
C521   C523    1.394   .     A
C522   C524    1.394   .     A
C522   H547    1.079   .     S
C523   C525    1.428   .     A
C523   C527    1.423   .     A
C524   C526    1.428   .     A
C524   C528    1.423   .     A
C525   C1059   1.418   .     S
C526   C1060   1.418   1_554 S
C527   C1086   1.403   .     S
C528   C1085   1.403   1_554 S
N533   Zn543   2.009   .     S
N534   Zn544   2.009   .     S
O535   Zn543   1.998   .     S
O536   Zn544   1.998   .     S
O537   Zn544   1.998   .     S
O538   Zn543   1.998   .     S
O539   Zn543   1.951   .     S
O540   Zn544   1.951   .     S
O541   Zn544   1.885   .     S
O542   Zn543   1.885   .     S
C559   O599    1.283   .     A
C559   C570    1.418   .     S
C559   O597    1.283   .     A
C560   O600    1.283   .     A
C560   C569    1.418   .     S
C560   O598    1.283   .     A
C561   C563    1.391   .     A
C561   H615    1.078   .     S
C561   C590    1.413   .     A
C562   C589    1.413   .     A
C562   C564    1.391   .     A
C562   H616    1.078   .     S
C563   Cl607   1.766   .     S
C564   Cl608   1.766   .     S
C564   C30     1.418   1_556 S
C565   H591    1.084   .     S
C565   C570    1.397   .     A
C565   C753    1.370   .     S
C566   H592    1.084   .     S
C566   C569    1.397   .     A
C566   C940    1.370   1_545 S
C567   C569    1.397   .     A
C567   H617    1.084   .     S
C567   C937    1.370   1_545 S
C568   H618    1.084   .     S
C568   C570    1.397   .     A
C568   C752    1.370   .     S
C571   N596    1.366   .     A
C571   H619    1.082   .     S
C571   C635    1.416   .     S
C572   N595    1.366   .     A
C572   H620    1.082   .     S
C572   C698    1.416   1_455 S
C573   H593    1.082   .     S
C573   N595    1.367   .     A
C573   C695    1.416   1_455 S
C574   H594    1.082   .     S
C574   N596    1.367   .     A
C574   C634    1.416   .     S
C575   O601    1.290   .     A
C575   C577    1.465   .     S
C575   O603    1.297   .     A
C576   O602    1.290   .     A
C576   O604    1.297   .     A
C576   C578    1.465   .     S
C577   C583    1.381   .     A
C577   C581    1.406   .     A
C578   C584    1.381   .     A
C578   C582    1.406   .     A
C579   C581    1.410   .     A
C579   Cl613   1.771   .     S
C579   C587    1.432   .     A
C580   C582    1.410   .     A
C580   Cl614   1.771   .     S
C580   C588    1.432   .     A
C581   Cl612   1.773   .     S
C582   Cl611   1.773   .     S
C583   H610    1.079   .     S
C583   C585    1.394   .     A
C584   C586    1.394   .     A
C584   H609    1.079   .     S
C585   C587    1.428   .     A
C585   C589    1.423   .     A
C586   C588    1.428   .     A
C586   C590    1.423   .     A
C587   C5      1.418   1_556 S
C589   C32     1.403   1_556 S
N595   Zn605   2.009   .     S
N596   Zn606   2.009   .     S
O597   Zn605   1.998   .     S
O598   Zn606   1.998   .     S
O599   Zn606   1.998   .     S
O600   Zn605   1.998   .     S
O601   Zn605   1.951   .     S
O602   Zn606   1.951   .     S
O603   Zn606   1.885   .     S
O604   Zn605   1.885   .     S
C621   O661    1.283   .     A
C621   C632    1.418   .     S
C621   O659    1.283   .     A
C622   O662    1.283   .     A
C622   C631    1.418   .     S
C622   O660    1.283   .     A
C623   C625    1.391   .     A
C623   H677    1.078   .     S
C623   C652    1.413   .     A
C624   C651    1.413   .     A
C624   C626    1.391   .     A
C624   H678    1.078   .     S
C625   Cl669   1.766   .     S
C626   Cl670   1.766   .     S
C626   C92     1.418   1_556 S
C627   H653    1.084   .     S
C627   C632    1.397   .     A
C627   C815    1.370   .     S
C628   H654    1.084   .     S
C628   C631    1.397   .     A
C628   C1002   1.370   1_545 S
C629   C631    1.397   .     A
C629   H679    1.084   .     S
C629   C999    1.370   1_545 S
C630   H680    1.084   .     S
C630   C632    1.397   .     A
C630   C814    1.370   .     S
C633   N658    1.366   .     A
C633   H681    1.082   .     S
C633   C697    1.416   .     S
C634   N657    1.366   .     A
C634   H682    1.082   .     S
C635   H655    1.082   .     S
C635   N657    1.367   .     A
C636   H656    1.082   .     S
C636   N658    1.367   .     A
C636   C696    1.416   .     S
C637   O663    1.290   .     A
C637   C639    1.465   .     S
C637   O665    1.297   .     A
C638   O664    1.290   .     A
C638   O666    1.297   .     A
C638   C640    1.465   .     S
C639   C645    1.381   .     A
C639   C643    1.406   .     A
C640   C646    1.381   .     A
C640   C644    1.406   .     A
C641   C643    1.410   .     A
C641   Cl675   1.771   .     S
C641   C649    1.432   .     A
C642   C644    1.410   .     A
C642   Cl676   1.771   .     S
C642   C650    1.432   .     A
C643   Cl674   1.773   .     S
C644   Cl673   1.773   .     S
C645   H672    1.079   .     S
C645   C647    1.394   .     A
C646   C648    1.394   .     A
C646   H671    1.079   .     S
C647   C649    1.428   .     A
C647   C651    1.423   .     A
C648   C650    1.428   .     A
C648   C652    1.423   .     A
C649   C67     1.418   1_556 S
C651   C94     1.403   1_556 S
N657   Zn667   2.009   .     S
N658   Zn668   2.009   .     S
O659   Zn667   1.998   .     S
O660   Zn668   1.998   .     S
O661   Zn668   1.998   .     S
O662   Zn667   1.998   .     S
O663   Zn667   1.951   .     S
O664   Zn668   1.951   .     S
O665   Zn668   1.885   .     S
O666   Zn667   1.885   .     S
C683   O723    1.283   .     A
C683   C694    1.418   .     S
C683   O721    1.283   .     A
C684   O724    1.283   .     A
C684   C693    1.418   .     S
C684   O722    1.283   .     A
C685   C687    1.391   .     A
C685   H739    1.078   .     S
C685   C714    1.413   .     A
C686   C713    1.413   .     A
C686   C688    1.391   .     A
C686   H740    1.078   .     S
C687   Cl731   1.766   .     S
C688   Cl732   1.766   .     S
C688   C154    1.418   1_556 S
C689   H715    1.084   .     S
C689   C694    1.397   .     A
C689   C877    1.370   .     S
C690   H716    1.084   .     S
C690   C693    1.397   .     A
C690   C1064   1.370   1_545 S
C691   C693    1.397   .     A
C691   H741    1.084   .     S
C691   C1061   1.370   1_545 S
C692   H742    1.084   .     S
C692   C694    1.397   .     A
C692   C876    1.370   .     S
C695   N720    1.366   .     A
C695   H743    1.082   .     S
C695   C573    1.416   1_655 S
C696   N719    1.366   .     A
C696   H744    1.082   .     S
C697   H717    1.082   .     S
C697   N719    1.367   .     A
C698   H718    1.082   .     S
C698   N720    1.367   .     A
C698   C572    1.416   1_655 S
C699   O725    1.290   .     A
C699   C701    1.465   .     S
C699   O727    1.297   .     A
C700   O726    1.290   .     A
C700   O728    1.297   .     A
C700   C702    1.465   .     S
C701   C707    1.381   .     A
C701   C705    1.406   .     A
C702   C708    1.381   .     A
C702   C706    1.406   .     A
C703   C705    1.410   .     A
C703   Cl737   1.771   .     S
C703   C711    1.432   .     A
C704   C706    1.410   .     A
C704   Cl738   1.771   .     S
C704   C712    1.432   .     A
C705   Cl736   1.773   .     S
C706   Cl735   1.773   .     S
C707   H734    1.079   .     S
C707   C709    1.394   .     A
C708   C710    1.394   .     A
C708   H733    1.079   .     S
C709   C711    1.428   .     A
C709   C713    1.423   .     A
C710   C712    1.428   .     A
C710   C714    1.423   .     A
C711   C129    1.418   1_556 S
C713   C156    1.403   1_556 S
N719   Zn729   2.009   .     S
N720   Zn730   2.009   .     S
O721   Zn729   1.998   .     S
O722   Zn730   1.998   .     S
O723   Zn730   1.998   .     S
O724   Zn729   1.998   .     S
O725   Zn729   1.951   .     S
O726   Zn730   1.951   .     S
O727   Zn730   1.885   .     S
O728   Zn729   1.885   .     S
C745   O785    1.283   .     A
C745   C756    1.418   .     S
C745   O783    1.283   .     A
C746   O786    1.283   .     A
C746   C755    1.418   .     S
C746   O784    1.283   .     A
C747   C749    1.391   .     A
C747   H801    1.078   .     S
C747   C776    1.413   .     A
C748   C775    1.413   .     A
C748   C750    1.391   .     A
C748   H802    1.078   .     S
C749   Cl793   1.766   .     S
C750   Cl794   1.766   .     S
C750   C216    1.418   1_556 S
C751   H777    1.084   .     S
C751   C756    1.397   .     A
C751   C939    1.370   .     S
C752   H778    1.084   .     S
C752   C755    1.397   .     A
C753   C755    1.397   .     A
C753   H803    1.084   .     S
C754   H804    1.084   .     S
C754   C756    1.397   .     A
C754   C938    1.370   .     S
C757   N782    1.366   .     A
C757   H805    1.082   .     S
C757   C821    1.416   .     S
C758   N781    1.366   .     A
C758   H806    1.082   .     S
C758   C884    1.416   1_455 S
C759   H779    1.082   .     S
C759   N781    1.367   .     A
C759   C881    1.416   1_455 S
C760   H780    1.082   .     S
C760   N782    1.367   .     A
C760   C820    1.416   .     S
C761   O787    1.290   .     A
C761   C763    1.465   .     S
C761   O789    1.297   .     A
C762   O788    1.290   .     A
C762   O790    1.297   .     A
C762   C764    1.465   .     S
C763   C769    1.381   .     A
C763   C767    1.406   .     A
C764   C770    1.381   .     A
C764   C768    1.406   .     A
C765   C767    1.410   .     A
C765   Cl799   1.771   .     S
C765   C773    1.432   .     A
C766   C768    1.410   .     A
C766   Cl800   1.771   .     S
C766   C774    1.432   .     A
C767   Cl798   1.773   .     S
C768   Cl797   1.773   .     S
C769   H796    1.079   .     S
C769   C771    1.394   .     A
C770   C772    1.394   .     A
C770   H795    1.079   .     S
C771   C773    1.428   .     A
C771   C775    1.423   .     A
C772   C774    1.428   .     A
C772   C776    1.423   .     A
C773   C191    1.418   1_556 S
C775   C218    1.403   1_556 S
N781   Zn791   2.009   .     S
N782   Zn792   2.009   .     S
O783   Zn791   1.998   .     S
O784   Zn792   1.998   .     S
O785   Zn792   1.998   .     S
O786   Zn791   1.998   .     S
O787   Zn791   1.951   .     S
O788   Zn792   1.951   .     S
O789   Zn792   1.885   .     S
O790   Zn791   1.885   .     S
C807   O847    1.283   .     A
C807   C818    1.418   .     S
C807   O845    1.283   .     A
C808   O848    1.283   .     A
C808   C817    1.418   .     S
C808   O846    1.283   .     A
C809   C811    1.391   .     A
C809   H863    1.078   .     S
C809   C838    1.413   .     A
C810   C837    1.413   .     A
C810   C812    1.391   .     A
C810   H864    1.078   .     S
C811   Cl855   1.766   .     S
C812   Cl856   1.766   .     S
C812   C278    1.418   1_556 S
C813   H839    1.084   .     S
C813   C818    1.397   .     A
C813   C1001   1.370   .     S
C814   H840    1.084   .     S
C814   C817    1.397   .     A
C815   C817    1.397   .     A
C815   H865    1.084   .     S
C816   H866    1.084   .     S
C816   C818    1.397   .     A
C816   C1000   1.370   .     S
C819   N844    1.366   .     A
C819   H867    1.082   .     S
C819   C883    1.416   .     S
C820   N843    1.366   .     A
C820   H868    1.082   .     S
C821   H841    1.082   .     S
C821   N843    1.367   .     A
C822   H842    1.082   .     S
C822   N844    1.367   .     A
C822   C882    1.416   .     S
C823   O849    1.290   .     A
C823   C825    1.465   .     S
C823   O851    1.297   .     A
C824   O850    1.290   .     A
C824   O852    1.297   .     A
C824   C826    1.465   .     S
C825   C831    1.381   .     A
C825   C829    1.406   .     A
C826   C832    1.381   .     A
C826   C830    1.406   .     A
C827   C829    1.410   .     A
C827   Cl861   1.771   .     S
C827   C835    1.432   .     A
C828   C830    1.410   .     A
C828   Cl862   1.771   .     S
C828   C836    1.432   .     A
C829   Cl860   1.773   .     S
C830   Cl859   1.773   .     S
C831   H858    1.079   .     S
C831   C833    1.394   .     A
C832   C834    1.394   .     A
C832   H857    1.079   .     S
C833   C835    1.428   .     A
C833   C837    1.423   .     A
C834   C836    1.428   .     A
C834   C838    1.423   .     A
C835   C253    1.418   1_556 S
C837   C280    1.403   1_556 S
N843   Zn853   2.009   .     S
N844   Zn854   2.009   .     S
O845   Zn853   1.998   .     S
O846   Zn854   1.998   .     S
O847   Zn854   1.998   .     S
O848   Zn853   1.998   .     S
O849   Zn853   1.951   .     S
O850   Zn854   1.951   .     S
O851   Zn854   1.885   .     S
O852   Zn853   1.885   .     S
C869   O909    1.283   .     A
C869   C880    1.418   .     S
C869   O907    1.283   .     A
C870   O910    1.283   .     A
C870   C879    1.418   .     S
C870   O908    1.283   .     A
C871   C873    1.391   .     A
C871   H925    1.078   .     S
C871   C900    1.413   .     A
C872   C899    1.413   .     A
C872   C874    1.391   .     A
C872   H926    1.078   .     S
C873   Cl917   1.766   .     S
C874   Cl918   1.766   .     S
C874   C340    1.418   1_556 S
C875   H901    1.084   .     S
C875   C880    1.397   .     A
C875   C1063   1.370   .     S
C876   H902    1.084   .     S
C876   C879    1.397   .     A
C877   C879    1.397   .     A
C877   H927    1.084   .     S
C878   H928    1.084   .     S
C878   C880    1.397   .     A
C878   C1062   1.370   .     S
C881   N906    1.366   .     A
C881   H929    1.082   .     S
C881   C759    1.416   1_655 S
C882   N905    1.366   .     A
C882   H930    1.082   .     S
C883   H903    1.082   .     S
C883   N905    1.367   .     A
C884   H904    1.082   .     S
C884   N906    1.367   .     A
C884   C758    1.416   1_655 S
C885   O911    1.290   .     A
C885   C887    1.465   .     S
C885   O913    1.297   .     A
C886   O912    1.290   .     A
C886   O914    1.297   .     A
C886   C888    1.465   .     S
C887   C893    1.381   .     A
C887   C891    1.406   .     A
C888   C894    1.381   .     A
C888   C892    1.406   .     A
C889   C891    1.410   .     A
C889   Cl923   1.771   .     S
C889   C897    1.432   .     A
C890   C892    1.410   .     A
C890   Cl924   1.771   .     S
C890   C898    1.432   .     A
C891   Cl922   1.773   .     S
C892   Cl921   1.773   .     S
C893   H920    1.079   .     S
C893   C895    1.394   .     A
C894   C896    1.394   .     A
C894   H919    1.079   .     S
C895   C897    1.428   .     A
C895   C899    1.423   .     A
C896   C898    1.428   .     A
C896   C900    1.423   .     A
C897   C315    1.418   1_556 S
C899   C342    1.403   1_556 S
N905   Zn915   2.009   .     S
N906   Zn916   2.009   .     S
O907   Zn915   1.998   .     S
O908   Zn916   1.998   .     S
O909   Zn916   1.998   .     S
O910   Zn915   1.998   .     S
O911   Zn915   1.951   .     S
O912   Zn916   1.951   .     S
O913   Zn916   1.885   .     S
O914   Zn915   1.885   .     S
C931   O971    1.283   .     A
C931   C942    1.418   .     S
C931   O969    1.283   .     A
C932   O972    1.283   .     A
C932   C941    1.418   .     S
C932   O970    1.283   .     A
C933   C935    1.391   .     A
C933   H987    1.078   .     S
C933   C962    1.413   .     A
C934   C961    1.413   .     A
C934   C936    1.391   .     A
C934   H988    1.078   .     S
C935   Cl979   1.766   .     S
C936   Cl980   1.766   .     S
C936   C402    1.418   1_556 S
C937   H963    1.084   .     S
C937   C942    1.397   .     A
C937   C567    1.370   1_565 S
C938   H964    1.084   .     S
C938   C941    1.397   .     A
C939   C941    1.397   .     A
C939   H989    1.084   .     S
C940   H990    1.084   .     S
C940   C942    1.397   .     A
C940   C566    1.370   1_565 S
C943   N968    1.366   .     A
C943   H991    1.082   .     S
C943   C1007   1.416   .     S
C944   N967    1.366   .     A
C944   H992    1.082   .     S
C944   C1070   1.416   1_455 S
C945   H965    1.082   .     S
C945   N967    1.367   .     A
C945   C1067   1.416   1_455 S
C946   H966    1.082   .     S
C946   N968    1.367   .     A
C946   C1006   1.416   .     S
C947   O973    1.290   .     A
C947   C949    1.465   .     S
C947   O975    1.297   .     A
C948   O974    1.290   .     A
C948   O976    1.297   .     A
C948   C950    1.465   .     S
C949   C955    1.381   .     A
C949   C953    1.406   .     A
C950   C956    1.381   .     A
C950   C954    1.406   .     A
C951   C953    1.410   .     A
C951   Cl985   1.771   .     S
C951   C959    1.432   .     A
C952   C954    1.410   .     A
C952   Cl986   1.771   .     S
C952   C960    1.432   .     A
C953   Cl984   1.773   .     S
C954   Cl983   1.773   .     S
C955   H982    1.079   .     S
C955   C957    1.394   .     A
C956   C958    1.394   .     A
C956   H981    1.079   .     S
C957   C959    1.428   .     A
C957   C961    1.423   .     A
C958   C960    1.428   .     A
C958   C962    1.423   .     A
C959   C377    1.418   1_556 S
C961   C404    1.403   1_556 S
N967   Zn977   2.009   .     S
N968   Zn978   2.009   .     S
O969   Zn977   1.998   .     S
O970   Zn978   1.998   .     S
O971   Zn978   1.998   .     S
O972   Zn977   1.998   .     S
O973   Zn977   1.951   .     S
O974   Zn978   1.951   .     S
O975   Zn978   1.885   .     S
O976   Zn977   1.885   .     S
C993   O1033   1.283   .     A
C993   C1004   1.418   .     S
C993   O1031   1.283   .     A
C994   O1034   1.283   .     A
C994   C1003   1.418   .     S
C994   O1032   1.283   .     A
C995   C997    1.391   .     A
C995   H1049   1.078   .     S
C995   C1024   1.413   .     A
C996   C1023   1.413   .     A
C996   C998    1.391   .     A
C996   H1050   1.078   .     S
C997   Cl1041  1.766   .     S
C998   Cl1042  1.766   .     S
C998   C464    1.418   1_556 S
C999   H1025   1.084   .     S
C999   C1004   1.397   .     A
C999   C629    1.370   1_565 S
C1000  H1026   1.084   .     S
C1000  C1003   1.397   .     A
C1001  C1003   1.397   .     A
C1001  H1051   1.084   .     S
C1002  H1052   1.084   .     S
C1002  C1004   1.397   .     A
C1002  C628    1.370   1_565 S
C1005  N1030   1.366   .     A
C1005  H1053   1.082   .     S
C1005  C1069   1.416   .     S
C1006  N1029   1.366   .     A
C1006  H1054   1.082   .     S
C1007  H1027   1.082   .     S
C1007  N1029   1.367   .     A
C1008  H1028   1.082   .     S
C1008  N1030   1.367   .     A
C1008  C1068   1.416   .     S
C1009  O1035   1.290   .     A
C1009  C1011   1.465   .     S
C1009  O1037   1.297   .     A
C1010  O1036   1.290   .     A
C1010  O1038   1.297   .     A
C1010  C1012   1.465   .     S
C1011  C1017   1.381   .     A
C1011  C1015   1.406   .     A
C1012  C1018   1.381   .     A
C1012  C1016   1.406   .     A
C1013  C1015   1.410   .     A
C1013  Cl1047  1.771   .     S
C1013  C1021   1.432   .     A
C1014  C1016   1.410   .     A
C1014  Cl1048  1.771   .     S
C1014  C1022   1.432   .     A
C1015  Cl1046  1.773   .     S
C1016  Cl1045  1.773   .     S
C1017  H1044   1.079   .     S
C1017  C1019   1.394   .     A
C1018  C1020   1.394   .     A
C1018  H1043   1.079   .     S
C1019  C1021   1.428   .     A
C1019  C1023   1.423   .     A
C1020  C1022   1.428   .     A
C1020  C1024   1.423   .     A
C1021  C439    1.418   1_556 S
C1023  C466    1.403   1_556 S
N1029  Zn1039  2.009   .     S
N1030  Zn1040  2.009   .     S
O1031  Zn1039  1.998   .     S
O1032  Zn1040  1.998   .     S
O1033  Zn1040  1.998   .     S
O1034  Zn1039  1.998   .     S
O1035  Zn1039  1.951   .     S
O1036  Zn1040  1.951   .     S
O1037  Zn1040  1.885   .     S
O1038  Zn1039  1.885   .     S
C1055  O1095   1.283   .     A
C1055  C1066   1.418   .     S
C1055  O1093   1.283   .     A
C1056  O1096   1.283   .     A
C1056  C1065   1.418   .     S
C1056  O1094   1.283   .     A
C1057  C1059   1.391   .     A
C1057  H1111   1.078   .     S
C1057  C1086   1.413   .     A
C1058  C1085   1.413   .     A
C1058  C1060   1.391   .     A
C1058  H1112   1.078   .     S
C1059  Cl1103  1.766   .     S
C1060  Cl1104  1.766   .     S
C1060  C526    1.418   1_556 S
C1061  H1087   1.084   .     S
C1061  C1066   1.397   .     A
C1061  C691    1.370   1_565 S
C1062  H1088   1.084   .     S
C1062  C1065   1.397   .     A
C1063  C1065   1.397   .     A
C1063  H1113   1.084   .     S
C1064  H1114   1.084   .     S
C1064  C1066   1.397   .     A
C1064  C690    1.370   1_565 S
C1067  N1092   1.366   .     A
C1067  H1115   1.082   .     S
C1067  C945    1.416   1_655 S
C1068  N1091   1.366   .     A
C1068  H1116   1.082   .     S
C1069  H1089   1.082   .     S
C1069  N1091   1.367   .     A
C1070  H1090   1.082   .     S
C1070  N1092   1.367   .     A
C1070  C944    1.416   1_655 S
C1071  O1097   1.290   .     A
C1071  C1073   1.465   .     S
C1071  O1099   1.297   .     A
C1072  O1098   1.290   .     A
C1072  O1100   1.297   .     A
C1072  C1074   1.465   .     S
C1073  C1079   1.381   .     A
C1073  C1077   1.406   .     A
C1074  C1080   1.381   .     A
C1074  C1078   1.406   .     A
C1075  C1077   1.410   .     A
C1075  Cl1109  1.771   .     S
C1075  C1083   1.432   .     A
C1076  C1078   1.410   .     A
C1076  Cl1110  1.771   .     S
C1076  C1084   1.432   .     A
C1077  Cl1108  1.773   .     S
C1078  Cl1107  1.773   .     S
C1079  H1106   1.079   .     S
C1079  C1081   1.394   .     A
C1080  C1082   1.394   .     A
C1080  H1105   1.079   .     S
C1081  C1083   1.428   .     A
C1081  C1085   1.423   .     A
C1082  C1084   1.428   .     A
C1082  C1086   1.423   .     A
C1083  C501    1.418   1_556 S
C1085  C528    1.403   1_556 S
N1091  Zn1101  2.009   .     S
N1092  Zn1102  2.009   .     S
O1093  Zn1101  1.998   .     S
O1094  Zn1102  1.998   .     S
O1095  Zn1102  1.998   .     S
O1096  Zn1101  1.998   .     S
O1097  Zn1101  1.951   .     S
O1098  Zn1102  1.951   .     S
O1099  Zn1102  1.885   .     S
O1100  Zn1101  1.885   .     S
