data_str_m3_o2_o5_pcu_sym.106
_audit_creation_date              2020-01-03
_audit_creation_method            'Materials Studio'
_symmetry_space_group_name_H-M    'P1'
_symmetry_Int_Tables_number       1
_symmetry_cell_setting            triclinic
loop_
_symmetry_equiv_pos_as_xyz
  x,y,z
_cell_length_a                    30.1512
_cell_length_b                    28.3907
_cell_length_c                    26.7285
_cell_angle_alpha                 89.9995
_cell_angle_beta                  90.4215
_cell_angle_gamma                 89.9682
loop_
_atom_site_label
_atom_site_type_symbol
_atom_site_fract_x
_atom_site_fract_y
_atom_site_fract_z
_atom_site_U_iso_or_equiv
_atom_site_adp_type
_atom_site_occupancy
C1     C     0.16374   0.24997   0.16594   0.00000  Uiso   1.00
C2     C     0.22208   0.44718   0.13430   0.00000  Uiso   1.00
C3     C     0.24996   0.25000   0.07287   0.00000  Uiso   1.00
C4     C     0.25004   0.25000   0.26047   0.00000  Uiso   1.00
C5     C     0.25002   0.02654   0.16669   0.00000  Uiso   1.00
C6     C     0.24998   0.47315   0.16673   0.00000  Uiso   1.00
C7     C     0.24998   0.24999   0.02179   0.00000  Uiso   1.00
C8     C     0.25001   0.24999   0.31154   0.00000  Uiso   1.00
C9     C     0.04778   0.28934   0.13715   0.00000  Uiso   1.00
C10    C     0.45202   0.21084   0.13730   0.00000  Uiso   1.00
C11    C     0.45420   0.29103   0.16806   0.00000  Uiso   1.00
C12    C     0.33625   0.24997   0.16590   0.00000  Uiso   1.00
C13    C     0.04553   0.20970   0.16948   0.00000  Uiso   1.00
C14    C     0.09325   0.29073   0.14452   0.00000  Uiso   1.00
C15    C     0.40675   0.20894   0.14512   0.00000  Uiso   1.00
C16    C     0.40840   0.29178   0.17120   0.00000  Uiso   1.00
C17    C     0.09133   0.20841   0.17228   0.00000  Uiso   1.00
C18    C     0.11563   0.24978   0.16129   0.00000  Uiso   1.00
C19    C     0.38432   0.25001   0.16147   0.00000  Uiso   1.00
C20    C     0.02386   0.24956   0.15104   0.00000  Uiso   1.00
C21    C     0.47590   0.25090   0.15080   0.00000  Uiso   1.00
C22    C     0.11002   0.36500   0.17268   0.00000  Uiso   1.00
C23    C     0.23556   0.10201   0.12550   0.00000  Uiso   1.00
C24    C     0.09427   0.41195   0.15091   0.00000  Uiso   1.00
C25    C     0.09153   0.44973   0.19141   0.00000  Uiso   1.00
C26    C     0.38292   0.13794   0.17568   0.00000  Uiso   1.00
C27    C     0.42049   0.10159   0.17505   0.00000  Uiso   1.00
C28    C     0.41546   0.06613   0.21758   0.00000  Uiso   1.00
C29    C     0.38696   0.36641   0.14861   0.00000  Uiso   1.00
C30    C     0.39824   0.41491   0.17001   0.00000  Uiso   1.00
C31    C     0.39181   0.45342   0.13076   0.00000  Uiso   1.00
C32    C     0.12042   0.13634   0.15172   0.00000  Uiso   1.00
C33    C     0.08280   0.10063   0.14465   0.00000  Uiso   1.00
C34    C     0.27693   0.39763   0.19899   0.00000  Uiso   1.00
C35    C     0.09581   0.06245   0.10729   0.00000  Uiso   1.00
C36    C     0.26457   0.10202   0.20779   0.00000  Uiso   1.00
C37    C     0.22317   0.39771   0.13427   0.00000  Uiso   1.00
C38    C     0.23580   0.05254   0.12460   0.00000  Uiso   1.00
C39    C     0.27790   0.44711   0.19911   0.00000  Uiso   1.00
C40    C     0.26431   0.05255   0.20873   0.00000  Uiso   1.00
F41    F     0.22009   0.12550   0.08489   0.00000  Uiso   1.00
F42    F     0.30335   0.37344   0.23117   0.00000  Uiso   1.00
F43    F     0.28014   0.12552   0.24833   0.00000  Uiso   1.00
F44    F     0.19719   0.37364   0.10160   0.00000  Uiso   1.00
H45    H     0.03107   0.32019   0.12233   0.00000  Uiso   1.00
H46    H     0.08627   0.35387   0.20240   0.00000  Uiso   1.00
H47    H     0.11758   0.42381   0.12147   0.00000  Uiso   1.00
H48    H     0.06096   0.40721   0.13354   0.00000  Uiso   1.00
H49    H     0.06901   0.43828   0.22178   0.00000  Uiso   1.00
H50    H     0.07824   0.48279   0.17507   0.00000  Uiso   1.00
H51    H     0.12500   0.45685   0.20733   0.00000  Uiso   1.00
H52    H     0.35096   0.11865   0.17382   0.00000  Uiso   1.00
H53    H     0.38302   0.15749   0.21199   0.00000  Uiso   1.00
H54    H     0.42011   0.08254   0.13872   0.00000  Uiso   1.00
H55    H     0.45299   0.11950   0.17948   0.00000  Uiso   1.00
H56    H     0.46878   0.18033   0.12208   0.00000  Uiso   1.00
H57    H     0.41706   0.08440   0.25431   0.00000  Uiso   1.00
H58    H     0.44276   0.03992   0.21597   0.00000  Uiso   1.00
H59    H     0.38328   0.04728   0.21426   0.00000  Uiso   1.00
H60    H     0.35290   0.36734   0.13244   0.00000  Uiso   1.00
H61    H     0.41029   0.35904   0.11723   0.00000  Uiso   1.00
H62    H     0.37671   0.42257   0.20256   0.00000  Uiso   1.00
H63    H     0.43331   0.41502   0.18310   0.00000  Uiso   1.00
H64    H     0.41300   0.44649   0.09774   0.00000  Uiso   1.00
H65    H     0.40127   0.48800   0.14685   0.00000  Uiso   1.00
H66    H     0.35651   0.45510   0.11866   0.00000  Uiso   1.00
H67    H     0.47265   0.32194   0.17971   0.00000  Uiso   1.00
H68    H     0.15080   0.11664   0.16251   0.00000  Uiso   1.00
H69    H     0.12783   0.15418   0.11546   0.00000  Uiso   1.00
H70    H     0.07492   0.08396   0.18114   0.00000  Uiso   1.00
H71    H     0.05264   0.11868   0.13025   0.00000  Uiso   1.00
H72    H     0.10398   0.07845   0.07057   0.00000  Uiso   1.00
H73    H     0.06769   0.03769   0.10186   0.00000  Uiso   1.00
H74    H     0.12499   0.04238   0.12137   0.00000  Uiso   1.00
H75    H     0.02684   0.17968   0.18277   0.00000  Uiso   1.00
H76    H     0.22519   0.03515   0.09061   0.00000  Uiso   1.00
H77    H     0.30096   0.46447   0.22415   0.00000  Uiso   1.00
H78    H     0.27495   0.03517   0.24273   0.00000  Uiso   1.00
H79    H     0.19905   0.46457   0.10923   0.00000  Uiso   1.00
H80    H     0.14268   0.37033   0.19135   0.00000  Uiso   1.00
N81    N     0.25000   0.12624   0.16667   0.00000  Uiso   1.00
N82    N     0.25000   0.37377   0.16667   0.00000  Uiso   1.00
O83    O     0.18453   0.28974   0.16667   0.00000  Uiso   1.00
O84    O     0.38458   0.16772   0.13312   0.00000  Uiso   1.00
O85    O     0.38795   0.33254   0.18766   0.00000  Uiso   1.00
O86    O     0.11138   0.16822   0.19120   0.00000  Uiso   1.00
O87    O     0.31547   0.21026   0.16666   0.00000  Uiso   1.00
O88    O     0.31547   0.28974   0.16666   0.00000  Uiso   1.00
O89    O     0.18453   0.21026   0.16667   0.00000  Uiso   1.00
O90    O     0.25000   0.28973   0.09511   0.00000  Uiso   1.00
O91    O     0.25000   0.21027   0.23822   0.00000  Uiso   1.00
O92    O     0.25000   0.28973   0.23822   0.00000  Uiso   1.00
O93    O     0.25000   0.21027   0.09511   0.00000  Uiso   1.00
O94    O     0.11561   0.33191   0.13340   0.00000  Uiso   1.00
Zn95   Zn    0.25000   0.30307   0.16667   0.00000  Uiso   1.00
Zn96   Zn    0.25000   0.19693   0.16667   0.00000  Uiso   1.00
C97    C     0.66374   0.24997   0.16594   0.00000  Uiso   1.00
C98    C     0.72208   0.44718   0.13430   0.00000  Uiso   1.00
C99    C     0.74996   0.25000   0.07287   0.00000  Uiso   1.00
C100   C     0.75004   0.25000   0.26047   0.00000  Uiso   1.00
C101   C     0.75002   0.02654   0.16669   0.00000  Uiso   1.00
C102   C     0.74998   0.47315   0.16673   0.00000  Uiso   1.00
C103   C     0.74998   0.24999   0.02179   0.00000  Uiso   1.00
C104   C     0.75001   0.24999   0.31154   0.00000  Uiso   1.00
C105   C     0.54778   0.28934   0.13715   0.00000  Uiso   1.00
C106   C     0.95202   0.21084   0.13730   0.00000  Uiso   1.00
C107   C     0.95420   0.29103   0.16806   0.00000  Uiso   1.00
C108   C     0.83625   0.24997   0.16590   0.00000  Uiso   1.00
C109   C     0.54553   0.20970   0.16948   0.00000  Uiso   1.00
C110   C     0.59325   0.29073   0.14452   0.00000  Uiso   1.00
C111   C     0.90675   0.20894   0.14512   0.00000  Uiso   1.00
C112   C     0.90840   0.29178   0.17120   0.00000  Uiso   1.00
C113   C     0.59133   0.20841   0.17228   0.00000  Uiso   1.00
C114   C     0.61563   0.24978   0.16129   0.00000  Uiso   1.00
C115   C     0.88432   0.25001   0.16147   0.00000  Uiso   1.00
C116   C     0.52386   0.24956   0.15104   0.00000  Uiso   1.00
C117   C     0.97590   0.25090   0.15080   0.00000  Uiso   1.00
C118   C     0.61002   0.36500   0.17268   0.00000  Uiso   1.00
C119   C     0.73556   0.10201   0.12550   0.00000  Uiso   1.00
C120   C     0.59427   0.41195   0.15091   0.00000  Uiso   1.00
C121   C     0.59153   0.44973   0.19141   0.00000  Uiso   1.00
C122   C     0.88292   0.13794   0.17568   0.00000  Uiso   1.00
C123   C     0.92049   0.10159   0.17505   0.00000  Uiso   1.00
C124   C     0.91546   0.06613   0.21758   0.00000  Uiso   1.00
C125   C     0.88696   0.36641   0.14861   0.00000  Uiso   1.00
C126   C     0.89824   0.41491   0.17001   0.00000  Uiso   1.00
C127   C     0.89181   0.45342   0.13076   0.00000  Uiso   1.00
C128   C     0.62042   0.13634   0.15172   0.00000  Uiso   1.00
C129   C     0.58280   0.10063   0.14465   0.00000  Uiso   1.00
C130   C     0.77693   0.39763   0.19899   0.00000  Uiso   1.00
C131   C     0.59581   0.06245   0.10729   0.00000  Uiso   1.00
C132   C     0.76457   0.10202   0.20779   0.00000  Uiso   1.00
C133   C     0.72317   0.39771   0.13427   0.00000  Uiso   1.00
C134   C     0.73580   0.05254   0.12460   0.00000  Uiso   1.00
C135   C     0.77790   0.44711   0.19911   0.00000  Uiso   1.00
C136   C     0.76431   0.05255   0.20873   0.00000  Uiso   1.00
F137   F     0.72009   0.12550   0.08489   0.00000  Uiso   1.00
F138   F     0.80335   0.37344   0.23117   0.00000  Uiso   1.00
F139   F     0.78014   0.12552   0.24833   0.00000  Uiso   1.00
F140   F     0.69719   0.37364   0.10160   0.00000  Uiso   1.00
H141   H     0.53107   0.32019   0.12233   0.00000  Uiso   1.00
H142   H     0.58627   0.35387   0.20240   0.00000  Uiso   1.00
H143   H     0.61758   0.42381   0.12147   0.00000  Uiso   1.00
H144   H     0.56096   0.40721   0.13354   0.00000  Uiso   1.00
H145   H     0.56901   0.43828   0.22178   0.00000  Uiso   1.00
H146   H     0.57824   0.48279   0.17507   0.00000  Uiso   1.00
H147   H     0.62500   0.45685   0.20733   0.00000  Uiso   1.00
H148   H     0.85096   0.11865   0.17382   0.00000  Uiso   1.00
H149   H     0.88302   0.15749   0.21199   0.00000  Uiso   1.00
H150   H     0.92011   0.08254   0.13872   0.00000  Uiso   1.00
H151   H     0.95299   0.11950   0.17948   0.00000  Uiso   1.00
H152   H     0.96878   0.18033   0.12208   0.00000  Uiso   1.00
H153   H     0.91706   0.08440   0.25431   0.00000  Uiso   1.00
H154   H     0.94276   0.03992   0.21597   0.00000  Uiso   1.00
H155   H     0.88328   0.04728   0.21426   0.00000  Uiso   1.00
H156   H     0.85290   0.36734   0.13244   0.00000  Uiso   1.00
H157   H     0.91029   0.35904   0.11723   0.00000  Uiso   1.00
H158   H     0.87671   0.42257   0.20256   0.00000  Uiso   1.00
H159   H     0.93331   0.41502   0.18310   0.00000  Uiso   1.00
H160   H     0.91300   0.44649   0.09774   0.00000  Uiso   1.00
H161   H     0.90127   0.48800   0.14685   0.00000  Uiso   1.00
H162   H     0.85651   0.45510   0.11866   0.00000  Uiso   1.00
H163   H     0.97265   0.32194   0.17971   0.00000  Uiso   1.00
H164   H     0.65080   0.11664   0.16251   0.00000  Uiso   1.00
H165   H     0.62783   0.15418   0.11546   0.00000  Uiso   1.00
H166   H     0.57492   0.08396   0.18114   0.00000  Uiso   1.00
H167   H     0.55264   0.11868   0.13025   0.00000  Uiso   1.00
H168   H     0.60398   0.07845   0.07057   0.00000  Uiso   1.00
H169   H     0.56769   0.03769   0.10186   0.00000  Uiso   1.00
H170   H     0.62499   0.04238   0.12137   0.00000  Uiso   1.00
H171   H     0.52684   0.17968   0.18277   0.00000  Uiso   1.00
H172   H     0.72519   0.03515   0.09061   0.00000  Uiso   1.00
H173   H     0.80096   0.46447   0.22415   0.00000  Uiso   1.00
H174   H     0.77495   0.03517   0.24273   0.00000  Uiso   1.00
H175   H     0.69905   0.46457   0.10923   0.00000  Uiso   1.00
H176   H     0.64268   0.37033   0.19135   0.00000  Uiso   1.00
N177   N     0.75000   0.12624   0.16667   0.00000  Uiso   1.00
N178   N     0.75000   0.37377   0.16667   0.00000  Uiso   1.00
O179   O     0.68453   0.28974   0.16667   0.00000  Uiso   1.00
O180   O     0.88458   0.16772   0.13312   0.00000  Uiso   1.00
O181   O     0.88795   0.33254   0.18766   0.00000  Uiso   1.00
O182   O     0.61138   0.16822   0.19120   0.00000  Uiso   1.00
O183   O     0.81547   0.21026   0.16666   0.00000  Uiso   1.00
O184   O     0.81547   0.28974   0.16666   0.00000  Uiso   1.00
O185   O     0.68453   0.21026   0.16667   0.00000  Uiso   1.00
O186   O     0.75000   0.28973   0.09511   0.00000  Uiso   1.00
O187   O     0.75000   0.21027   0.23822   0.00000  Uiso   1.00
O188   O     0.75000   0.28973   0.23822   0.00000  Uiso   1.00
O189   O     0.75000   0.21027   0.09511   0.00000  Uiso   1.00
O190   O     0.61561   0.33191   0.13340   0.00000  Uiso   1.00
Zn191  Zn    0.75000   0.30307   0.16667   0.00000  Uiso   1.00
Zn192  Zn    0.75000   0.19693   0.16667   0.00000  Uiso   1.00
C193   C     0.16374   0.74997   0.16594   0.00000  Uiso   1.00
C194   C     0.22208   0.94718   0.13430   0.00000  Uiso   1.00
C195   C     0.24996   0.75000   0.07287   0.00000  Uiso   1.00
C196   C     0.25004   0.75000   0.26047   0.00000  Uiso   1.00
C197   C     0.25002   0.52654   0.16669   0.00000  Uiso   1.00
C198   C     0.24998   0.97315   0.16673   0.00000  Uiso   1.00
C199   C     0.24998   0.74999   0.02179   0.00000  Uiso   1.00
C200   C     0.25001   0.74999   0.31154   0.00000  Uiso   1.00
C201   C     0.04778   0.78934   0.13715   0.00000  Uiso   1.00
C202   C     0.45202   0.71084   0.13730   0.00000  Uiso   1.00
C203   C     0.45420   0.79103   0.16806   0.00000  Uiso   1.00
C204   C     0.33625   0.74997   0.16590   0.00000  Uiso   1.00
C205   C     0.04553   0.70970   0.16948   0.00000  Uiso   1.00
C206   C     0.09325   0.79073   0.14452   0.00000  Uiso   1.00
C207   C     0.40675   0.70894   0.14512   0.00000  Uiso   1.00
C208   C     0.40840   0.79178   0.17120   0.00000  Uiso   1.00
C209   C     0.09133   0.70841   0.17228   0.00000  Uiso   1.00
C210   C     0.11563   0.74978   0.16129   0.00000  Uiso   1.00
C211   C     0.38432   0.75001   0.16147   0.00000  Uiso   1.00
C212   C     0.02386   0.74956   0.15104   0.00000  Uiso   1.00
C213   C     0.47590   0.75090   0.15080   0.00000  Uiso   1.00
C214   C     0.11002   0.86500   0.17268   0.00000  Uiso   1.00
C215   C     0.23556   0.60201   0.12550   0.00000  Uiso   1.00
C216   C     0.09427   0.91195   0.15091   0.00000  Uiso   1.00
C217   C     0.09153   0.94973   0.19141   0.00000  Uiso   1.00
C218   C     0.38292   0.63794   0.17568   0.00000  Uiso   1.00
C219   C     0.42049   0.60159   0.17505   0.00000  Uiso   1.00
C220   C     0.41546   0.56613   0.21758   0.00000  Uiso   1.00
C221   C     0.38696   0.86641   0.14861   0.00000  Uiso   1.00
C222   C     0.39824   0.91491   0.17001   0.00000  Uiso   1.00
C223   C     0.39181   0.95342   0.13076   0.00000  Uiso   1.00
C224   C     0.12042   0.63634   0.15172   0.00000  Uiso   1.00
C225   C     0.08280   0.60063   0.14465   0.00000  Uiso   1.00
C226   C     0.27693   0.89763   0.19899   0.00000  Uiso   1.00
C227   C     0.09581   0.56245   0.10729   0.00000  Uiso   1.00
C228   C     0.26457   0.60202   0.20779   0.00000  Uiso   1.00
C229   C     0.22317   0.89771   0.13427   0.00000  Uiso   1.00
C230   C     0.23580   0.55254   0.12460   0.00000  Uiso   1.00
C231   C     0.27790   0.94711   0.19911   0.00000  Uiso   1.00
C232   C     0.26431   0.55255   0.20873   0.00000  Uiso   1.00
F233   F     0.22009   0.62550   0.08489   0.00000  Uiso   1.00
F234   F     0.30335   0.87344   0.23117   0.00000  Uiso   1.00
F235   F     0.28014   0.62552   0.24833   0.00000  Uiso   1.00
F236   F     0.19719   0.87364   0.10160   0.00000  Uiso   1.00
H237   H     0.03107   0.82019   0.12233   0.00000  Uiso   1.00
H238   H     0.08627   0.85387   0.20240   0.00000  Uiso   1.00
H239   H     0.11758   0.92381   0.12147   0.00000  Uiso   1.00
H240   H     0.06096   0.90721   0.13354   0.00000  Uiso   1.00
H241   H     0.06901   0.93828   0.22178   0.00000  Uiso   1.00
H242   H     0.07824   0.98279   0.17507   0.00000  Uiso   1.00
H243   H     0.12500   0.95685   0.20733   0.00000  Uiso   1.00
H244   H     0.35096   0.61865   0.17382   0.00000  Uiso   1.00
H245   H     0.38302   0.65749   0.21199   0.00000  Uiso   1.00
H246   H     0.42011   0.58254   0.13872   0.00000  Uiso   1.00
H247   H     0.45299   0.61950   0.17948   0.00000  Uiso   1.00
H248   H     0.46878   0.68033   0.12208   0.00000  Uiso   1.00
H249   H     0.41706   0.58440   0.25431   0.00000  Uiso   1.00
H250   H     0.44276   0.53992   0.21597   0.00000  Uiso   1.00
H251   H     0.38328   0.54728   0.21426   0.00000  Uiso   1.00
H252   H     0.35290   0.86734   0.13244   0.00000  Uiso   1.00
H253   H     0.41029   0.85904   0.11723   0.00000  Uiso   1.00
H254   H     0.37671   0.92257   0.20256   0.00000  Uiso   1.00
H255   H     0.43331   0.91502   0.18310   0.00000  Uiso   1.00
H256   H     0.41300   0.94649   0.09774   0.00000  Uiso   1.00
H257   H     0.40127   0.98800   0.14685   0.00000  Uiso   1.00
H258   H     0.35651   0.95510   0.11866   0.00000  Uiso   1.00
H259   H     0.47265   0.82194   0.17971   0.00000  Uiso   1.00
H260   H     0.15080   0.61664   0.16251   0.00000  Uiso   1.00
H261   H     0.12783   0.65418   0.11546   0.00000  Uiso   1.00
H262   H     0.07492   0.58396   0.18114   0.00000  Uiso   1.00
H263   H     0.05264   0.61868   0.13025   0.00000  Uiso   1.00
H264   H     0.10398   0.57845   0.07057   0.00000  Uiso   1.00
H265   H     0.06769   0.53769   0.10186   0.00000  Uiso   1.00
H266   H     0.12499   0.54238   0.12137   0.00000  Uiso   1.00
H267   H     0.02684   0.67968   0.18277   0.00000  Uiso   1.00
H268   H     0.22519   0.53515   0.09061   0.00000  Uiso   1.00
H269   H     0.30096   0.96447   0.22415   0.00000  Uiso   1.00
H270   H     0.27495   0.53517   0.24273   0.00000  Uiso   1.00
H271   H     0.19905   0.96457   0.10923   0.00000  Uiso   1.00
H272   H     0.14268   0.87033   0.19135   0.00000  Uiso   1.00
N273   N     0.25000   0.62624   0.16667   0.00000  Uiso   1.00
N274   N     0.25000   0.87377   0.16667   0.00000  Uiso   1.00
O275   O     0.18453   0.78974   0.16667   0.00000  Uiso   1.00
O276   O     0.38458   0.66772   0.13312   0.00000  Uiso   1.00
O277   O     0.38795   0.83254   0.18766   0.00000  Uiso   1.00
O278   O     0.11138   0.66822   0.19120   0.00000  Uiso   1.00
O279   O     0.31547   0.71026   0.16666   0.00000  Uiso   1.00
O280   O     0.31547   0.78974   0.16666   0.00000  Uiso   1.00
O281   O     0.18453   0.71026   0.16667   0.00000  Uiso   1.00
O282   O     0.25000   0.78973   0.09511   0.00000  Uiso   1.00
O283   O     0.25000   0.71027   0.23822   0.00000  Uiso   1.00
O284   O     0.25000   0.78973   0.23822   0.00000  Uiso   1.00
O285   O     0.25000   0.71027   0.09511   0.00000  Uiso   1.00
O286   O     0.11561   0.83191   0.13340   0.00000  Uiso   1.00
Zn287  Zn    0.25000   0.80307   0.16667   0.00000  Uiso   1.00
Zn288  Zn    0.25000   0.69693   0.16667   0.00000  Uiso   1.00
C289   C     0.66374   0.74997   0.16594   0.00000  Uiso   1.00
C290   C     0.72208   0.94718   0.13430   0.00000  Uiso   1.00
C291   C     0.74996   0.75000   0.07287   0.00000  Uiso   1.00
C292   C     0.75004   0.75000   0.26047   0.00000  Uiso   1.00
C293   C     0.75002   0.52654   0.16669   0.00000  Uiso   1.00
C294   C     0.74998   0.97315   0.16673   0.00000  Uiso   1.00
C295   C     0.74998   0.74999   0.02179   0.00000  Uiso   1.00
C296   C     0.75001   0.74999   0.31154   0.00000  Uiso   1.00
C297   C     0.54778   0.78934   0.13715   0.00000  Uiso   1.00
C298   C     0.95202   0.71084   0.13730   0.00000  Uiso   1.00
C299   C     0.95420   0.79103   0.16806   0.00000  Uiso   1.00
C300   C     0.83625   0.74997   0.16590   0.00000  Uiso   1.00
C301   C     0.54553   0.70970   0.16948   0.00000  Uiso   1.00
C302   C     0.59325   0.79073   0.14452   0.00000  Uiso   1.00
C303   C     0.90675   0.70894   0.14512   0.00000  Uiso   1.00
C304   C     0.90840   0.79178   0.17120   0.00000  Uiso   1.00
C305   C     0.59133   0.70841   0.17228   0.00000  Uiso   1.00
C306   C     0.61563   0.74978   0.16129   0.00000  Uiso   1.00
C307   C     0.88432   0.75001   0.16147   0.00000  Uiso   1.00
C308   C     0.52386   0.74956   0.15104   0.00000  Uiso   1.00
C309   C     0.97590   0.75090   0.15080   0.00000  Uiso   1.00
C310   C     0.61002   0.86500   0.17268   0.00000  Uiso   1.00
C311   C     0.73556   0.60201   0.12550   0.00000  Uiso   1.00
C312   C     0.59427   0.91195   0.15091   0.00000  Uiso   1.00
C313   C     0.59153   0.94973   0.19141   0.00000  Uiso   1.00
C314   C     0.88292   0.63794   0.17568   0.00000  Uiso   1.00
C315   C     0.92049   0.60159   0.17505   0.00000  Uiso   1.00
C316   C     0.91546   0.56613   0.21758   0.00000  Uiso   1.00
C317   C     0.88696   0.86641   0.14861   0.00000  Uiso   1.00
C318   C     0.89824   0.91491   0.17001   0.00000  Uiso   1.00
C319   C     0.89181   0.95342   0.13076   0.00000  Uiso   1.00
C320   C     0.62042   0.63634   0.15172   0.00000  Uiso   1.00
C321   C     0.58280   0.60063   0.14465   0.00000  Uiso   1.00
C322   C     0.77693   0.89763   0.19899   0.00000  Uiso   1.00
C323   C     0.59581   0.56245   0.10729   0.00000  Uiso   1.00
C324   C     0.76457   0.60202   0.20779   0.00000  Uiso   1.00
C325   C     0.72317   0.89771   0.13427   0.00000  Uiso   1.00
C326   C     0.73580   0.55254   0.12460   0.00000  Uiso   1.00
C327   C     0.77790   0.94711   0.19911   0.00000  Uiso   1.00
C328   C     0.76431   0.55255   0.20873   0.00000  Uiso   1.00
F329   F     0.72009   0.62550   0.08489   0.00000  Uiso   1.00
F330   F     0.80335   0.87344   0.23117   0.00000  Uiso   1.00
F331   F     0.78014   0.62552   0.24833   0.00000  Uiso   1.00
F332   F     0.69719   0.87364   0.10160   0.00000  Uiso   1.00
H333   H     0.53107   0.82019   0.12233   0.00000  Uiso   1.00
H334   H     0.58627   0.85387   0.20240   0.00000  Uiso   1.00
H335   H     0.61758   0.92381   0.12147   0.00000  Uiso   1.00
H336   H     0.56096   0.90721   0.13354   0.00000  Uiso   1.00
H337   H     0.56901   0.93828   0.22178   0.00000  Uiso   1.00
H338   H     0.57824   0.98279   0.17507   0.00000  Uiso   1.00
H339   H     0.62500   0.95685   0.20733   0.00000  Uiso   1.00
H340   H     0.85096   0.61865   0.17382   0.00000  Uiso   1.00
H341   H     0.88302   0.65749   0.21199   0.00000  Uiso   1.00
H342   H     0.92011   0.58254   0.13872   0.00000  Uiso   1.00
H343   H     0.95299   0.61950   0.17948   0.00000  Uiso   1.00
H344   H     0.96878   0.68033   0.12208   0.00000  Uiso   1.00
H345   H     0.91706   0.58440   0.25431   0.00000  Uiso   1.00
H346   H     0.94276   0.53992   0.21597   0.00000  Uiso   1.00
H347   H     0.88328   0.54728   0.21426   0.00000  Uiso   1.00
H348   H     0.85290   0.86734   0.13244   0.00000  Uiso   1.00
H349   H     0.91029   0.85904   0.11723   0.00000  Uiso   1.00
H350   H     0.87671   0.92257   0.20256   0.00000  Uiso   1.00
H351   H     0.93331   0.91502   0.18310   0.00000  Uiso   1.00
H352   H     0.91300   0.94649   0.09774   0.00000  Uiso   1.00
H353   H     0.90127   0.98800   0.14685   0.00000  Uiso   1.00
H354   H     0.85651   0.95510   0.11866   0.00000  Uiso   1.00
H355   H     0.97265   0.82194   0.17971   0.00000  Uiso   1.00
H356   H     0.65080   0.61664   0.16251   0.00000  Uiso   1.00
H357   H     0.62783   0.65418   0.11546   0.00000  Uiso   1.00
H358   H     0.57492   0.58396   0.18114   0.00000  Uiso   1.00
H359   H     0.55264   0.61868   0.13025   0.00000  Uiso   1.00
H360   H     0.60398   0.57845   0.07057   0.00000  Uiso   1.00
H361   H     0.56769   0.53769   0.10186   0.00000  Uiso   1.00
H362   H     0.62499   0.54238   0.12137   0.00000  Uiso   1.00
H363   H     0.52684   0.67968   0.18277   0.00000  Uiso   1.00
H364   H     0.72519   0.53515   0.09061   0.00000  Uiso   1.00
H365   H     0.80096   0.96447   0.22415   0.00000  Uiso   1.00
H366   H     0.77495   0.53517   0.24273   0.00000  Uiso   1.00
H367   H     0.69905   0.96457   0.10923   0.00000  Uiso   1.00
H368   H     0.64268   0.87033   0.19135   0.00000  Uiso   1.00
N369   N     0.75000   0.62624   0.16667   0.00000  Uiso   1.00
N370   N     0.75000   0.87377   0.16667   0.00000  Uiso   1.00
O371   O     0.68453   0.78974   0.16667   0.00000  Uiso   1.00
O372   O     0.88458   0.66772   0.13312   0.00000  Uiso   1.00
O373   O     0.88795   0.83254   0.18766   0.00000  Uiso   1.00
O374   O     0.61138   0.66822   0.19120   0.00000  Uiso   1.00
O375   O     0.81547   0.71026   0.16666   0.00000  Uiso   1.00
O376   O     0.81547   0.78974   0.16666   0.00000  Uiso   1.00
O377   O     0.68453   0.71026   0.16667   0.00000  Uiso   1.00
O378   O     0.75000   0.78973   0.09511   0.00000  Uiso   1.00
O379   O     0.75000   0.71027   0.23822   0.00000  Uiso   1.00
O380   O     0.75000   0.78973   0.23822   0.00000  Uiso   1.00
O381   O     0.75000   0.71027   0.09511   0.00000  Uiso   1.00
O382   O     0.61561   0.83191   0.13340   0.00000  Uiso   1.00
Zn383  Zn    0.75000   0.80307   0.16667   0.00000  Uiso   1.00
Zn384  Zn    0.75000   0.69693   0.16667   0.00000  Uiso   1.00
C385   C     0.16374   0.24997   0.49927   0.00000  Uiso   1.00
C386   C     0.22208   0.44718   0.46764   0.00000  Uiso   1.00
C387   C     0.24996   0.25000   0.40620   0.00000  Uiso   1.00
C388   C     0.25004   0.25000   0.59380   0.00000  Uiso   1.00
C389   C     0.25002   0.02654   0.50003   0.00000  Uiso   1.00
C390   C     0.24998   0.47315   0.50006   0.00000  Uiso   1.00
C391   C     0.24998   0.24999   0.35512   0.00000  Uiso   1.00
C392   C     0.25001   0.24999   0.64488   0.00000  Uiso   1.00
C393   C     0.04778   0.28934   0.47048   0.00000  Uiso   1.00
C394   C     0.45202   0.21084   0.47063   0.00000  Uiso   1.00
C395   C     0.45420   0.29103   0.50139   0.00000  Uiso   1.00
C396   C     0.33625   0.24997   0.49923   0.00000  Uiso   1.00
C397   C     0.04553   0.20970   0.50281   0.00000  Uiso   1.00
C398   C     0.09325   0.29073   0.47785   0.00000  Uiso   1.00
C399   C     0.40675   0.20894   0.47845   0.00000  Uiso   1.00
C400   C     0.40840   0.29178   0.50453   0.00000  Uiso   1.00
C401   C     0.09133   0.20841   0.50562   0.00000  Uiso   1.00
C402   C     0.11563   0.24978   0.49462   0.00000  Uiso   1.00
C403   C     0.38432   0.25001   0.49480   0.00000  Uiso   1.00
C404   C     0.02386   0.24956   0.48437   0.00000  Uiso   1.00
C405   C     0.47590   0.25090   0.48413   0.00000  Uiso   1.00
C406   C     0.11002   0.36500   0.50601   0.00000  Uiso   1.00
C407   C     0.23556   0.10201   0.45883   0.00000  Uiso   1.00
C408   C     0.09427   0.41195   0.48424   0.00000  Uiso   1.00
C409   C     0.09153   0.44973   0.52474   0.00000  Uiso   1.00
C410   C     0.38292   0.13794   0.50901   0.00000  Uiso   1.00
C411   C     0.42049   0.10159   0.50838   0.00000  Uiso   1.00
C412   C     0.41546   0.06613   0.55091   0.00000  Uiso   1.00
C413   C     0.38696   0.36641   0.48194   0.00000  Uiso   1.00
C414   C     0.39824   0.41491   0.50334   0.00000  Uiso   1.00
C415   C     0.39181   0.45342   0.46409   0.00000  Uiso   1.00
C416   C     0.12042   0.13634   0.48506   0.00000  Uiso   1.00
C417   C     0.08280   0.10063   0.47798   0.00000  Uiso   1.00
C418   C     0.27693   0.39763   0.53232   0.00000  Uiso   1.00
C419   C     0.09581   0.06245   0.44062   0.00000  Uiso   1.00
C420   C     0.26457   0.10202   0.54112   0.00000  Uiso   1.00
C421   C     0.22317   0.39771   0.46760   0.00000  Uiso   1.00
C422   C     0.23580   0.05254   0.45794   0.00000  Uiso   1.00
C423   C     0.27790   0.44711   0.53245   0.00000  Uiso   1.00
C424   C     0.26431   0.05255   0.54207   0.00000  Uiso   1.00
F425   F     0.22009   0.12550   0.41823   0.00000  Uiso   1.00
F426   F     0.30335   0.37344   0.56451   0.00000  Uiso   1.00
F427   F     0.28014   0.12552   0.58166   0.00000  Uiso   1.00
F428   F     0.19719   0.37364   0.43493   0.00000  Uiso   1.00
H429   H     0.03107   0.32019   0.45566   0.00000  Uiso   1.00
H430   H     0.08627   0.35387   0.53574   0.00000  Uiso   1.00
H431   H     0.11758   0.42381   0.45480   0.00000  Uiso   1.00
H432   H     0.06096   0.40721   0.46687   0.00000  Uiso   1.00
H433   H     0.06901   0.43828   0.55511   0.00000  Uiso   1.00
H434   H     0.07824   0.48279   0.50840   0.00000  Uiso   1.00
H435   H     0.12500   0.45685   0.54066   0.00000  Uiso   1.00
H436   H     0.35096   0.11865   0.50715   0.00000  Uiso   1.00
H437   H     0.38302   0.15749   0.54532   0.00000  Uiso   1.00
H438   H     0.42011   0.08254   0.47205   0.00000  Uiso   1.00
H439   H     0.45299   0.11950   0.51281   0.00000  Uiso   1.00
H440   H     0.46878   0.18033   0.45542   0.00000  Uiso   1.00
H441   H     0.41706   0.08440   0.58764   0.00000  Uiso   1.00
H442   H     0.44276   0.03992   0.54930   0.00000  Uiso   1.00
H443   H     0.38328   0.04728   0.54759   0.00000  Uiso   1.00
H444   H     0.35290   0.36734   0.46578   0.00000  Uiso   1.00
H445   H     0.41029   0.35904   0.45056   0.00000  Uiso   1.00
H446   H     0.37671   0.42257   0.53589   0.00000  Uiso   1.00
H447   H     0.43331   0.41502   0.51644   0.00000  Uiso   1.00
H448   H     0.41300   0.44649   0.43108   0.00000  Uiso   1.00
H449   H     0.40127   0.48800   0.48019   0.00000  Uiso   1.00
H450   H     0.35651   0.45510   0.45200   0.00000  Uiso   1.00
H451   H     0.47265   0.32194   0.51305   0.00000  Uiso   1.00
H452   H     0.15080   0.11664   0.49584   0.00000  Uiso   1.00
H453   H     0.12783   0.15418   0.44880   0.00000  Uiso   1.00
H454   H     0.07492   0.08396   0.51447   0.00000  Uiso   1.00
H455   H     0.05264   0.11868   0.46359   0.00000  Uiso   1.00
H456   H     0.10398   0.07845   0.40390   0.00000  Uiso   1.00
H457   H     0.06769   0.03769   0.43519   0.00000  Uiso   1.00
H458   H     0.12499   0.04238   0.45470   0.00000  Uiso   1.00
H459   H     0.02684   0.17968   0.51611   0.00000  Uiso   1.00
H460   H     0.22519   0.03515   0.42394   0.00000  Uiso   1.00
H461   H     0.30096   0.46447   0.55748   0.00000  Uiso   1.00
H462   H     0.27495   0.03517   0.57607   0.00000  Uiso   1.00
H463   H     0.19905   0.46457   0.44257   0.00000  Uiso   1.00
H464   H     0.14268   0.37033   0.52468   0.00000  Uiso   1.00
N465   N     0.25000   0.12624   0.50000   0.00000  Uiso   1.00
N466   N     0.25000   0.37377   0.50000   0.00000  Uiso   1.00
O467   O     0.18453   0.28974   0.50000   0.00000  Uiso   1.00
O468   O     0.38458   0.16772   0.46645   0.00000  Uiso   1.00
O469   O     0.38795   0.33254   0.52099   0.00000  Uiso   1.00
O470   O     0.11138   0.16822   0.52454   0.00000  Uiso   1.00
O471   O     0.31547   0.21026   0.50000   0.00000  Uiso   1.00
O472   O     0.31547   0.28974   0.50000   0.00000  Uiso   1.00
O473   O     0.18453   0.21026   0.50000   0.00000  Uiso   1.00
O474   O     0.25000   0.28973   0.42845   0.00000  Uiso   1.00
O475   O     0.25000   0.21027   0.57155   0.00000  Uiso   1.00
O476   O     0.25000   0.28973   0.57155   0.00000  Uiso   1.00
O477   O     0.25000   0.21027   0.42845   0.00000  Uiso   1.00
O478   O     0.11561   0.33191   0.46673   0.00000  Uiso   1.00
Zn479  Zn    0.25000   0.30307   0.50000   0.00000  Uiso   1.00
Zn480  Zn    0.25000   0.19693   0.50000   0.00000  Uiso   1.00
C481   C     0.66374   0.24997   0.49927   0.00000  Uiso   1.00
C482   C     0.72208   0.44718   0.46764   0.00000  Uiso   1.00
C483   C     0.74996   0.25000   0.40620   0.00000  Uiso   1.00
C484   C     0.75004   0.25000   0.59380   0.00000  Uiso   1.00
C485   C     0.75002   0.02654   0.50003   0.00000  Uiso   1.00
C486   C     0.74998   0.47315   0.50006   0.00000  Uiso   1.00
C487   C     0.74998   0.24999   0.35512   0.00000  Uiso   1.00
C488   C     0.75001   0.24999   0.64488   0.00000  Uiso   1.00
C489   C     0.54778   0.28934   0.47048   0.00000  Uiso   1.00
C490   C     0.95202   0.21084   0.47063   0.00000  Uiso   1.00
C491   C     0.95420   0.29103   0.50139   0.00000  Uiso   1.00
C492   C     0.83625   0.24997   0.49923   0.00000  Uiso   1.00
C493   C     0.54553   0.20970   0.50281   0.00000  Uiso   1.00
C494   C     0.59325   0.29073   0.47785   0.00000  Uiso   1.00
C495   C     0.90675   0.20894   0.47845   0.00000  Uiso   1.00
C496   C     0.90840   0.29178   0.50453   0.00000  Uiso   1.00
C497   C     0.59133   0.20841   0.50562   0.00000  Uiso   1.00
C498   C     0.61563   0.24978   0.49462   0.00000  Uiso   1.00
C499   C     0.88432   0.25001   0.49480   0.00000  Uiso   1.00
C500   C     0.52386   0.24956   0.48437   0.00000  Uiso   1.00
C501   C     0.97590   0.25090   0.48413   0.00000  Uiso   1.00
C502   C     0.61002   0.36500   0.50601   0.00000  Uiso   1.00
C503   C     0.73556   0.10201   0.45883   0.00000  Uiso   1.00
C504   C     0.59427   0.41195   0.48424   0.00000  Uiso   1.00
C505   C     0.59153   0.44973   0.52474   0.00000  Uiso   1.00
C506   C     0.88292   0.13794   0.50901   0.00000  Uiso   1.00
C507   C     0.92049   0.10159   0.50838   0.00000  Uiso   1.00
C508   C     0.91546   0.06613   0.55091   0.00000  Uiso   1.00
C509   C     0.88696   0.36641   0.48194   0.00000  Uiso   1.00
C510   C     0.89824   0.41491   0.50334   0.00000  Uiso   1.00
C511   C     0.89181   0.45342   0.46409   0.00000  Uiso   1.00
C512   C     0.62042   0.13634   0.48506   0.00000  Uiso   1.00
C513   C     0.58280   0.10063   0.47798   0.00000  Uiso   1.00
C514   C     0.77693   0.39763   0.53232   0.00000  Uiso   1.00
C515   C     0.59581   0.06245   0.44062   0.00000  Uiso   1.00
C516   C     0.76457   0.10202   0.54112   0.00000  Uiso   1.00
C517   C     0.72317   0.39771   0.46760   0.00000  Uiso   1.00
C518   C     0.73580   0.05254   0.45794   0.00000  Uiso   1.00
C519   C     0.77790   0.44711   0.53245   0.00000  Uiso   1.00
C520   C     0.76431   0.05255   0.54207   0.00000  Uiso   1.00
F521   F     0.72009   0.12550   0.41823   0.00000  Uiso   1.00
F522   F     0.80335   0.37344   0.56451   0.00000  Uiso   1.00
F523   F     0.78014   0.12552   0.58166   0.00000  Uiso   1.00
F524   F     0.69719   0.37364   0.43493   0.00000  Uiso   1.00
H525   H     0.53107   0.32019   0.45566   0.00000  Uiso   1.00
H526   H     0.58627   0.35387   0.53574   0.00000  Uiso   1.00
H527   H     0.61758   0.42381   0.45480   0.00000  Uiso   1.00
H528   H     0.56096   0.40721   0.46687   0.00000  Uiso   1.00
H529   H     0.56901   0.43828   0.55511   0.00000  Uiso   1.00
H530   H     0.57824   0.48279   0.50840   0.00000  Uiso   1.00
H531   H     0.62500   0.45685   0.54066   0.00000  Uiso   1.00
H532   H     0.85096   0.11865   0.50715   0.00000  Uiso   1.00
H533   H     0.88302   0.15749   0.54532   0.00000  Uiso   1.00
H534   H     0.92011   0.08254   0.47205   0.00000  Uiso   1.00
H535   H     0.95299   0.11950   0.51281   0.00000  Uiso   1.00
H536   H     0.96878   0.18033   0.45542   0.00000  Uiso   1.00
H537   H     0.91706   0.08440   0.58764   0.00000  Uiso   1.00
H538   H     0.94276   0.03992   0.54930   0.00000  Uiso   1.00
H539   H     0.88328   0.04728   0.54759   0.00000  Uiso   1.00
H540   H     0.85290   0.36734   0.46578   0.00000  Uiso   1.00
H541   H     0.91029   0.35904   0.45056   0.00000  Uiso   1.00
H542   H     0.87671   0.42257   0.53589   0.00000  Uiso   1.00
H543   H     0.93331   0.41502   0.51644   0.00000  Uiso   1.00
H544   H     0.91300   0.44649   0.43108   0.00000  Uiso   1.00
H545   H     0.90127   0.48800   0.48019   0.00000  Uiso   1.00
H546   H     0.85651   0.45510   0.45200   0.00000  Uiso   1.00
H547   H     0.97265   0.32194   0.51305   0.00000  Uiso   1.00
H548   H     0.65080   0.11664   0.49584   0.00000  Uiso   1.00
H549   H     0.62783   0.15418   0.44880   0.00000  Uiso   1.00
H550   H     0.57492   0.08396   0.51447   0.00000  Uiso   1.00
H551   H     0.55264   0.11868   0.46359   0.00000  Uiso   1.00
H552   H     0.60398   0.07845   0.40390   0.00000  Uiso   1.00
H553   H     0.56769   0.03769   0.43519   0.00000  Uiso   1.00
H554   H     0.62499   0.04238   0.45470   0.00000  Uiso   1.00
H555   H     0.52684   0.17968   0.51611   0.00000  Uiso   1.00
H556   H     0.72519   0.03515   0.42394   0.00000  Uiso   1.00
H557   H     0.80096   0.46447   0.55748   0.00000  Uiso   1.00
H558   H     0.77495   0.03517   0.57607   0.00000  Uiso   1.00
H559   H     0.69905   0.46457   0.44257   0.00000  Uiso   1.00
H560   H     0.64268   0.37033   0.52468   0.00000  Uiso   1.00
N561   N     0.75000   0.12624   0.50000   0.00000  Uiso   1.00
N562   N     0.75000   0.37377   0.50000   0.00000  Uiso   1.00
O563   O     0.68453   0.28974   0.50000   0.00000  Uiso   1.00
O564   O     0.88458   0.16772   0.46645   0.00000  Uiso   1.00
O565   O     0.88795   0.33254   0.52099   0.00000  Uiso   1.00
O566   O     0.61138   0.16822   0.52454   0.00000  Uiso   1.00
O567   O     0.81547   0.21026   0.50000   0.00000  Uiso   1.00
O568   O     0.81547   0.28974   0.50000   0.00000  Uiso   1.00
O569   O     0.68453   0.21026   0.50000   0.00000  Uiso   1.00
O570   O     0.75000   0.28973   0.42845   0.00000  Uiso   1.00
O571   O     0.75000   0.21027   0.57155   0.00000  Uiso   1.00
O572   O     0.75000   0.28973   0.57155   0.00000  Uiso   1.00
O573   O     0.75000   0.21027   0.42845   0.00000  Uiso   1.00
O574   O     0.61561   0.33191   0.46673   0.00000  Uiso   1.00
Zn575  Zn    0.75000   0.30307   0.50000   0.00000  Uiso   1.00
Zn576  Zn    0.75000   0.19693   0.50000   0.00000  Uiso   1.00
C577   C     0.16374   0.74997   0.49927   0.00000  Uiso   1.00
C578   C     0.22208   0.94718   0.46764   0.00000  Uiso   1.00
C579   C     0.24996   0.75000   0.40620   0.00000  Uiso   1.00
C580   C     0.25004   0.75000   0.59380   0.00000  Uiso   1.00
C581   C     0.25002   0.52654   0.50003   0.00000  Uiso   1.00
C582   C     0.24998   0.97315   0.50006   0.00000  Uiso   1.00
C583   C     0.24998   0.74999   0.35512   0.00000  Uiso   1.00
C584   C     0.25001   0.74999   0.64488   0.00000  Uiso   1.00
C585   C     0.04778   0.78934   0.47048   0.00000  Uiso   1.00
C586   C     0.45202   0.71084   0.47063   0.00000  Uiso   1.00
C587   C     0.45420   0.79103   0.50139   0.00000  Uiso   1.00
C588   C     0.33625   0.74997   0.49923   0.00000  Uiso   1.00
C589   C     0.04553   0.70970   0.50281   0.00000  Uiso   1.00
C590   C     0.09325   0.79073   0.47785   0.00000  Uiso   1.00
C591   C     0.40675   0.70894   0.47845   0.00000  Uiso   1.00
C592   C     0.40840   0.79178   0.50453   0.00000  Uiso   1.00
C593   C     0.09133   0.70841   0.50562   0.00000  Uiso   1.00
C594   C     0.11563   0.74978   0.49462   0.00000  Uiso   1.00
C595   C     0.38432   0.75001   0.49480   0.00000  Uiso   1.00
C596   C     0.02386   0.74956   0.48437   0.00000  Uiso   1.00
C597   C     0.47590   0.75090   0.48413   0.00000  Uiso   1.00
C598   C     0.11002   0.86500   0.50601   0.00000  Uiso   1.00
C599   C     0.23556   0.60201   0.45883   0.00000  Uiso   1.00
C600   C     0.09427   0.91195   0.48424   0.00000  Uiso   1.00
C601   C     0.09153   0.94973   0.52474   0.00000  Uiso   1.00
C602   C     0.38292   0.63794   0.50901   0.00000  Uiso   1.00
C603   C     0.42049   0.60159   0.50838   0.00000  Uiso   1.00
C604   C     0.41546   0.56613   0.55091   0.00000  Uiso   1.00
C605   C     0.38696   0.86641   0.48194   0.00000  Uiso   1.00
C606   C     0.39824   0.91491   0.50334   0.00000  Uiso   1.00
C607   C     0.39181   0.95342   0.46409   0.00000  Uiso   1.00
C608   C     0.12042   0.63634   0.48506   0.00000  Uiso   1.00
C609   C     0.08280   0.60063   0.47798   0.00000  Uiso   1.00
C610   C     0.27693   0.89763   0.53232   0.00000  Uiso   1.00
C611   C     0.09581   0.56245   0.44062   0.00000  Uiso   1.00
C612   C     0.26457   0.60202   0.54112   0.00000  Uiso   1.00
C613   C     0.22317   0.89771   0.46760   0.00000  Uiso   1.00
C614   C     0.23580   0.55254   0.45794   0.00000  Uiso   1.00
C615   C     0.27790   0.94711   0.53245   0.00000  Uiso   1.00
C616   C     0.26431   0.55255   0.54207   0.00000  Uiso   1.00
F617   F     0.22009   0.62550   0.41823   0.00000  Uiso   1.00
F618   F     0.30335   0.87344   0.56451   0.00000  Uiso   1.00
F619   F     0.28014   0.62552   0.58166   0.00000  Uiso   1.00
F620   F     0.19719   0.87364   0.43493   0.00000  Uiso   1.00
H621   H     0.03107   0.82019   0.45566   0.00000  Uiso   1.00
H622   H     0.08627   0.85387   0.53574   0.00000  Uiso   1.00
H623   H     0.11758   0.92381   0.45480   0.00000  Uiso   1.00
H624   H     0.06096   0.90721   0.46687   0.00000  Uiso   1.00
H625   H     0.06901   0.93828   0.55511   0.00000  Uiso   1.00
H626   H     0.07824   0.98279   0.50840   0.00000  Uiso   1.00
H627   H     0.12500   0.95685   0.54066   0.00000  Uiso   1.00
H628   H     0.35096   0.61865   0.50715   0.00000  Uiso   1.00
H629   H     0.38302   0.65749   0.54532   0.00000  Uiso   1.00
H630   H     0.42011   0.58254   0.47205   0.00000  Uiso   1.00
H631   H     0.45299   0.61950   0.51281   0.00000  Uiso   1.00
H632   H     0.46878   0.68033   0.45542   0.00000  Uiso   1.00
H633   H     0.41706   0.58440   0.58764   0.00000  Uiso   1.00
H634   H     0.44276   0.53992   0.54930   0.00000  Uiso   1.00
H635   H     0.38328   0.54728   0.54759   0.00000  Uiso   1.00
H636   H     0.35290   0.86734   0.46578   0.00000  Uiso   1.00
H637   H     0.41029   0.85904   0.45056   0.00000  Uiso   1.00
H638   H     0.37671   0.92257   0.53589   0.00000  Uiso   1.00
H639   H     0.43331   0.91502   0.51644   0.00000  Uiso   1.00
H640   H     0.41300   0.94649   0.43108   0.00000  Uiso   1.00
H641   H     0.40127   0.98800   0.48019   0.00000  Uiso   1.00
H642   H     0.35651   0.95510   0.45200   0.00000  Uiso   1.00
H643   H     0.47265   0.82194   0.51305   0.00000  Uiso   1.00
H644   H     0.15080   0.61664   0.49584   0.00000  Uiso   1.00
H645   H     0.12783   0.65418   0.44880   0.00000  Uiso   1.00
H646   H     0.07492   0.58396   0.51447   0.00000  Uiso   1.00
H647   H     0.05264   0.61868   0.46359   0.00000  Uiso   1.00
H648   H     0.10398   0.57845   0.40390   0.00000  Uiso   1.00
H649   H     0.06769   0.53769   0.43519   0.00000  Uiso   1.00
H650   H     0.12499   0.54238   0.45470   0.00000  Uiso   1.00
H651   H     0.02684   0.67968   0.51611   0.00000  Uiso   1.00
H652   H     0.22519   0.53515   0.42394   0.00000  Uiso   1.00
H653   H     0.30096   0.96447   0.55748   0.00000  Uiso   1.00
H654   H     0.27495   0.53517   0.57607   0.00000  Uiso   1.00
H655   H     0.19905   0.96457   0.44257   0.00000  Uiso   1.00
H656   H     0.14268   0.87033   0.52468   0.00000  Uiso   1.00
N657   N     0.25000   0.62624   0.50000   0.00000  Uiso   1.00
N658   N     0.25000   0.87377   0.50000   0.00000  Uiso   1.00
O659   O     0.18453   0.78974   0.50000   0.00000  Uiso   1.00
O660   O     0.38458   0.66772   0.46645   0.00000  Uiso   1.00
O661   O     0.38795   0.83254   0.52099   0.00000  Uiso   1.00
O662   O     0.11138   0.66822   0.52454   0.00000  Uiso   1.00
O663   O     0.31547   0.71026   0.50000   0.00000  Uiso   1.00
O664   O     0.31547   0.78974   0.50000   0.00000  Uiso   1.00
O665   O     0.18453   0.71026   0.50000   0.00000  Uiso   1.00
O666   O     0.25000   0.78973   0.42845   0.00000  Uiso   1.00
O667   O     0.25000   0.71027   0.57155   0.00000  Uiso   1.00
O668   O     0.25000   0.78973   0.57155   0.00000  Uiso   1.00
O669   O     0.25000   0.71027   0.42845   0.00000  Uiso   1.00
O670   O     0.11561   0.83191   0.46673   0.00000  Uiso   1.00
Zn671  Zn    0.25000   0.80307   0.50000   0.00000  Uiso   1.00
Zn672  Zn    0.25000   0.69693   0.50000   0.00000  Uiso   1.00
C673   C     0.66374   0.74997   0.49927   0.00000  Uiso   1.00
C674   C     0.72208   0.94718   0.46764   0.00000  Uiso   1.00
C675   C     0.74996   0.75000   0.40620   0.00000  Uiso   1.00
C676   C     0.75004   0.75000   0.59380   0.00000  Uiso   1.00
C677   C     0.75002   0.52654   0.50003   0.00000  Uiso   1.00
C678   C     0.74998   0.97315   0.50006   0.00000  Uiso   1.00
C679   C     0.74998   0.74999   0.35512   0.00000  Uiso   1.00
C680   C     0.75001   0.74999   0.64488   0.00000  Uiso   1.00
C681   C     0.54778   0.78934   0.47048   0.00000  Uiso   1.00
C682   C     0.95202   0.71084   0.47063   0.00000  Uiso   1.00
C683   C     0.95420   0.79103   0.50139   0.00000  Uiso   1.00
C684   C     0.83625   0.74997   0.49923   0.00000  Uiso   1.00
C685   C     0.54553   0.70970   0.50281   0.00000  Uiso   1.00
C686   C     0.59325   0.79073   0.47785   0.00000  Uiso   1.00
C687   C     0.90675   0.70894   0.47845   0.00000  Uiso   1.00
C688   C     0.90840   0.79178   0.50453   0.00000  Uiso   1.00
C689   C     0.59133   0.70841   0.50562   0.00000  Uiso   1.00
C690   C     0.61563   0.74978   0.49462   0.00000  Uiso   1.00
C691   C     0.88432   0.75001   0.49480   0.00000  Uiso   1.00
C692   C     0.52386   0.74956   0.48437   0.00000  Uiso   1.00
C693   C     0.97590   0.75090   0.48413   0.00000  Uiso   1.00
C694   C     0.61002   0.86500   0.50601   0.00000  Uiso   1.00
C695   C     0.73556   0.60201   0.45883   0.00000  Uiso   1.00
C696   C     0.59427   0.91195   0.48424   0.00000  Uiso   1.00
C697   C     0.59153   0.94973   0.52474   0.00000  Uiso   1.00
C698   C     0.88292   0.63794   0.50901   0.00000  Uiso   1.00
C699   C     0.92049   0.60159   0.50838   0.00000  Uiso   1.00
C700   C     0.91546   0.56613   0.55091   0.00000  Uiso   1.00
C701   C     0.88696   0.86641   0.48194   0.00000  Uiso   1.00
C702   C     0.89824   0.91491   0.50334   0.00000  Uiso   1.00
C703   C     0.89181   0.95342   0.46409   0.00000  Uiso   1.00
C704   C     0.62042   0.63634   0.48506   0.00000  Uiso   1.00
C705   C     0.58280   0.60063   0.47798   0.00000  Uiso   1.00
C706   C     0.77693   0.89763   0.53232   0.00000  Uiso   1.00
C707   C     0.59581   0.56245   0.44062   0.00000  Uiso   1.00
C708   C     0.76457   0.60202   0.54112   0.00000  Uiso   1.00
C709   C     0.72317   0.89771   0.46760   0.00000  Uiso   1.00
C710   C     0.73580   0.55254   0.45794   0.00000  Uiso   1.00
C711   C     0.77790   0.94711   0.53245   0.00000  Uiso   1.00
C712   C     0.76431   0.55255   0.54207   0.00000  Uiso   1.00
F713   F     0.72009   0.62550   0.41823   0.00000  Uiso   1.00
F714   F     0.80335   0.87344   0.56451   0.00000  Uiso   1.00
F715   F     0.78014   0.62552   0.58166   0.00000  Uiso   1.00
F716   F     0.69719   0.87364   0.43493   0.00000  Uiso   1.00
H717   H     0.53107   0.82019   0.45566   0.00000  Uiso   1.00
H718   H     0.58627   0.85387   0.53574   0.00000  Uiso   1.00
H719   H     0.61758   0.92381   0.45480   0.00000  Uiso   1.00
H720   H     0.56096   0.90721   0.46687   0.00000  Uiso   1.00
H721   H     0.56901   0.93828   0.55511   0.00000  Uiso   1.00
H722   H     0.57824   0.98279   0.50840   0.00000  Uiso   1.00
H723   H     0.62500   0.95685   0.54066   0.00000  Uiso   1.00
H724   H     0.85096   0.61865   0.50715   0.00000  Uiso   1.00
H725   H     0.88302   0.65749   0.54532   0.00000  Uiso   1.00
H726   H     0.92011   0.58254   0.47205   0.00000  Uiso   1.00
H727   H     0.95299   0.61950   0.51281   0.00000  Uiso   1.00
H728   H     0.96878   0.68033   0.45542   0.00000  Uiso   1.00
H729   H     0.91706   0.58440   0.58764   0.00000  Uiso   1.00
H730   H     0.94276   0.53992   0.54930   0.00000  Uiso   1.00
H731   H     0.88328   0.54728   0.54759   0.00000  Uiso   1.00
H732   H     0.85290   0.86734   0.46578   0.00000  Uiso   1.00
H733   H     0.91029   0.85904   0.45056   0.00000  Uiso   1.00
H734   H     0.87671   0.92257   0.53589   0.00000  Uiso   1.00
H735   H     0.93331   0.91502   0.51644   0.00000  Uiso   1.00
H736   H     0.91300   0.94649   0.43108   0.00000  Uiso   1.00
H737   H     0.90127   0.98800   0.48019   0.00000  Uiso   1.00
H738   H     0.85651   0.95510   0.45200   0.00000  Uiso   1.00
H739   H     0.97265   0.82194   0.51305   0.00000  Uiso   1.00
H740   H     0.65080   0.61664   0.49584   0.00000  Uiso   1.00
H741   H     0.62783   0.65418   0.44880   0.00000  Uiso   1.00
H742   H     0.57492   0.58396   0.51447   0.00000  Uiso   1.00
H743   H     0.55264   0.61868   0.46359   0.00000  Uiso   1.00
H744   H     0.60398   0.57845   0.40390   0.00000  Uiso   1.00
H745   H     0.56769   0.53769   0.43519   0.00000  Uiso   1.00
H746   H     0.62499   0.54238   0.45470   0.00000  Uiso   1.00
H747   H     0.52684   0.67968   0.51611   0.00000  Uiso   1.00
H748   H     0.72519   0.53515   0.42394   0.00000  Uiso   1.00
H749   H     0.80096   0.96447   0.55748   0.00000  Uiso   1.00
H750   H     0.77495   0.53517   0.57607   0.00000  Uiso   1.00
H751   H     0.69905   0.96457   0.44257   0.00000  Uiso   1.00
H752   H     0.64268   0.87033   0.52468   0.00000  Uiso   1.00
N753   N     0.75000   0.62624   0.50000   0.00000  Uiso   1.00
N754   N     0.75000   0.87377   0.50000   0.00000  Uiso   1.00
O755   O     0.68453   0.78974   0.50000   0.00000  Uiso   1.00
O756   O     0.88458   0.66772   0.46645   0.00000  Uiso   1.00
O757   O     0.88795   0.83254   0.52099   0.00000  Uiso   1.00
O758   O     0.61138   0.66822   0.52454   0.00000  Uiso   1.00
O759   O     0.81547   0.71026   0.50000   0.00000  Uiso   1.00
O760   O     0.81547   0.78974   0.50000   0.00000  Uiso   1.00
O761   O     0.68453   0.71026   0.50000   0.00000  Uiso   1.00
O762   O     0.75000   0.78973   0.42845   0.00000  Uiso   1.00
O763   O     0.75000   0.71027   0.57155   0.00000  Uiso   1.00
O764   O     0.75000   0.78973   0.57155   0.00000  Uiso   1.00
O765   O     0.75000   0.71027   0.42845   0.00000  Uiso   1.00
O766   O     0.61561   0.83191   0.46673   0.00000  Uiso   1.00
Zn767  Zn    0.75000   0.80307   0.50000   0.00000  Uiso   1.00
Zn768  Zn    0.75000   0.69693   0.50000   0.00000  Uiso   1.00
C769   C     0.16374   0.24997   0.83261   0.00000  Uiso   1.00
C770   C     0.22208   0.44718   0.80097   0.00000  Uiso   1.00
C771   C     0.24996   0.25000   0.73953   0.00000  Uiso   1.00
C772   C     0.25004   0.25000   0.92713   0.00000  Uiso   1.00
C773   C     0.25002   0.02654   0.83336   0.00000  Uiso   1.00
C774   C     0.24998   0.47315   0.83340   0.00000  Uiso   1.00
C775   C     0.24998   0.24999   0.68846   0.00000  Uiso   1.00
C776   C     0.25001   0.24999   0.97821   0.00000  Uiso   1.00
C777   C     0.04778   0.28934   0.80381   0.00000  Uiso   1.00
C778   C     0.45202   0.21084   0.80397   0.00000  Uiso   1.00
C779   C     0.45420   0.29103   0.83472   0.00000  Uiso   1.00
C780   C     0.33625   0.24997   0.83256   0.00000  Uiso   1.00
C781   C     0.04553   0.20970   0.83614   0.00000  Uiso   1.00
C782   C     0.09325   0.29073   0.81119   0.00000  Uiso   1.00
C783   C     0.40675   0.20894   0.81179   0.00000  Uiso   1.00
C784   C     0.40840   0.29178   0.83786   0.00000  Uiso   1.00
C785   C     0.09133   0.20841   0.83895   0.00000  Uiso   1.00
C786   C     0.11563   0.24978   0.82795   0.00000  Uiso   1.00
C787   C     0.38432   0.25001   0.82813   0.00000  Uiso   1.00
C788   C     0.02386   0.24956   0.81771   0.00000  Uiso   1.00
C789   C     0.47590   0.25090   0.81746   0.00000  Uiso   1.00
C790   C     0.11002   0.36500   0.83935   0.00000  Uiso   1.00
C791   C     0.23556   0.10201   0.79217   0.00000  Uiso   1.00
C792   C     0.09427   0.41195   0.81757   0.00000  Uiso   1.00
C793   C     0.09153   0.44973   0.85807   0.00000  Uiso   1.00
C794   C     0.38292   0.13794   0.84234   0.00000  Uiso   1.00
C795   C     0.42049   0.10159   0.84172   0.00000  Uiso   1.00
C796   C     0.41546   0.06613   0.88425   0.00000  Uiso   1.00
C797   C     0.38696   0.36641   0.81528   0.00000  Uiso   1.00
C798   C     0.39824   0.41491   0.83668   0.00000  Uiso   1.00
C799   C     0.39181   0.45342   0.79743   0.00000  Uiso   1.00
C800   C     0.12042   0.13634   0.81839   0.00000  Uiso   1.00
C801   C     0.08280   0.10063   0.81131   0.00000  Uiso   1.00
C802   C     0.27693   0.39763   0.86566   0.00000  Uiso   1.00
C803   C     0.09581   0.06245   0.77396   0.00000  Uiso   1.00
C804   C     0.26457   0.10202   0.87446   0.00000  Uiso   1.00
C805   C     0.22317   0.39771   0.80094   0.00000  Uiso   1.00
C806   C     0.23580   0.05254   0.79127   0.00000  Uiso   1.00
C807   C     0.27790   0.44711   0.86578   0.00000  Uiso   1.00
C808   C     0.26431   0.05255   0.87540   0.00000  Uiso   1.00
F809   F     0.22009   0.12550   0.75156   0.00000  Uiso   1.00
F810   F     0.30335   0.37344   0.89784   0.00000  Uiso   1.00
F811   F     0.28014   0.12552   0.91500   0.00000  Uiso   1.00
F812   F     0.19719   0.37364   0.76826   0.00000  Uiso   1.00
H813   H     0.03107   0.32019   0.78899   0.00000  Uiso   1.00
H814   H     0.08627   0.35387   0.86907   0.00000  Uiso   1.00
H815   H     0.11758   0.42381   0.78814   0.00000  Uiso   1.00
H816   H     0.06096   0.40721   0.80020   0.00000  Uiso   1.00
H817   H     0.06901   0.43828   0.88845   0.00000  Uiso   1.00
H818   H     0.07824   0.48279   0.84174   0.00000  Uiso   1.00
H819   H     0.12500   0.45685   0.87400   0.00000  Uiso   1.00
H820   H     0.35096   0.11865   0.84049   0.00000  Uiso   1.00
H821   H     0.38302   0.15749   0.87865   0.00000  Uiso   1.00
H822   H     0.42011   0.08254   0.80538   0.00000  Uiso   1.00
H823   H     0.45299   0.11950   0.84614   0.00000  Uiso   1.00
H824   H     0.46878   0.18033   0.78875   0.00000  Uiso   1.00
H825   H     0.41706   0.08440   0.92098   0.00000  Uiso   1.00
H826   H     0.44276   0.03992   0.88264   0.00000  Uiso   1.00
H827   H     0.38328   0.04728   0.88093   0.00000  Uiso   1.00
H828   H     0.35290   0.36734   0.79911   0.00000  Uiso   1.00
H829   H     0.41029   0.35904   0.78389   0.00000  Uiso   1.00
H830   H     0.37671   0.42257   0.86922   0.00000  Uiso   1.00
H831   H     0.43331   0.41502   0.84977   0.00000  Uiso   1.00
H832   H     0.41300   0.44649   0.76441   0.00000  Uiso   1.00
H833   H     0.40127   0.48800   0.81352   0.00000  Uiso   1.00
H834   H     0.35651   0.45510   0.78533   0.00000  Uiso   1.00
H835   H     0.47265   0.32194   0.84638   0.00000  Uiso   1.00
H836   H     0.15080   0.11664   0.82917   0.00000  Uiso   1.00
H837   H     0.12783   0.15418   0.78213   0.00000  Uiso   1.00
H838   H     0.07492   0.08396   0.84780   0.00000  Uiso   1.00
H839   H     0.05264   0.11868   0.79692   0.00000  Uiso   1.00
H840   H     0.10398   0.07845   0.73724   0.00000  Uiso   1.00
H841   H     0.06769   0.03769   0.76852   0.00000  Uiso   1.00
H842   H     0.12499   0.04238   0.78804   0.00000  Uiso   1.00
H843   H     0.02684   0.17968   0.84944   0.00000  Uiso   1.00
H844   H     0.22519   0.03515   0.75727   0.00000  Uiso   1.00
H845   H     0.30096   0.46447   0.89082   0.00000  Uiso   1.00
H846   H     0.27495   0.03517   0.90940   0.00000  Uiso   1.00
H847   H     0.19905   0.46457   0.77590   0.00000  Uiso   1.00
H848   H     0.14268   0.37033   0.85802   0.00000  Uiso   1.00
N849   N     0.25000   0.12624   0.83333   0.00000  Uiso   1.00
N850   N     0.25000   0.37377   0.83333   0.00000  Uiso   1.00
O851   O     0.18453   0.28974   0.83334   0.00000  Uiso   1.00
O852   O     0.38458   0.16772   0.79978   0.00000  Uiso   1.00
O853   O     0.38795   0.33254   0.85432   0.00000  Uiso   1.00
O854   O     0.11138   0.16822   0.85787   0.00000  Uiso   1.00
O855   O     0.31547   0.21026   0.83333   0.00000  Uiso   1.00
O856   O     0.31547   0.28974   0.83333   0.00000  Uiso   1.00
O857   O     0.18453   0.21026   0.83334   0.00000  Uiso   1.00
O858   O     0.25000   0.28973   0.76178   0.00000  Uiso   1.00
O859   O     0.25000   0.21027   0.90489   0.00000  Uiso   1.00
O860   O     0.25000   0.28973   0.90489   0.00000  Uiso   1.00
O861   O     0.25000   0.21027   0.76178   0.00000  Uiso   1.00
O862   O     0.11561   0.33191   0.80006   0.00000  Uiso   1.00
Zn863  Zn    0.25000   0.30307   0.83333   0.00000  Uiso   1.00
Zn864  Zn    0.25000   0.19693   0.83333   0.00000  Uiso   1.00
C865   C     0.66374   0.24997   0.83261   0.00000  Uiso   1.00
C866   C     0.72208   0.44718   0.80097   0.00000  Uiso   1.00
C867   C     0.74996   0.25000   0.73953   0.00000  Uiso   1.00
C868   C     0.75004   0.25000   0.92713   0.00000  Uiso   1.00
C869   C     0.75002   0.02654   0.83336   0.00000  Uiso   1.00
C870   C     0.74998   0.47315   0.83340   0.00000  Uiso   1.00
C871   C     0.74998   0.24999   0.68846   0.00000  Uiso   1.00
C872   C     0.75001   0.24999   0.97821   0.00000  Uiso   1.00
C873   C     0.54778   0.28934   0.80381   0.00000  Uiso   1.00
C874   C     0.95202   0.21084   0.80397   0.00000  Uiso   1.00
C875   C     0.95420   0.29103   0.83472   0.00000  Uiso   1.00
C876   C     0.83625   0.24997   0.83256   0.00000  Uiso   1.00
C877   C     0.54553   0.20970   0.83614   0.00000  Uiso   1.00
C878   C     0.59325   0.29073   0.81119   0.00000  Uiso   1.00
C879   C     0.90675   0.20894   0.81179   0.00000  Uiso   1.00
C880   C     0.90840   0.29178   0.83786   0.00000  Uiso   1.00
C881   C     0.59133   0.20841   0.83895   0.00000  Uiso   1.00
C882   C     0.61563   0.24978   0.82795   0.00000  Uiso   1.00
C883   C     0.88432   0.25001   0.82813   0.00000  Uiso   1.00
C884   C     0.52386   0.24956   0.81771   0.00000  Uiso   1.00
C885   C     0.97590   0.25090   0.81746   0.00000  Uiso   1.00
C886   C     0.61002   0.36500   0.83935   0.00000  Uiso   1.00
C887   C     0.73556   0.10201   0.79217   0.00000  Uiso   1.00
C888   C     0.59427   0.41195   0.81757   0.00000  Uiso   1.00
C889   C     0.59153   0.44973   0.85807   0.00000  Uiso   1.00
C890   C     0.88292   0.13794   0.84234   0.00000  Uiso   1.00
C891   C     0.92049   0.10159   0.84172   0.00000  Uiso   1.00
C892   C     0.91546   0.06613   0.88425   0.00000  Uiso   1.00
C893   C     0.88696   0.36641   0.81528   0.00000  Uiso   1.00
C894   C     0.89824   0.41491   0.83668   0.00000  Uiso   1.00
C895   C     0.89181   0.45342   0.79743   0.00000  Uiso   1.00
C896   C     0.62042   0.13634   0.81839   0.00000  Uiso   1.00
C897   C     0.58280   0.10063   0.81131   0.00000  Uiso   1.00
C898   C     0.77693   0.39763   0.86566   0.00000  Uiso   1.00
C899   C     0.59581   0.06245   0.77396   0.00000  Uiso   1.00
C900   C     0.76457   0.10202   0.87446   0.00000  Uiso   1.00
C901   C     0.72317   0.39771   0.80094   0.00000  Uiso   1.00
C902   C     0.73580   0.05254   0.79127   0.00000  Uiso   1.00
C903   C     0.77790   0.44711   0.86578   0.00000  Uiso   1.00
C904   C     0.76431   0.05255   0.87540   0.00000  Uiso   1.00
F905   F     0.72009   0.12550   0.75156   0.00000  Uiso   1.00
F906   F     0.80335   0.37344   0.89784   0.00000  Uiso   1.00
F907   F     0.78014   0.12552   0.91500   0.00000  Uiso   1.00
F908   F     0.69719   0.37364   0.76826   0.00000  Uiso   1.00
H909   H     0.53107   0.32019   0.78899   0.00000  Uiso   1.00
H910   H     0.58627   0.35387   0.86907   0.00000  Uiso   1.00
H911   H     0.61758   0.42381   0.78814   0.00000  Uiso   1.00
H912   H     0.56096   0.40721   0.80020   0.00000  Uiso   1.00
H913   H     0.56901   0.43828   0.88845   0.00000  Uiso   1.00
H914   H     0.57824   0.48279   0.84174   0.00000  Uiso   1.00
H915   H     0.62500   0.45685   0.87400   0.00000  Uiso   1.00
H916   H     0.85096   0.11865   0.84049   0.00000  Uiso   1.00
H917   H     0.88302   0.15749   0.87865   0.00000  Uiso   1.00
H918   H     0.92011   0.08254   0.80538   0.00000  Uiso   1.00
H919   H     0.95299   0.11950   0.84614   0.00000  Uiso   1.00
H920   H     0.96878   0.18033   0.78875   0.00000  Uiso   1.00
H921   H     0.91706   0.08440   0.92098   0.00000  Uiso   1.00
H922   H     0.94276   0.03992   0.88264   0.00000  Uiso   1.00
H923   H     0.88328   0.04728   0.88093   0.00000  Uiso   1.00
H924   H     0.85290   0.36734   0.79911   0.00000  Uiso   1.00
H925   H     0.91029   0.35904   0.78389   0.00000  Uiso   1.00
H926   H     0.87671   0.42257   0.86922   0.00000  Uiso   1.00
H927   H     0.93331   0.41502   0.84977   0.00000  Uiso   1.00
H928   H     0.91300   0.44649   0.76441   0.00000  Uiso   1.00
H929   H     0.90127   0.48800   0.81352   0.00000  Uiso   1.00
H930   H     0.85651   0.45510   0.78533   0.00000  Uiso   1.00
H931   H     0.97265   0.32194   0.84638   0.00000  Uiso   1.00
H932   H     0.65080   0.11664   0.82917   0.00000  Uiso   1.00
H933   H     0.62783   0.15418   0.78213   0.00000  Uiso   1.00
H934   H     0.57492   0.08396   0.84780   0.00000  Uiso   1.00
H935   H     0.55264   0.11868   0.79692   0.00000  Uiso   1.00
H936   H     0.60398   0.07845   0.73724   0.00000  Uiso   1.00
H937   H     0.56769   0.03769   0.76852   0.00000  Uiso   1.00
H938   H     0.62499   0.04238   0.78804   0.00000  Uiso   1.00
H939   H     0.52684   0.17968   0.84944   0.00000  Uiso   1.00
H940   H     0.72519   0.03515   0.75727   0.00000  Uiso   1.00
H941   H     0.80096   0.46447   0.89082   0.00000  Uiso   1.00
H942   H     0.77495   0.03517   0.90940   0.00000  Uiso   1.00
H943   H     0.69905   0.46457   0.77590   0.00000  Uiso   1.00
H944   H     0.64268   0.37033   0.85802   0.00000  Uiso   1.00
N945   N     0.75000   0.12624   0.83333   0.00000  Uiso   1.00
N946   N     0.75000   0.37377   0.83333   0.00000  Uiso   1.00
O947   O     0.68453   0.28974   0.83334   0.00000  Uiso   1.00
O948   O     0.88458   0.16772   0.79978   0.00000  Uiso   1.00
O949   O     0.88795   0.33254   0.85432   0.00000  Uiso   1.00
O950   O     0.61138   0.16822   0.85787   0.00000  Uiso   1.00
O951   O     0.81547   0.21026   0.83333   0.00000  Uiso   1.00
O952   O     0.81547   0.28974   0.83333   0.00000  Uiso   1.00
O953   O     0.68453   0.21026   0.83334   0.00000  Uiso   1.00
O954   O     0.75000   0.28973   0.76178   0.00000  Uiso   1.00
O955   O     0.75000   0.21027   0.90489   0.00000  Uiso   1.00
O956   O     0.75000   0.28973   0.90489   0.00000  Uiso   1.00
O957   O     0.75000   0.21027   0.76178   0.00000  Uiso   1.00
O958   O     0.61561   0.33191   0.80006   0.00000  Uiso   1.00
Zn959  Zn    0.75000   0.30307   0.83333   0.00000  Uiso   1.00
Zn960  Zn    0.75000   0.19693   0.83333   0.00000  Uiso   1.00
C961   C     0.16374   0.74997   0.83261   0.00000  Uiso   1.00
C962   C     0.22208   0.94718   0.80097   0.00000  Uiso   1.00
C963   C     0.24996   0.75000   0.73953   0.00000  Uiso   1.00
C964   C     0.25004   0.75000   0.92713   0.00000  Uiso   1.00
C965   C     0.25002   0.52654   0.83336   0.00000  Uiso   1.00
C966   C     0.24998   0.97315   0.83340   0.00000  Uiso   1.00
C967   C     0.24998   0.74999   0.68846   0.00000  Uiso   1.00
C968   C     0.25001   0.74999   0.97821   0.00000  Uiso   1.00
C969   C     0.04778   0.78934   0.80381   0.00000  Uiso   1.00
C970   C     0.45202   0.71084   0.80397   0.00000  Uiso   1.00
C971   C     0.45420   0.79103   0.83472   0.00000  Uiso   1.00
C972   C     0.33625   0.74997   0.83256   0.00000  Uiso   1.00
C973   C     0.04553   0.70970   0.83614   0.00000  Uiso   1.00
C974   C     0.09325   0.79073   0.81119   0.00000  Uiso   1.00
C975   C     0.40675   0.70894   0.81179   0.00000  Uiso   1.00
C976   C     0.40840   0.79178   0.83786   0.00000  Uiso   1.00
C977   C     0.09133   0.70841   0.83895   0.00000  Uiso   1.00
C978   C     0.11563   0.74978   0.82795   0.00000  Uiso   1.00
C979   C     0.38432   0.75001   0.82813   0.00000  Uiso   1.00
C980   C     0.02386   0.74956   0.81771   0.00000  Uiso   1.00
C981   C     0.47590   0.75090   0.81746   0.00000  Uiso   1.00
C982   C     0.11002   0.86500   0.83935   0.00000  Uiso   1.00
C983   C     0.23556   0.60201   0.79217   0.00000  Uiso   1.00
C984   C     0.09427   0.91195   0.81757   0.00000  Uiso   1.00
C985   C     0.09153   0.94973   0.85807   0.00000  Uiso   1.00
C986   C     0.38292   0.63794   0.84234   0.00000  Uiso   1.00
C987   C     0.42049   0.60159   0.84172   0.00000  Uiso   1.00
C988   C     0.41546   0.56613   0.88425   0.00000  Uiso   1.00
C989   C     0.38696   0.86641   0.81528   0.00000  Uiso   1.00
C990   C     0.39824   0.91491   0.83668   0.00000  Uiso   1.00
C991   C     0.39181   0.95342   0.79743   0.00000  Uiso   1.00
C992   C     0.12042   0.63634   0.81839   0.00000  Uiso   1.00
C993   C     0.08280   0.60063   0.81131   0.00000  Uiso   1.00
C994   C     0.27693   0.89763   0.86566   0.00000  Uiso   1.00
C995   C     0.09581   0.56245   0.77396   0.00000  Uiso   1.00
C996   C     0.26457   0.60202   0.87446   0.00000  Uiso   1.00
C997   C     0.22317   0.89771   0.80094   0.00000  Uiso   1.00
C998   C     0.23580   0.55254   0.79127   0.00000  Uiso   1.00
C999   C     0.27790   0.94711   0.86578   0.00000  Uiso   1.00
C1000  C     0.26431   0.55255   0.87540   0.00000  Uiso   1.00
F1001  F     0.22009   0.62550   0.75156   0.00000  Uiso   1.00
F1002  F     0.30335   0.87344   0.89784   0.00000  Uiso   1.00
F1003  F     0.28014   0.62552   0.91500   0.00000  Uiso   1.00
F1004  F     0.19719   0.87364   0.76826   0.00000  Uiso   1.00
H1005  H     0.03107   0.82019   0.78899   0.00000  Uiso   1.00
H1006  H     0.08627   0.85387   0.86907   0.00000  Uiso   1.00
H1007  H     0.11758   0.92381   0.78814   0.00000  Uiso   1.00
H1008  H     0.06096   0.90721   0.80020   0.00000  Uiso   1.00
H1009  H     0.06901   0.93828   0.88845   0.00000  Uiso   1.00
H1010  H     0.07824   0.98279   0.84174   0.00000  Uiso   1.00
H1011  H     0.12500   0.95685   0.87400   0.00000  Uiso   1.00
H1012  H     0.35096   0.61865   0.84049   0.00000  Uiso   1.00
H1013  H     0.38302   0.65749   0.87865   0.00000  Uiso   1.00
H1014  H     0.42011   0.58254   0.80538   0.00000  Uiso   1.00
H1015  H     0.45299   0.61950   0.84614   0.00000  Uiso   1.00
H1016  H     0.46878   0.68033   0.78875   0.00000  Uiso   1.00
H1017  H     0.41706   0.58440   0.92098   0.00000  Uiso   1.00
H1018  H     0.44276   0.53992   0.88264   0.00000  Uiso   1.00
H1019  H     0.38328   0.54728   0.88093   0.00000  Uiso   1.00
H1020  H     0.35290   0.86734   0.79911   0.00000  Uiso   1.00
H1021  H     0.41029   0.85904   0.78389   0.00000  Uiso   1.00
H1022  H     0.37671   0.92257   0.86922   0.00000  Uiso   1.00
H1023  H     0.43331   0.91502   0.84977   0.00000  Uiso   1.00
H1024  H     0.41300   0.94649   0.76441   0.00000  Uiso   1.00
H1025  H     0.40127   0.98800   0.81352   0.00000  Uiso   1.00
H1026  H     0.35651   0.95510   0.78533   0.00000  Uiso   1.00
H1027  H     0.47265   0.82194   0.84638   0.00000  Uiso   1.00
H1028  H     0.15080   0.61664   0.82917   0.00000  Uiso   1.00
H1029  H     0.12783   0.65418   0.78213   0.00000  Uiso   1.00
H1030  H     0.07492   0.58396   0.84780   0.00000  Uiso   1.00
H1031  H     0.05264   0.61868   0.79692   0.00000  Uiso   1.00
H1032  H     0.10398   0.57845   0.73724   0.00000  Uiso   1.00
H1033  H     0.06769   0.53769   0.76852   0.00000  Uiso   1.00
H1034  H     0.12499   0.54238   0.78804   0.00000  Uiso   1.00
H1035  H     0.02684   0.67968   0.84944   0.00000  Uiso   1.00
H1036  H     0.22519   0.53515   0.75727   0.00000  Uiso   1.00
H1037  H     0.30096   0.96447   0.89082   0.00000  Uiso   1.00
H1038  H     0.27495   0.53517   0.90940   0.00000  Uiso   1.00
H1039  H     0.19905   0.96457   0.77590   0.00000  Uiso   1.00
H1040  H     0.14268   0.87033   0.85802   0.00000  Uiso   1.00
N1041  N     0.25000   0.62624   0.83333   0.00000  Uiso   1.00
N1042  N     0.25000   0.87377   0.83333   0.00000  Uiso   1.00
O1043  O     0.18453   0.78974   0.83334   0.00000  Uiso   1.00
O1044  O     0.38458   0.66772   0.79978   0.00000  Uiso   1.00
O1045  O     0.38795   0.83254   0.85432   0.00000  Uiso   1.00
O1046  O     0.11138   0.66822   0.85787   0.00000  Uiso   1.00
O1047  O     0.31547   0.71026   0.83333   0.00000  Uiso   1.00
O1048  O     0.31547   0.78974   0.83333   0.00000  Uiso   1.00
O1049  O     0.18453   0.71026   0.83334   0.00000  Uiso   1.00
O1050  O     0.25000   0.78973   0.76178   0.00000  Uiso   1.00
O1051  O     0.25000   0.71027   0.90489   0.00000  Uiso   1.00
O1052  O     0.25000   0.78973   0.90489   0.00000  Uiso   1.00
O1053  O     0.25000   0.71027   0.76178   0.00000  Uiso   1.00
O1054  O     0.11561   0.83191   0.80006   0.00000  Uiso   1.00
Zn1055 Zn    0.25000   0.80307   0.83333   0.00000  Uiso   1.00
Zn1056 Zn    0.25000   0.69693   0.83333   0.00000  Uiso   1.00
C1057  C     0.66374   0.74997   0.83261   0.00000  Uiso   1.00
C1058  C     0.72208   0.94718   0.80097   0.00000  Uiso   1.00
C1059  C     0.74996   0.75000   0.73953   0.00000  Uiso   1.00
C1060  C     0.75004   0.75000   0.92713   0.00000  Uiso   1.00
C1061  C     0.75002   0.52654   0.83336   0.00000  Uiso   1.00
C1062  C     0.74998   0.97315   0.83340   0.00000  Uiso   1.00
C1063  C     0.74998   0.74999   0.68846   0.00000  Uiso   1.00
C1064  C     0.75001   0.74999   0.97821   0.00000  Uiso   1.00
C1065  C     0.54778   0.78934   0.80381   0.00000  Uiso   1.00
C1066  C     0.95202   0.71084   0.80397   0.00000  Uiso   1.00
C1067  C     0.95420   0.79103   0.83472   0.00000  Uiso   1.00
C1068  C     0.83625   0.74997   0.83256   0.00000  Uiso   1.00
C1069  C     0.54553   0.70970   0.83614   0.00000  Uiso   1.00
C1070  C     0.59325   0.79073   0.81119   0.00000  Uiso   1.00
C1071  C     0.90675   0.70894   0.81179   0.00000  Uiso   1.00
C1072  C     0.90840   0.79178   0.83786   0.00000  Uiso   1.00
C1073  C     0.59133   0.70841   0.83895   0.00000  Uiso   1.00
C1074  C     0.61563   0.74978   0.82795   0.00000  Uiso   1.00
C1075  C     0.88432   0.75001   0.82813   0.00000  Uiso   1.00
C1076  C     0.52386   0.74956   0.81771   0.00000  Uiso   1.00
C1077  C     0.97590   0.75090   0.81746   0.00000  Uiso   1.00
C1078  C     0.61002   0.86500   0.83935   0.00000  Uiso   1.00
C1079  C     0.73556   0.60201   0.79217   0.00000  Uiso   1.00
C1080  C     0.59427   0.91195   0.81757   0.00000  Uiso   1.00
C1081  C     0.59153   0.94973   0.85807   0.00000  Uiso   1.00
C1082  C     0.88292   0.63794   0.84234   0.00000  Uiso   1.00
C1083  C     0.92049   0.60159   0.84172   0.00000  Uiso   1.00
C1084  C     0.91546   0.56613   0.88425   0.00000  Uiso   1.00
C1085  C     0.88696   0.86641   0.81528   0.00000  Uiso   1.00
C1086  C     0.89824   0.91491   0.83668   0.00000  Uiso   1.00
C1087  C     0.89181   0.95342   0.79743   0.00000  Uiso   1.00
C1088  C     0.62042   0.63634   0.81839   0.00000  Uiso   1.00
C1089  C     0.58280   0.60063   0.81131   0.00000  Uiso   1.00
C1090  C     0.77693   0.89763   0.86566   0.00000  Uiso   1.00
C1091  C     0.59581   0.56245   0.77396   0.00000  Uiso   1.00
C1092  C     0.76457   0.60202   0.87446   0.00000  Uiso   1.00
C1093  C     0.72317   0.89771   0.80094   0.00000  Uiso   1.00
C1094  C     0.73580   0.55254   0.79127   0.00000  Uiso   1.00
C1095  C     0.77790   0.94711   0.86578   0.00000  Uiso   1.00
C1096  C     0.76431   0.55255   0.87540   0.00000  Uiso   1.00
F1097  F     0.72009   0.62550   0.75156   0.00000  Uiso   1.00
F1098  F     0.80335   0.87344   0.89784   0.00000  Uiso   1.00
F1099  F     0.78014   0.62552   0.91500   0.00000  Uiso   1.00
F1100  F     0.69719   0.87364   0.76826   0.00000  Uiso   1.00
H1101  H     0.53107   0.82019   0.78899   0.00000  Uiso   1.00
H1102  H     0.58627   0.85387   0.86907   0.00000  Uiso   1.00
H1103  H     0.61758   0.92381   0.78814   0.00000  Uiso   1.00
H1104  H     0.56096   0.90721   0.80020   0.00000  Uiso   1.00
H1105  H     0.56901   0.93828   0.88845   0.00000  Uiso   1.00
H1106  H     0.57824   0.98279   0.84174   0.00000  Uiso   1.00
H1107  H     0.62500   0.95685   0.87400   0.00000  Uiso   1.00
H1108  H     0.85096   0.61865   0.84049   0.00000  Uiso   1.00
H1109  H     0.88302   0.65749   0.87865   0.00000  Uiso   1.00
H1110  H     0.92011   0.58254   0.80538   0.00000  Uiso   1.00
H1111  H     0.95299   0.61950   0.84614   0.00000  Uiso   1.00
H1112  H     0.96878   0.68033   0.78875   0.00000  Uiso   1.00
H1113  H     0.91706   0.58440   0.92098   0.00000  Uiso   1.00
H1114  H     0.94276   0.53992   0.88264   0.00000  Uiso   1.00
H1115  H     0.88328   0.54728   0.88093   0.00000  Uiso   1.00
H1116  H     0.85290   0.86734   0.79911   0.00000  Uiso   1.00
H1117  H     0.91029   0.85904   0.78389   0.00000  Uiso   1.00
H1118  H     0.87671   0.92257   0.86922   0.00000  Uiso   1.00
H1119  H     0.93331   0.91502   0.84977   0.00000  Uiso   1.00
H1120  H     0.91300   0.94649   0.76441   0.00000  Uiso   1.00
H1121  H     0.90127   0.98800   0.81352   0.00000  Uiso   1.00
H1122  H     0.85651   0.95510   0.78533   0.00000  Uiso   1.00
H1123  H     0.97265   0.82194   0.84638   0.00000  Uiso   1.00
H1124  H     0.65080   0.61664   0.82917   0.00000  Uiso   1.00
H1125  H     0.62783   0.65418   0.78213   0.00000  Uiso   1.00
H1126  H     0.57492   0.58396   0.84780   0.00000  Uiso   1.00
H1127  H     0.55264   0.61868   0.79692   0.00000  Uiso   1.00
H1128  H     0.60398   0.57845   0.73724   0.00000  Uiso   1.00
H1129  H     0.56769   0.53769   0.76852   0.00000  Uiso   1.00
H1130  H     0.62499   0.54238   0.78804   0.00000  Uiso   1.00
H1131  H     0.52684   0.67968   0.84944   0.00000  Uiso   1.00
H1132  H     0.72519   0.53515   0.75727   0.00000  Uiso   1.00
H1133  H     0.80096   0.96447   0.89082   0.00000  Uiso   1.00
H1134  H     0.77495   0.53517   0.90940   0.00000  Uiso   1.00
H1135  H     0.69905   0.96457   0.77590   0.00000  Uiso   1.00
H1136  H     0.64268   0.87033   0.85802   0.00000  Uiso   1.00
N1137  N     0.75000   0.62624   0.83333   0.00000  Uiso   1.00
N1138  N     0.75000   0.87377   0.83333   0.00000  Uiso   1.00
O1139  O     0.68453   0.78974   0.83334   0.00000  Uiso   1.00
O1140  O     0.88458   0.66772   0.79978   0.00000  Uiso   1.00
O1141  O     0.88795   0.83254   0.85432   0.00000  Uiso   1.00
O1142  O     0.61138   0.66822   0.85787   0.00000  Uiso   1.00
O1143  O     0.81547   0.71026   0.83333   0.00000  Uiso   1.00
O1144  O     0.81547   0.78974   0.83333   0.00000  Uiso   1.00
O1145  O     0.68453   0.71026   0.83334   0.00000  Uiso   1.00
O1146  O     0.75000   0.78973   0.76178   0.00000  Uiso   1.00
O1147  O     0.75000   0.71027   0.90489   0.00000  Uiso   1.00
O1148  O     0.75000   0.78973   0.90489   0.00000  Uiso   1.00
O1149  O     0.75000   0.71027   0.76178   0.00000  Uiso   1.00
O1150  O     0.61561   0.83191   0.80006   0.00000  Uiso   1.00
Zn1151 Zn    0.75000   0.80307   0.83333   0.00000  Uiso   1.00
Zn1152 Zn    0.75000   0.69693   0.83333   0.00000  Uiso   1.00
loop_
_geom_bond_atom_site_label_1
_geom_bond_atom_site_label_2
_geom_bond_distance
_geom_bond_site_symmetry_2
_ccdc_geom_bond_type
C1     O89     1.290   .     A
C1     C18     1.455   .     S
C1     O83     1.292   .     A
C2     H79     1.081   .     S
C2     C6      1.412   .     A
C2     C37     1.405   .     A
C3     O90     1.275   .     A
C3     C7      1.365   .     S
C3     O93     1.275   .     A
C4     C8      1.365   .     S
C4     O91     1.275   .     A
C4     O92     1.275   .     A
C5     C40     1.410   .     A
C5     C38     1.410   .     A
C5     C198    1.516   1_545 S
C6     C39     1.412   .     A
C6     C197    1.516   .     S
C7     C776    1.165   1_554 S
C8     C391    1.165   .     S
C9     H45     1.084   .     S
C9     C14     1.384   .     A
C9     C20     1.392   .     A
C10    C15     1.383   .     A
C10    H56     1.083   .     S
C10    C21     1.393   .     A
C11    H67     1.084   .     S
C11    C21     1.394   .     A
C11    C16     1.384   .     A
C12    O87     1.290   .     A
C12    O88     1.291   .     A
C12    C19     1.455   .     S
C13    H75     1.083   .     S
C13    C20     1.394   .     A
C13    C17     1.383   .     A
C14    C18     1.415   .     A
C14    O94     1.383   .     S
C15    C19     1.418   .     A
C15    O84     1.385   .     S
C16    O85     1.384   .     S
C16    C19     1.414   .     A
C17    O86     1.385   .     S
C17    C18     1.417   .     A
C20    C117    1.447   1_455 S
C21    C116    1.447   .     S
C22    O94     1.420   .     S
C22    H46     1.119   .     S
C22    H80     1.111   .     S
C22    C24     1.529   .     S
C23    N81     1.366   .     A
C23    C38     1.405   .     A
C23    F41     1.354   .     S
C24    H48     1.111   .     S
C24    C25     1.526   .     S
C24    H47     1.111   .     S
C25    H50     1.109   .     S
C25    H51     1.111   .     S
C25    H49     1.111   .     S
C26    C27     1.532   .     S
C26    H52     1.109   .     S
C26    H53     1.118   .     S
C26    O84     1.419   .     S
C27    H54     1.112   .     S
C27    H55     1.110   .     S
C27    C28     1.527   .     S
C28    H57     1.111   .     S
C28    H59     1.111   .     S
C28    H58     1.111   .     S
C29    O85     1.419   .     S
C29    H61     1.118   .     S
C29    C30     1.528   .     S
C29    H60     1.111   .     S
C30    C31     1.527   .     S
C30    H63     1.112   .     S
C30    H62     1.111   .     S
C31    H66     1.111   .     S
C31    H65     1.108   .     S
C31    H64     1.111   .     S
C32    H68     1.109   .     S
C32    O86     1.418   .     S
C32    H69     1.118   .     S
C32    C33     1.532   .     S
C33    H70     1.111   .     S
C33    C35     1.527   .     S
C33    H71     1.110   .     S
C34    F42     1.355   .     S
C34    C39     1.405   .     A
C34    N82     1.362   .     A
C35    H74     1.111   .     S
C35    H72     1.111   .     S
C35    H73     1.110   .     S
C36    C40     1.405   .     A
C36    N81     1.366   .     A
C36    F43     1.354   .     S
C37    N82     1.362   .     A
C37    F44     1.354   .     S
C38    H76     1.081   .     S
C39    H77     1.081   .     S
C40    H78     1.081   .     S
N81    Zn96    2.007   .     S
N82    Zn95    2.007   .     S
O83    Zn95    2.010   .     S
O87    Zn96    2.010   .     S
O88    Zn95    2.010   .     S
O89    Zn96    2.010   .     S
O90    Zn95    1.950   .     S
O91    Zn96    1.950   .     S
O92    Zn95    1.950   .     S
O93    Zn96    1.950   .     S
C97    O185    1.290   .     A
C97    C114    1.455   .     S
C97    O179    1.292   .     A
C98    H175    1.081   .     S
C98    C102    1.412   .     A
C98    C133    1.405   .     A
C99    O186    1.275   .     A
C99    C103    1.365   .     S
C99    O189    1.275   .     A
C100   C104    1.365   .     S
C100   O187    1.275   .     A
C100   O188    1.275   .     A
C101   C136    1.410   .     A
C101   C134    1.410   .     A
C101   C294    1.516   1_545 S
C102   C135    1.412   .     A
C102   C293    1.516   .     S
C103   C872    1.165   1_554 S
C104   C487    1.165   .     S
C105   H141    1.084   .     S
C105   C110    1.384   .     A
C105   C116    1.392   .     A
C106   C111    1.383   .     A
C106   H152    1.083   .     S
C106   C117    1.393   .     A
C107   H163    1.084   .     S
C107   C117    1.394   .     A
C107   C112    1.384   .     A
C108   O183    1.290   .     A
C108   O184    1.291   .     A
C108   C115    1.455   .     S
C109   H171    1.083   .     S
C109   C116    1.394   .     A
C109   C113    1.383   .     A
C110   C114    1.415   .     A
C110   O190    1.383   .     S
C111   C115    1.418   .     A
C111   O180    1.385   .     S
C112   O181    1.384   .     S
C112   C115    1.414   .     A
C113   O182    1.385   .     S
C113   C114    1.417   .     A
C117   C20     1.447   1_655 S
C118   O190    1.420   .     S
C118   H142    1.119   .     S
C118   H176    1.111   .     S
C118   C120    1.529   .     S
C119   N177    1.366   .     A
C119   C134    1.405   .     A
C119   F137    1.354   .     S
C120   H144    1.111   .     S
C120   C121    1.526   .     S
C120   H143    1.111   .     S
C121   H146    1.109   .     S
C121   H147    1.111   .     S
C121   H145    1.111   .     S
C122   C123    1.532   .     S
C122   H148    1.109   .     S
C122   H149    1.118   .     S
C122   O180    1.419   .     S
C123   H150    1.112   .     S
C123   H151    1.110   .     S
C123   C124    1.527   .     S
C124   H153    1.111   .     S
C124   H155    1.111   .     S
C124   H154    1.111   .     S
C125   O181    1.419   .     S
C125   H157    1.118   .     S
C125   C126    1.528   .     S
C125   H156    1.111   .     S
C126   C127    1.527   .     S
C126   H159    1.112   .     S
C126   H158    1.111   .     S
C127   H162    1.111   .     S
C127   H161    1.108   .     S
C127   H160    1.111   .     S
C128   H164    1.109   .     S
C128   O182    1.418   .     S
C128   H165    1.118   .     S
C128   C129    1.532   .     S
C129   H166    1.111   .     S
C129   C131    1.527   .     S
C129   H167    1.110   .     S
C130   F138    1.355   .     S
C130   C135    1.405   .     A
C130   N178    1.362   .     A
C131   H170    1.111   .     S
C131   H168    1.111   .     S
C131   H169    1.110   .     S
C132   C136    1.405   .     A
C132   N177    1.366   .     A
C132   F139    1.354   .     S
C133   N178    1.362   .     A
C133   F140    1.354   .     S
C134   H172    1.081   .     S
C135   H173    1.081   .     S
C136   H174    1.081   .     S
N177   Zn192   2.007   .     S
N178   Zn191   2.007   .     S
O179   Zn191   2.010   .     S
O183   Zn192   2.010   .     S
O184   Zn191   2.010   .     S
O185   Zn192   2.010   .     S
O186   Zn191   1.950   .     S
O187   Zn192   1.950   .     S
O188   Zn191   1.950   .     S
O189   Zn192   1.950   .     S
C193   O281    1.290   .     A
C193   C210    1.455   .     S
C193   O275    1.292   .     A
C194   H271    1.081   .     S
C194   C198    1.412   .     A
C194   C229    1.405   .     A
C195   O282    1.275   .     A
C195   C199    1.365   .     S
C195   O285    1.275   .     A
C196   C200    1.365   .     S
C196   O283    1.275   .     A
C196   O284    1.275   .     A
C197   C232    1.410   .     A
C197   C230    1.410   .     A
C198   C231    1.412   .     A
C198   C5      1.516   1_565 S
C199   C968    1.165   1_554 S
C200   C583    1.165   .     S
C201   H237    1.084   .     S
C201   C206    1.384   .     A
C201   C212    1.392   .     A
C202   C207    1.383   .     A
C202   H248    1.083   .     S
C202   C213    1.393   .     A
C203   H259    1.084   .     S
C203   C213    1.394   .     A
C203   C208    1.384   .     A
C204   O279    1.290   .     A
C204   O280    1.291   .     A
C204   C211    1.455   .     S
C205   H267    1.083   .     S
C205   C212    1.394   .     A
C205   C209    1.383   .     A
C206   C210    1.415   .     A
C206   O286    1.383   .     S
C207   C211    1.418   .     A
C207   O276    1.385   .     S
C208   O277    1.384   .     S
C208   C211    1.414   .     A
C209   O278    1.385   .     S
C209   C210    1.417   .     A
C212   C309    1.447   1_455 S
C213   C308    1.447   .     S
C214   O286    1.420   .     S
C214   H238    1.119   .     S
C214   H272    1.111   .     S
C214   C216    1.529   .     S
C215   N273    1.366   .     A
C215   C230    1.405   .     A
C215   F233    1.354   .     S
C216   H240    1.111   .     S
C216   C217    1.526   .     S
C216   H239    1.111   .     S
C217   H242    1.109   .     S
C217   H243    1.111   .     S
C217   H241    1.111   .     S
C218   C219    1.532   .     S
C218   H244    1.109   .     S
C218   H245    1.118   .     S
C218   O276    1.419   .     S
C219   H246    1.112   .     S
C219   H247    1.110   .     S
C219   C220    1.527   .     S
C220   H249    1.111   .     S
C220   H251    1.111   .     S
C220   H250    1.111   .     S
C221   O277    1.419   .     S
C221   H253    1.118   .     S
C221   C222    1.528   .     S
C221   H252    1.111   .     S
C222   C223    1.527   .     S
C222   H255    1.112   .     S
C222   H254    1.111   .     S
C223   H258    1.111   .     S
C223   H257    1.108   .     S
C223   H256    1.111   .     S
C224   H260    1.109   .     S
C224   O278    1.418   .     S
C224   H261    1.118   .     S
C224   C225    1.532   .     S
C225   H262    1.111   .     S
C225   C227    1.527   .     S
C225   H263    1.110   .     S
C226   F234    1.355   .     S
C226   C231    1.405   .     A
C226   N274    1.362   .     A
C227   H266    1.111   .     S
C227   H264    1.111   .     S
C227   H265    1.110   .     S
C228   C232    1.405   .     A
C228   N273    1.366   .     A
C228   F235    1.354   .     S
C229   N274    1.362   .     A
C229   F236    1.354   .     S
C230   H268    1.081   .     S
C231   H269    1.081   .     S
C232   H270    1.081   .     S
N273   Zn288   2.007   .     S
N274   Zn287   2.007   .     S
O275   Zn287   2.010   .     S
O279   Zn288   2.010   .     S
O280   Zn287   2.010   .     S
O281   Zn288   2.010   .     S
O282   Zn287   1.950   .     S
O283   Zn288   1.950   .     S
O284   Zn287   1.950   .     S
O285   Zn288   1.950   .     S
C289   O377    1.290   .     A
C289   C306    1.455   .     S
C289   O371    1.292   .     A
C290   H367    1.081   .     S
C290   C294    1.412   .     A
C290   C325    1.405   .     A
C291   O378    1.275   .     A
C291   C295    1.365   .     S
C291   O381    1.275   .     A
C292   C296    1.365   .     S
C292   O379    1.275   .     A
C292   O380    1.275   .     A
C293   C328    1.410   .     A
C293   C326    1.410   .     A
C294   C327    1.412   .     A
C294   C101    1.516   1_565 S
C295   C1064   1.165   1_554 S
C296   C679    1.165   .     S
C297   H333    1.084   .     S
C297   C302    1.384   .     A
C297   C308    1.392   .     A
C298   C303    1.383   .     A
C298   H344    1.083   .     S
C298   C309    1.393   .     A
C299   H355    1.084   .     S
C299   C309    1.394   .     A
C299   C304    1.384   .     A
C300   O375    1.290   .     A
C300   O376    1.291   .     A
C300   C307    1.455   .     S
C301   H363    1.083   .     S
C301   C308    1.394   .     A
C301   C305    1.383   .     A
C302   C306    1.415   .     A
C302   O382    1.383   .     S
C303   C307    1.418   .     A
C303   O372    1.385   .     S
C304   O373    1.384   .     S
C304   C307    1.414   .     A
C305   O374    1.385   .     S
C305   C306    1.417   .     A
C309   C212    1.447   1_655 S
C310   O382    1.420   .     S
C310   H334    1.119   .     S
C310   H368    1.111   .     S
C310   C312    1.529   .     S
C311   N369    1.366   .     A
C311   C326    1.405   .     A
C311   F329    1.354   .     S
C312   H336    1.111   .     S
C312   C313    1.526   .     S
C312   H335    1.111   .     S
C313   H338    1.109   .     S
C313   H339    1.111   .     S
C313   H337    1.111   .     S
C314   C315    1.532   .     S
C314   H340    1.109   .     S
C314   H341    1.118   .     S
C314   O372    1.419   .     S
C315   H342    1.112   .     S
C315   H343    1.110   .     S
C315   C316    1.527   .     S
C316   H345    1.111   .     S
C316   H347    1.111   .     S
C316   H346    1.111   .     S
C317   O373    1.419   .     S
C317   H349    1.118   .     S
C317   C318    1.528   .     S
C317   H348    1.111   .     S
C318   C319    1.527   .     S
C318   H351    1.112   .     S
C318   H350    1.111   .     S
C319   H354    1.111   .     S
C319   H353    1.108   .     S
C319   H352    1.111   .     S
C320   H356    1.109   .     S
C320   O374    1.418   .     S
C320   H357    1.118   .     S
C320   C321    1.532   .     S
C321   H358    1.111   .     S
C321   C323    1.527   .     S
C321   H359    1.110   .     S
C322   F330    1.355   .     S
C322   C327    1.405   .     A
C322   N370    1.362   .     A
C323   H362    1.111   .     S
C323   H360    1.111   .     S
C323   H361    1.110   .     S
C324   C328    1.405   .     A
C324   N369    1.366   .     A
C324   F331    1.354   .     S
C325   N370    1.362   .     A
C325   F332    1.354   .     S
C326   H364    1.081   .     S
C327   H365    1.081   .     S
C328   H366    1.081   .     S
N369   Zn384   2.007   .     S
N370   Zn383   2.007   .     S
O371   Zn383   2.010   .     S
O375   Zn384   2.010   .     S
O376   Zn383   2.010   .     S
O377   Zn384   2.010   .     S
O378   Zn383   1.950   .     S
O379   Zn384   1.950   .     S
O380   Zn383   1.950   .     S
O381   Zn384   1.950   .     S
C385   O473    1.290   .     A
C385   C402    1.455   .     S
C385   O467    1.292   .     A
C386   H463    1.081   .     S
C386   C390    1.412   .     A
C386   C421    1.405   .     A
C387   O474    1.275   .     A
C387   C391    1.365   .     S
C387   O477    1.275   .     A
C388   C392    1.365   .     S
C388   O475    1.275   .     A
C388   O476    1.275   .     A
C389   C424    1.410   .     A
C389   C422    1.410   .     A
C389   C582    1.516   1_545 S
C390   C423    1.412   .     A
C390   C581    1.516   .     S
C392   C775    1.165   .     S
C393   H429    1.084   .     S
C393   C398    1.384   .     A
C393   C404    1.392   .     A
C394   C399    1.383   .     A
C394   H440    1.083   .     S
C394   C405    1.393   .     A
C395   H451    1.084   .     S
C395   C405    1.394   .     A
C395   C400    1.384   .     A
C396   O471    1.290   .     A
C396   O472    1.291   .     A
C396   C403    1.455   .     S
C397   H459    1.083   .     S
C397   C404    1.394   .     A
C397   C401    1.383   .     A
C398   C402    1.415   .     A
C398   O478    1.383   .     S
C399   C403    1.418   .     A
C399   O468    1.385   .     S
C400   O469    1.384   .     S
C400   C403    1.414   .     A
C401   O470    1.385   .     S
C401   C402    1.417   .     A
C404   C501    1.447   1_455 S
C405   C500    1.447   .     S
C406   O478    1.420   .     S
C406   H430    1.119   .     S
C406   H464    1.111   .     S
C406   C408    1.529   .     S
C407   N465    1.366   .     A
C407   C422    1.405   .     A
C407   F425    1.354   .     S
C408   H432    1.111   .     S
C408   C409    1.526   .     S
C408   H431    1.111   .     S
C409   H434    1.109   .     S
C409   H435    1.111   .     S
C409   H433    1.111   .     S
C410   C411    1.532   .     S
C410   H436    1.109   .     S
C410   H437    1.118   .     S
C410   O468    1.419   .     S
C411   H438    1.112   .     S
C411   H439    1.110   .     S
C411   C412    1.527   .     S
C412   H441    1.111   .     S
C412   H443    1.111   .     S
C412   H442    1.111   .     S
C413   O469    1.419   .     S
C413   H445    1.118   .     S
C413   C414    1.528   .     S
C413   H444    1.111   .     S
C414   C415    1.527   .     S
C414   H447    1.112   .     S
C414   H446    1.111   .     S
C415   H450    1.111   .     S
C415   H449    1.108   .     S
C415   H448    1.111   .     S
C416   H452    1.109   .     S
C416   O470    1.418   .     S
C416   H453    1.118   .     S
C416   C417    1.532   .     S
C417   H454    1.111   .     S
C417   C419    1.527   .     S
C417   H455    1.110   .     S
C418   F426    1.355   .     S
C418   C423    1.405   .     A
C418   N466    1.362   .     A
C419   H458    1.111   .     S
C419   H456    1.111   .     S
C419   H457    1.110   .     S
C420   C424    1.405   .     A
C420   N465    1.366   .     A
C420   F427    1.354   .     S
C421   N466    1.362   .     A
C421   F428    1.354   .     S
C422   H460    1.081   .     S
C423   H461    1.081   .     S
C424   H462    1.081   .     S
N465   Zn480   2.007   .     S
N466   Zn479   2.007   .     S
O467   Zn479   2.010   .     S
O471   Zn480   2.010   .     S
O472   Zn479   2.010   .     S
O473   Zn480   2.010   .     S
O474   Zn479   1.950   .     S
O475   Zn480   1.950   .     S
O476   Zn479   1.950   .     S
O477   Zn480   1.950   .     S
C481   O569    1.290   .     A
C481   C498    1.455   .     S
C481   O563    1.292   .     A
C482   H559    1.081   .     S
C482   C486    1.412   .     A
C482   C517    1.405   .     A
C483   O570    1.275   .     A
C483   C487    1.365   .     S
C483   O573    1.275   .     A
C484   C488    1.365   .     S
C484   O571    1.275   .     A
C484   O572    1.275   .     A
C485   C520    1.410   .     A
C485   C518    1.410   .     A
C485   C678    1.516   1_545 S
C486   C519    1.412   .     A
C486   C677    1.516   .     S
C488   C871    1.165   .     S
C489   H525    1.084   .     S
C489   C494    1.384   .     A
C489   C500    1.392   .     A
C490   C495    1.383   .     A
C490   H536    1.083   .     S
C490   C501    1.393   .     A
C491   H547    1.084   .     S
C491   C501    1.394   .     A
C491   C496    1.384   .     A
C492   O567    1.290   .     A
C492   O568    1.291   .     A
C492   C499    1.455   .     S
C493   H555    1.083   .     S
C493   C500    1.394   .     A
C493   C497    1.383   .     A
C494   C498    1.415   .     A
C494   O574    1.383   .     S
C495   C499    1.418   .     A
C495   O564    1.385   .     S
C496   O565    1.384   .     S
C496   C499    1.414   .     A
C497   O566    1.385   .     S
C497   C498    1.417   .     A
C501   C404    1.447   1_655 S
C502   O574    1.420   .     S
C502   H526    1.119   .     S
C502   H560    1.111   .     S
C502   C504    1.529   .     S
C503   N561    1.366   .     A
C503   C518    1.405   .     A
C503   F521    1.354   .     S
C504   H528    1.111   .     S
C504   C505    1.526   .     S
C504   H527    1.111   .     S
C505   H530    1.109   .     S
C505   H531    1.111   .     S
C505   H529    1.111   .     S
C506   C507    1.532   .     S
C506   H532    1.109   .     S
C506   H533    1.118   .     S
C506   O564    1.419   .     S
C507   H534    1.112   .     S
C507   H535    1.110   .     S
C507   C508    1.527   .     S
C508   H537    1.111   .     S
C508   H539    1.111   .     S
C508   H538    1.111   .     S
C509   O565    1.419   .     S
C509   H541    1.118   .     S
C509   C510    1.528   .     S
C509   H540    1.111   .     S
C510   C511    1.527   .     S
C510   H543    1.112   .     S
C510   H542    1.111   .     S
C511   H546    1.111   .     S
C511   H545    1.108   .     S
C511   H544    1.111   .     S
C512   H548    1.109   .     S
C512   O566    1.418   .     S
C512   H549    1.118   .     S
C512   C513    1.532   .     S
C513   H550    1.111   .     S
C513   C515    1.527   .     S
C513   H551    1.110   .     S
C514   F522    1.355   .     S
C514   C519    1.405   .     A
C514   N562    1.362   .     A
C515   H554    1.111   .     S
C515   H552    1.111   .     S
C515   H553    1.110   .     S
C516   C520    1.405   .     A
C516   N561    1.366   .     A
C516   F523    1.354   .     S
C517   N562    1.362   .     A
C517   F524    1.354   .     S
C518   H556    1.081   .     S
C519   H557    1.081   .     S
C520   H558    1.081   .     S
N561   Zn576   2.007   .     S
N562   Zn575   2.007   .     S
O563   Zn575   2.010   .     S
O567   Zn576   2.010   .     S
O568   Zn575   2.010   .     S
O569   Zn576   2.010   .     S
O570   Zn575   1.950   .     S
O571   Zn576   1.950   .     S
O572   Zn575   1.950   .     S
O573   Zn576   1.950   .     S
C577   O665    1.290   .     A
C577   C594    1.455   .     S
C577   O659    1.292   .     A
C578   H655    1.081   .     S
C578   C582    1.412   .     A
C578   C613    1.405   .     A
C579   O666    1.275   .     A
C579   C583    1.365   .     S
C579   O669    1.275   .     A
C580   C584    1.365   .     S
C580   O667    1.275   .     A
C580   O668    1.275   .     A
C581   C616    1.410   .     A
C581   C614    1.410   .     A
C582   C615    1.412   .     A
C582   C389    1.516   1_565 S
C584   C967    1.165   .     S
C585   H621    1.084   .     S
C585   C590    1.384   .     A
C585   C596    1.392   .     A
C586   C591    1.383   .     A
C586   H632    1.083   .     S
C586   C597    1.393   .     A
C587   H643    1.084   .     S
C587   C597    1.394   .     A
C587   C592    1.384   .     A
C588   O663    1.290   .     A
C588   O664    1.291   .     A
C588   C595    1.455   .     S
C589   H651    1.083   .     S
C589   C596    1.394   .     A
C589   C593    1.383   .     A
C590   C594    1.415   .     A
C590   O670    1.383   .     S
C591   C595    1.418   .     A
C591   O660    1.385   .     S
C592   O661    1.384   .     S
C592   C595    1.414   .     A
C593   O662    1.385   .     S
C593   C594    1.417   .     A
C596   C693    1.447   1_455 S
C597   C692    1.447   .     S
C598   O670    1.420   .     S
C598   H622    1.119   .     S
C598   H656    1.111   .     S
C598   C600    1.529   .     S
C599   N657    1.366   .     A
C599   C614    1.405   .     A
C599   F617    1.354   .     S
C600   H624    1.111   .     S
C600   C601    1.526   .     S
C600   H623    1.111   .     S
C601   H626    1.109   .     S
C601   H627    1.111   .     S
C601   H625    1.111   .     S
C602   C603    1.532   .     S
C602   H628    1.109   .     S
C602   H629    1.118   .     S
C602   O660    1.419   .     S
C603   H630    1.112   .     S
C603   H631    1.110   .     S
C603   C604    1.527   .     S
C604   H633    1.111   .     S
C604   H635    1.111   .     S
C604   H634    1.111   .     S
C605   O661    1.419   .     S
C605   H637    1.118   .     S
C605   C606    1.528   .     S
C605   H636    1.111   .     S
C606   C607    1.527   .     S
C606   H639    1.112   .     S
C606   H638    1.111   .     S
C607   H642    1.111   .     S
C607   H641    1.108   .     S
C607   H640    1.111   .     S
C608   H644    1.109   .     S
C608   O662    1.418   .     S
C608   H645    1.118   .     S
C608   C609    1.532   .     S
C609   H646    1.111   .     S
C609   C611    1.527   .     S
C609   H647    1.110   .     S
C610   F618    1.355   .     S
C610   C615    1.405   .     A
C610   N658    1.362   .     A
C611   H650    1.111   .     S
C611   H648    1.111   .     S
C611   H649    1.110   .     S
C612   C616    1.405   .     A
C612   N657    1.366   .     A
C612   F619    1.354   .     S
C613   N658    1.362   .     A
C613   F620    1.354   .     S
C614   H652    1.081   .     S
C615   H653    1.081   .     S
C616   H654    1.081   .     S
N657   Zn672   2.007   .     S
N658   Zn671   2.007   .     S
O659   Zn671   2.010   .     S
O663   Zn672   2.010   .     S
O664   Zn671   2.010   .     S
O665   Zn672   2.010   .     S
O666   Zn671   1.950   .     S
O667   Zn672   1.950   .     S
O668   Zn671   1.950   .     S
O669   Zn672   1.950   .     S
C673   O761    1.290   .     A
C673   C690    1.455   .     S
C673   O755    1.292   .     A
C674   H751    1.081   .     S
C674   C678    1.412   .     A
C674   C709    1.405   .     A
C675   O762    1.275   .     A
C675   C679    1.365   .     S
C675   O765    1.275   .     A
C676   C680    1.365   .     S
C676   O763    1.275   .     A
C676   O764    1.275   .     A
C677   C712    1.410   .     A
C677   C710    1.410   .     A
C678   C711    1.412   .     A
C678   C485    1.516   1_565 S
C680   C1063   1.165   .     S
C681   H717    1.084   .     S
C681   C686    1.384   .     A
C681   C692    1.392   .     A
C682   C687    1.383   .     A
C682   H728    1.083   .     S
C682   C693    1.393   .     A
C683   H739    1.084   .     S
C683   C693    1.394   .     A
C683   C688    1.384   .     A
C684   O759    1.290   .     A
C684   O760    1.291   .     A
C684   C691    1.455   .     S
C685   H747    1.083   .     S
C685   C692    1.394   .     A
C685   C689    1.383   .     A
C686   C690    1.415   .     A
C686   O766    1.383   .     S
C687   C691    1.418   .     A
C687   O756    1.385   .     S
C688   O757    1.384   .     S
C688   C691    1.414   .     A
C689   O758    1.385   .     S
C689   C690    1.417   .     A
C693   C596    1.447   1_655 S
C694   O766    1.420   .     S
C694   H718    1.119   .     S
C694   H752    1.111   .     S
C694   C696    1.529   .     S
C695   N753    1.366   .     A
C695   C710    1.405   .     A
C695   F713    1.354   .     S
C696   H720    1.111   .     S
C696   C697    1.526   .     S
C696   H719    1.111   .     S
C697   H722    1.109   .     S
C697   H723    1.111   .     S
C697   H721    1.111   .     S
C698   C699    1.532   .     S
C698   H724    1.109   .     S
C698   H725    1.118   .     S
C698   O756    1.419   .     S
C699   H726    1.112   .     S
C699   H727    1.110   .     S
C699   C700    1.527   .     S
C700   H729    1.111   .     S
C700   H731    1.111   .     S
C700   H730    1.111   .     S
C701   O757    1.419   .     S
C701   H733    1.118   .     S
C701   C702    1.528   .     S
C701   H732    1.111   .     S
C702   C703    1.527   .     S
C702   H735    1.112   .     S
C702   H734    1.111   .     S
C703   H738    1.111   .     S
C703   H737    1.108   .     S
C703   H736    1.111   .     S
C704   H740    1.109   .     S
C704   O758    1.418   .     S
C704   H741    1.118   .     S
C704   C705    1.532   .     S
C705   H742    1.111   .     S
C705   C707    1.527   .     S
C705   H743    1.110   .     S
C706   F714    1.355   .     S
C706   C711    1.405   .     A
C706   N754    1.362   .     A
C707   H746    1.111   .     S
C707   H744    1.111   .     S
C707   H745    1.110   .     S
C708   C712    1.405   .     A
C708   N753    1.366   .     A
C708   F715    1.354   .     S
C709   N754    1.362   .     A
C709   F716    1.354   .     S
C710   H748    1.081   .     S
C711   H749    1.081   .     S
C712   H750    1.081   .     S
N753   Zn768   2.007   .     S
N754   Zn767   2.007   .     S
O755   Zn767   2.010   .     S
O759   Zn768   2.010   .     S
O760   Zn767   2.010   .     S
O761   Zn768   2.010   .     S
O762   Zn767   1.950   .     S
O763   Zn768   1.950   .     S
O764   Zn767   1.950   .     S
O765   Zn768   1.950   .     S
C769   O857    1.290   .     A
C769   C786    1.455   .     S
C769   O851    1.292   .     A
C770   H847    1.081   .     S
C770   C774    1.412   .     A
C770   C805    1.405   .     A
C771   O858    1.275   .     A
C771   C775    1.365   .     S
C771   O861    1.275   .     A
C772   C776    1.365   .     S
C772   O859    1.275   .     A
C772   O860    1.275   .     A
C773   C808    1.410   .     A
C773   C806    1.410   .     A
C773   C966    1.516   1_545 S
C774   C807    1.412   .     A
C774   C965    1.516   .     S
C776   C7      1.165   1_556 S
C777   H813    1.084   .     S
C777   C782    1.384   .     A
C777   C788    1.392   .     A
C778   C783    1.383   .     A
C778   H824    1.083   .     S
C778   C789    1.393   .     A
C779   H835    1.084   .     S
C779   C789    1.394   .     A
C779   C784    1.384   .     A
C780   O855    1.290   .     A
C780   O856    1.291   .     A
C780   C787    1.455   .     S
C781   H843    1.083   .     S
C781   C788    1.394   .     A
C781   C785    1.383   .     A
C782   C786    1.415   .     A
C782   O862    1.383   .     S
C783   C787    1.418   .     A
C783   O852    1.385   .     S
C784   O853    1.384   .     S
C784   C787    1.414   .     A
C785   O854    1.385   .     S
C785   C786    1.417   .     A
C788   C885    1.447   1_455 S
C789   C884    1.447   .     S
C790   O862    1.420   .     S
C790   H814    1.119   .     S
C790   H848    1.111   .     S
C790   C792    1.529   .     S
C791   N849    1.366   .     A
C791   C806    1.405   .     A
C791   F809    1.354   .     S
C792   H816    1.111   .     S
C792   C793    1.526   .     S
C792   H815    1.111   .     S
C793   H818    1.109   .     S
C793   H819    1.111   .     S
C793   H817    1.111   .     S
C794   C795    1.532   .     S
C794   H820    1.109   .     S
C794   H821    1.118   .     S
C794   O852    1.419   .     S
C795   H822    1.112   .     S
C795   H823    1.110   .     S
C795   C796    1.527   .     S
C796   H825    1.111   .     S
C796   H827    1.111   .     S
C796   H826    1.111   .     S
C797   O853    1.419   .     S
C797   H829    1.118   .     S
C797   C798    1.528   .     S
C797   H828    1.111   .     S
C798   C799    1.527   .     S
C798   H831    1.112   .     S
C798   H830    1.111   .     S
C799   H834    1.111   .     S
C799   H833    1.108   .     S
C799   H832    1.111   .     S
C800   H836    1.109   .     S
C800   O854    1.418   .     S
C800   H837    1.118   .     S
C800   C801    1.532   .     S
C801   H838    1.111   .     S
C801   C803    1.527   .     S
C801   H839    1.110   .     S
C802   F810    1.355   .     S
C802   C807    1.405   .     A
C802   N850    1.362   .     A
C803   H842    1.111   .     S
C803   H840    1.111   .     S
C803   H841    1.110   .     S
C804   C808    1.405   .     A
C804   N849    1.366   .     A
C804   F811    1.354   .     S
C805   N850    1.362   .     A
C805   F812    1.354   .     S
C806   H844    1.081   .     S
C807   H845    1.081   .     S
C808   H846    1.081   .     S
N849   Zn864   2.007   .     S
N850   Zn863   2.007   .     S
O851   Zn863   2.010   .     S
O855   Zn864   2.010   .     S
O856   Zn863   2.010   .     S
O857   Zn864   2.010   .     S
O858   Zn863   1.950   .     S
O859   Zn864   1.950   .     S
O860   Zn863   1.950   .     S
O861   Zn864   1.950   .     S
C865   O953    1.290   .     A
C865   C882    1.455   .     S
C865   O947    1.292   .     A
C866   H943    1.081   .     S
C866   C870    1.412   .     A
C866   C901    1.405   .     A
C867   O954    1.275   .     A
C867   C871    1.365   .     S
C867   O957    1.275   .     A
C868   C872    1.365   .     S
C868   O955    1.275   .     A
C868   O956    1.275   .     A
C869   C904    1.410   .     A
C869   C902    1.410   .     A
C869   C1062   1.516   1_545 S
C870   C903    1.412   .     A
C870   C1061   1.516   .     S
C872   C103    1.165   1_556 S
C873   H909    1.084   .     S
C873   C878    1.384   .     A
C873   C884    1.392   .     A
C874   C879    1.383   .     A
C874   H920    1.083   .     S
C874   C885    1.393   .     A
C875   H931    1.084   .     S
C875   C885    1.394   .     A
C875   C880    1.384   .     A
C876   O951    1.290   .     A
C876   O952    1.291   .     A
C876   C883    1.455   .     S
C877   H939    1.083   .     S
C877   C884    1.394   .     A
C877   C881    1.383   .     A
C878   C882    1.415   .     A
C878   O958    1.383   .     S
C879   C883    1.418   .     A
C879   O948    1.385   .     S
C880   O949    1.384   .     S
C880   C883    1.414   .     A
C881   O950    1.385   .     S
C881   C882    1.417   .     A
C885   C788    1.447   1_655 S
C886   O958    1.420   .     S
C886   H910    1.119   .     S
C886   H944    1.111   .     S
C886   C888    1.529   .     S
C887   N945    1.366   .     A
C887   C902    1.405   .     A
C887   F905    1.354   .     S
C888   H912    1.111   .     S
C888   C889    1.526   .     S
C888   H911    1.111   .     S
C889   H914    1.109   .     S
C889   H915    1.111   .     S
C889   H913    1.111   .     S
C890   C891    1.532   .     S
C890   H916    1.109   .     S
C890   H917    1.118   .     S
C890   O948    1.419   .     S
C891   H918    1.112   .     S
C891   H919    1.110   .     S
C891   C892    1.527   .     S
C892   H921    1.111   .     S
C892   H923    1.111   .     S
C892   H922    1.111   .     S
C893   O949    1.419   .     S
C893   H925    1.118   .     S
C893   C894    1.528   .     S
C893   H924    1.111   .     S
C894   C895    1.527   .     S
C894   H927    1.112   .     S
C894   H926    1.111   .     S
C895   H930    1.111   .     S
C895   H929    1.108   .     S
C895   H928    1.111   .     S
C896   H932    1.109   .     S
C896   O950    1.418   .     S
C896   H933    1.118   .     S
C896   C897    1.532   .     S
C897   H934    1.111   .     S
C897   C899    1.527   .     S
C897   H935    1.110   .     S
C898   F906    1.355   .     S
C898   C903    1.405   .     A
C898   N946    1.362   .     A
C899   H938    1.111   .     S
C899   H936    1.111   .     S
C899   H937    1.110   .     S
C900   C904    1.405   .     A
C900   N945    1.366   .     A
C900   F907    1.354   .     S
C901   N946    1.362   .     A
C901   F908    1.354   .     S
C902   H940    1.081   .     S
C903   H941    1.081   .     S
C904   H942    1.081   .     S
N945   Zn960   2.007   .     S
N946   Zn959   2.007   .     S
O947   Zn959   2.010   .     S
O951   Zn960   2.010   .     S
O952   Zn959   2.010   .     S
O953   Zn960   2.010   .     S
O954   Zn959   1.950   .     S
O955   Zn960   1.950   .     S
O956   Zn959   1.950   .     S
O957   Zn960   1.950   .     S
C961   O1049   1.290   .     A
C961   C978    1.455   .     S
C961   O1043   1.292   .     A
C962   H1039   1.081   .     S
C962   C966    1.412   .     A
C962   C997    1.405   .     A
C963   O1050   1.275   .     A
C963   C967    1.365   .     S
C963   O1053   1.275   .     A
C964   C968    1.365   .     S
C964   O1051   1.275   .     A
C964   O1052   1.275   .     A
C965   C1000   1.410   .     A
C965   C998    1.410   .     A
C966   C999    1.412   .     A
C966   C773    1.516   1_565 S
C968   C199    1.165   1_556 S
C969   H1005   1.084   .     S
C969   C974    1.384   .     A
C969   C980    1.392   .     A
C970   C975    1.383   .     A
C970   H1016   1.083   .     S
C970   C981    1.393   .     A
C971   H1027   1.084   .     S
C971   C981    1.394   .     A
C971   C976    1.384   .     A
C972   O1047   1.290   .     A
C972   O1048   1.291   .     A
C972   C979    1.455   .     S
C973   H1035   1.083   .     S
C973   C980    1.394   .     A
C973   C977    1.383   .     A
C974   C978    1.415   .     A
C974   O1054   1.383   .     S
C975   C979    1.418   .     A
C975   O1044   1.385   .     S
C976   O1045   1.384   .     S
C976   C979    1.414   .     A
C977   O1046   1.385   .     S
C977   C978    1.417   .     A
C980   C1077   1.447   1_455 S
C981   C1076   1.447   .     S
C982   O1054   1.420   .     S
C982   H1006   1.119   .     S
C982   H1040   1.111   .     S
C982   C984    1.529   .     S
C983   N1041   1.366   .     A
C983   C998    1.405   .     A
C983   F1001   1.354   .     S
C984   H1008   1.111   .     S
C984   C985    1.526   .     S
C984   H1007   1.111   .     S
C985   H1010   1.109   .     S
C985   H1011   1.111   .     S
C985   H1009   1.111   .     S
C986   C987    1.532   .     S
C986   H1012   1.109   .     S
C986   H1013   1.118   .     S
C986   O1044   1.419   .     S
C987   H1014   1.112   .     S
C987   H1015   1.110   .     S
C987   C988    1.527   .     S
C988   H1017   1.111   .     S
C988   H1019   1.111   .     S
C988   H1018   1.111   .     S
C989   O1045   1.419   .     S
C989   H1021   1.118   .     S
C989   C990    1.528   .     S
C989   H1020   1.111   .     S
C990   C991    1.527   .     S
C990   H1023   1.112   .     S
C990   H1022   1.111   .     S
C991   H1026   1.111   .     S
C991   H1025   1.108   .     S
C991   H1024   1.111   .     S
C992   H1028   1.109   .     S
C992   O1046   1.418   .     S
C992   H1029   1.118   .     S
C992   C993    1.532   .     S
C993   H1030   1.111   .     S
C993   C995    1.527   .     S
C993   H1031   1.110   .     S
C994   F1002   1.355   .     S
C994   C999    1.405   .     A
C994   N1042   1.362   .     A
C995   H1034   1.111   .     S
C995   H1032   1.111   .     S
C995   H1033   1.110   .     S
C996   C1000   1.405   .     A
C996   N1041   1.366   .     A
C996   F1003   1.354   .     S
C997   N1042   1.362   .     A
C997   F1004   1.354   .     S
C998   H1036   1.081   .     S
C999   H1037   1.081   .     S
C1000  H1038   1.081   .     S
N1041  Zn1056  2.007   .     S
N1042  Zn1055  2.007   .     S
O1043  Zn1055  2.010   .     S
O1047  Zn1056  2.010   .     S
O1048  Zn1055  2.010   .     S
O1049  Zn1056  2.010   .     S
O1050  Zn1055  1.950   .     S
O1051  Zn1056  1.950   .     S
O1052  Zn1055  1.950   .     S
O1053  Zn1056  1.950   .     S
C1057  O1145   1.290   .     A
C1057  C1074   1.455   .     S
C1057  O1139   1.292   .     A
C1058  H1135   1.081   .     S
C1058  C1062   1.412   .     A
C1058  C1093   1.405   .     A
C1059  O1146   1.275   .     A
C1059  C1063   1.365   .     S
C1059  O1149   1.275   .     A
C1060  C1064   1.365   .     S
C1060  O1147   1.275   .     A
C1060  O1148   1.275   .     A
C1061  C1096   1.410   .     A
C1061  C1094   1.410   .     A
C1062  C1095   1.412   .     A
C1062  C869    1.516   1_565 S
C1064  C295    1.165   1_556 S
C1065  H1101   1.084   .     S
C1065  C1070   1.384   .     A
C1065  C1076   1.392   .     A
C1066  C1071   1.383   .     A
C1066  H1112   1.083   .     S
C1066  C1077   1.393   .     A
C1067  H1123   1.084   .     S
C1067  C1077   1.394   .     A
C1067  C1072   1.384   .     A
C1068  O1143   1.290   .     A
C1068  O1144   1.291   .     A
C1068  C1075   1.455   .     S
C1069  H1131   1.083   .     S
C1069  C1076   1.394   .     A
C1069  C1073   1.383   .     A
C1070  C1074   1.415   .     A
C1070  O1150   1.383   .     S
C1071  C1075   1.418   .     A
C1071  O1140   1.385   .     S
C1072  O1141   1.384   .     S
C1072  C1075   1.414   .     A
C1073  O1142   1.385   .     S
C1073  C1074   1.417   .     A
C1077  C980    1.447   1_655 S
C1078  O1150   1.420   .     S
C1078  H1102   1.119   .     S
C1078  H1136   1.111   .     S
C1078  C1080   1.529   .     S
C1079  N1137   1.366   .     A
C1079  C1094   1.405   .     A
C1079  F1097   1.354   .     S
C1080  H1104   1.111   .     S
C1080  C1081   1.526   .     S
C1080  H1103   1.111   .     S
C1081  H1106   1.109   .     S
C1081  H1107   1.111   .     S
C1081  H1105   1.111   .     S
C1082  C1083   1.532   .     S
C1082  H1108   1.109   .     S
C1082  H1109   1.118   .     S
C1082  O1140   1.419   .     S
C1083  H1110   1.112   .     S
C1083  H1111   1.110   .     S
C1083  C1084   1.527   .     S
C1084  H1113   1.111   .     S
C1084  H1115   1.111   .     S
C1084  H1114   1.111   .     S
C1085  O1141   1.419   .     S
C1085  H1117   1.118   .     S
C1085  C1086   1.528   .     S
C1085  H1116   1.111   .     S
C1086  C1087   1.527   .     S
C1086  H1119   1.112   .     S
C1086  H1118   1.111   .     S
C1087  H1122   1.111   .     S
C1087  H1121   1.108   .     S
C1087  H1120   1.111   .     S
C1088  H1124   1.109   .     S
C1088  O1142   1.418   .     S
C1088  H1125   1.118   .     S
C1088  C1089   1.532   .     S
C1089  H1126   1.111   .     S
C1089  C1091   1.527   .     S
C1089  H1127   1.110   .     S
C1090  F1098   1.355   .     S
C1090  C1095   1.405   .     A
C1090  N1138   1.362   .     A
C1091  H1130   1.111   .     S
C1091  H1128   1.111   .     S
C1091  H1129   1.110   .     S
C1092  C1096   1.405   .     A
C1092  N1137   1.366   .     A
C1092  F1099   1.354   .     S
C1093  N1138   1.362   .     A
C1093  F1100   1.354   .     S
C1094  H1132   1.081   .     S
C1095  H1133   1.081   .     S
C1096  H1134   1.081   .     S
N1137  Zn1152  2.007   .     S
N1138  Zn1151  2.007   .     S
O1139  Zn1151  2.010   .     S
O1143  Zn1152  2.010   .     S
O1144  Zn1151  2.010   .     S
O1145  Zn1152  2.010   .     S
O1146  Zn1151  1.950   .     S
O1147  Zn1152  1.950   .     S
O1148  Zn1151  1.950   .     S
O1149  Zn1152  1.950   .     S
