data_str_m3_o1_o5_pcu_sym.53
_audit_creation_date              2020-01-03
_audit_creation_method            'Materials Studio'
_symmetry_space_group_name_H-M    'P1'
_symmetry_Int_Tables_number       1
_symmetry_cell_setting            triclinic
loop_
_symmetry_equiv_pos_as_xyz
  x,y,z
_cell_length_a                    32.3218
_cell_length_b                    29.6883
_cell_length_c                    26.6808
_cell_angle_alpha                 89.9756
_cell_angle_beta                  89.8266
_cell_angle_gamma                 89.8086
loop_
_atom_site_label
_atom_site_type_symbol
_atom_site_fract_x
_atom_site_fract_y
_atom_site_fract_z
_atom_site_U_iso_or_equiv
_atom_site_adp_type
_atom_site_occupancy
C1     C     0.08686   0.16673   0.16639   0.00000  Uiso   1.00
C2     C     0.02138   0.20279   0.18815   0.00000  Uiso   1.00
C3     C     0.29123   0.16667   0.16626   0.00000  Uiso   1.00
C4     C     0.04296   0.16690   0.16595   0.00000  Uiso   1.00
C5     C     0.18496   0.02382   0.20457   0.00000  Uiso   1.00
C6     C     0.14821   0.30952   0.12890   0.00000  Uiso   1.00
C7     C     0.14828   0.02400   0.12885   0.00000  Uiso   1.00
C8     C     0.18511   0.30934   0.20447   0.00000  Uiso   1.00
C9     C     0.05151   0.11529   0.06800   0.00000  Uiso   1.00
C10    C     0.05558   0.07664   0.03051   0.00000  Uiso   1.00
C11    C     0.07687   0.09172   0.31561   0.00000  Uiso   1.00
C12    C     0.24678   0.16662   0.16657   0.00000  Uiso   1.00
C13    C     0.28880   0.26864   0.13849   0.00000  Uiso   1.00
C14    C     0.32977   0.28581   0.11663   0.00000  Uiso   1.00
C15    C     0.32231   0.31559   0.07102   0.00000  Uiso   1.00
C16    C     0.29050   0.06385   0.19254   0.00000  Uiso   1.00
C17    C     0.33206   0.05113   0.21662   0.00000  Uiso   1.00
C18    C     0.32572   0.01848   0.25996   0.00000  Uiso   1.00
C19    C     0.05000   0.21850   0.26393   0.00000  Uiso   1.00
C20    C     0.05568   0.25730   0.30073   0.00000  Uiso   1.00
C21    C     0.07320   0.24111   0.01724   0.00000  Uiso   1.00
C22    C     0.16745   0.16667   0.07295   0.00000  Uiso   1.00
C23    C     0.16738   0.16667   0.26038   0.00000  Uiso   1.00
C24    C     0.16843   0.16666   0.02182   0.00000  Uiso   1.00
C25    C     0.16840   0.16671   0.31150   0.00000  Uiso   1.00
C26    C     0.02176   0.13107   0.14352   0.00000  Uiso   1.00
C27    C     0.31287   0.20619   0.17929   0.00000  Uiso   1.00
C28    C     0.31328   0.12740   0.15267   0.00000  Uiso   1.00
H29    H     0.19969   0.04170   0.23494   0.00000  Uiso   1.00
H30    H     0.07837   0.06333   0.28865   0.00000  Uiso   1.00
H31    H     0.10897   0.10222   0.32377   0.00000  Uiso   1.00
H32    H     0.26732   0.29749   0.14363   0.00000  Uiso   1.00
H33    H     0.27397   0.24600   0.11055   0.00000  Uiso   1.00
H34    H     0.01371   0.30482   0.14539   0.00000  Uiso   1.00
H35    H     0.01580   0.25675   0.10477   0.00000  Uiso   1.00
H36    H     0.30371   0.29742   0.04257   0.00000  Uiso   1.00
H37    H     0.01913   0.32445   0.05401   0.00000  Uiso   1.00
H38    H     0.30593   0.01366   0.08208   0.00000  Uiso   1.00
H39    H     0.27255   0.03271   0.18594   0.00000  Uiso   1.00
H40    H     0.13344   0.29164   0.09859   0.00000  Uiso   1.00
H41    H     0.27237   0.08429   0.21985   0.00000  Uiso   1.00
H42    H     0.01976   0.03587   0.18846   0.00000  Uiso   1.00
H43    H     0.01377   0.08189   0.23153   0.00000  Uiso   1.00
H44    H     0.30409   0.03300   0.28812   0.00000  Uiso   1.00
H45    H     0.02251   0.01221   0.27830   0.00000  Uiso   1.00
H46    H     0.31322   0.31936   0.24611   0.00000  Uiso   1.00
H47    H     0.07913   0.19859   0.26210   0.00000  Uiso   1.00
H48    H     0.02482   0.19652   0.27894   0.00000  Uiso   1.00
H49    H     0.07691   0.28283   0.28438   0.00000  Uiso   1.00
H50    H     0.02508   0.27305   0.30785   0.00000  Uiso   1.00
H51    H     0.13369   0.04206   0.09849   0.00000  Uiso   1.00
H52    H     0.05264   0.21542   0.03431   0.00000  Uiso   1.00
H53    H     0.07587   0.27000   0.04335   0.00000  Uiso   1.00
H54    H     0.10444   0.22659   0.01157   0.00000  Uiso   1.00
H55    H     0.20007   0.29132   0.23468   0.00000  Uiso   1.00
H56    H     0.08136   0.13360   0.07012   0.00000  Uiso   1.00
H57    H     0.02734   0.13883   0.05333   0.00000  Uiso   1.00
H58    H     0.07372   0.04863   0.04724   0.00000  Uiso   1.00
H59    H     0.02418   0.06417   0.02134   0.00000  Uiso   1.00
H60    H     0.05969   0.12009   0.29820   0.00000  Uiso   1.00
N61    N     0.16667   0.28573   0.16667   0.00000  Uiso   1.00
N62    N     0.16667   0.04760   0.16667   0.00000  Uiso   1.00
O63    O     0.10559   0.20487   0.16666   0.00000  Uiso   1.00
O64    O     0.29388   0.24761   0.18598   0.00000  Uiso   1.00
O65    O     0.29478   0.08596   0.14553   0.00000  Uiso   1.00
O66    O     0.04065   0.23606   0.21586   0.00000  Uiso   1.00
O67    O     0.22774   0.12846   0.16667   0.00000  Uiso   1.00
O68    O     0.22774   0.20487   0.16667   0.00000  Uiso   1.00
O69    O     0.10559   0.12846   0.16666   0.00000  Uiso   1.00
O70    O     0.16667   0.20488   0.09511   0.00000  Uiso   1.00
O71    O     0.16666   0.12845   0.23822   0.00000  Uiso   1.00
O72    O     0.16666   0.20488   0.23822   0.00000  Uiso   1.00
O73    O     0.16667   0.12845   0.09511   0.00000  Uiso   1.00
O74    O     0.04143   0.09775   0.11590   0.00000  Uiso   1.00
Zn75   Zn    0.16667   0.21771   0.16667   0.00000  Uiso   1.00
Zn76   Zn    0.16667   0.11563   0.16667   0.00000  Uiso   1.00
C77    C     0.42019   0.16673   0.16639   0.00000  Uiso   1.00
C78    C     0.35471   0.20279   0.18815   0.00000  Uiso   1.00
C79    C     0.62456   0.16667   0.16626   0.00000  Uiso   1.00
C80    C     0.37629   0.16690   0.16595   0.00000  Uiso   1.00
C81    C     0.51829   0.02382   0.20457   0.00000  Uiso   1.00
C82    C     0.48154   0.30952   0.12890   0.00000  Uiso   1.00
C83    C     0.48162   0.02400   0.12885   0.00000  Uiso   1.00
C84    C     0.51844   0.30934   0.20447   0.00000  Uiso   1.00
C85    C     0.38484   0.11529   0.06800   0.00000  Uiso   1.00
C86    C     0.38891   0.07664   0.03051   0.00000  Uiso   1.00
C87    C     0.41021   0.09172   0.31561   0.00000  Uiso   1.00
C88    C     0.58012   0.16662   0.16657   0.00000  Uiso   1.00
C89    C     0.62213   0.26864   0.13849   0.00000  Uiso   1.00
C90    C     0.66311   0.28581   0.11663   0.00000  Uiso   1.00
C91    C     0.65564   0.31559   0.07102   0.00000  Uiso   1.00
C92    C     0.62384   0.06385   0.19254   0.00000  Uiso   1.00
C93    C     0.66540   0.05113   0.21662   0.00000  Uiso   1.00
C94    C     0.65905   0.01848   0.25996   0.00000  Uiso   1.00
C95    C     0.38334   0.21850   0.26393   0.00000  Uiso   1.00
C96    C     0.38902   0.25730   0.30073   0.00000  Uiso   1.00
C97    C     0.40654   0.24111   0.01724   0.00000  Uiso   1.00
C98    C     0.50078   0.16667   0.07295   0.00000  Uiso   1.00
C99    C     0.50071   0.16667   0.26038   0.00000  Uiso   1.00
C100   C     0.50176   0.16666   0.02182   0.00000  Uiso   1.00
C101   C     0.50173   0.16671   0.31150   0.00000  Uiso   1.00
C102   C     0.35509   0.13107   0.14352   0.00000  Uiso   1.00
C103   C     0.64621   0.20619   0.17929   0.00000  Uiso   1.00
C104   C     0.64661   0.12740   0.15267   0.00000  Uiso   1.00
H105   H     0.53303   0.04170   0.23494   0.00000  Uiso   1.00
H106   H     0.41170   0.06333   0.28865   0.00000  Uiso   1.00
H107   H     0.44230   0.10222   0.32377   0.00000  Uiso   1.00
H108   H     0.60065   0.29749   0.14363   0.00000  Uiso   1.00
H109   H     0.60730   0.24600   0.11055   0.00000  Uiso   1.00
H110   H     0.34704   0.30482   0.14539   0.00000  Uiso   1.00
H111   H     0.34913   0.25675   0.10477   0.00000  Uiso   1.00
H112   H     0.63704   0.29742   0.04257   0.00000  Uiso   1.00
H113   H     0.35246   0.32445   0.05401   0.00000  Uiso   1.00
H114   H     0.63927   0.01366   0.08208   0.00000  Uiso   1.00
H115   H     0.60588   0.03271   0.18594   0.00000  Uiso   1.00
H116   H     0.46678   0.29164   0.09859   0.00000  Uiso   1.00
H117   H     0.60570   0.08429   0.21985   0.00000  Uiso   1.00
H118   H     0.35309   0.03587   0.18846   0.00000  Uiso   1.00
H119   H     0.34711   0.08189   0.23153   0.00000  Uiso   1.00
H120   H     0.63742   0.03300   0.28812   0.00000  Uiso   1.00
H121   H     0.35584   0.01221   0.27830   0.00000  Uiso   1.00
H122   H     0.64655   0.31936   0.24611   0.00000  Uiso   1.00
H123   H     0.41247   0.19859   0.26210   0.00000  Uiso   1.00
H124   H     0.35815   0.19652   0.27894   0.00000  Uiso   1.00
H125   H     0.41024   0.28283   0.28438   0.00000  Uiso   1.00
H126   H     0.35841   0.27305   0.30785   0.00000  Uiso   1.00
H127   H     0.46703   0.04206   0.09849   0.00000  Uiso   1.00
H128   H     0.38598   0.21542   0.03431   0.00000  Uiso   1.00
H129   H     0.40920   0.27000   0.04335   0.00000  Uiso   1.00
H130   H     0.43777   0.22659   0.01157   0.00000  Uiso   1.00
H131   H     0.53340   0.29132   0.23468   0.00000  Uiso   1.00
H132   H     0.41469   0.13360   0.07012   0.00000  Uiso   1.00
H133   H     0.36067   0.13883   0.05333   0.00000  Uiso   1.00
H134   H     0.40705   0.04863   0.04724   0.00000  Uiso   1.00
H135   H     0.35751   0.06417   0.02134   0.00000  Uiso   1.00
H136   H     0.39303   0.12009   0.29820   0.00000  Uiso   1.00
N137   N     0.50000   0.28573   0.16667   0.00000  Uiso   1.00
N138   N     0.50000   0.04760   0.16667   0.00000  Uiso   1.00
O139   O     0.43892   0.20487   0.16666   0.00000  Uiso   1.00
O140   O     0.62721   0.24761   0.18598   0.00000  Uiso   1.00
O141   O     0.62811   0.08596   0.14553   0.00000  Uiso   1.00
O142   O     0.37399   0.23606   0.21586   0.00000  Uiso   1.00
O143   O     0.56108   0.12846   0.16667   0.00000  Uiso   1.00
O144   O     0.56108   0.20487   0.16667   0.00000  Uiso   1.00
O145   O     0.43892   0.12846   0.16666   0.00000  Uiso   1.00
O146   O     0.50000   0.20488   0.09511   0.00000  Uiso   1.00
O147   O     0.50000   0.12845   0.23822   0.00000  Uiso   1.00
O148   O     0.50000   0.20488   0.23822   0.00000  Uiso   1.00
O149   O     0.50000   0.12845   0.09511   0.00000  Uiso   1.00
O150   O     0.37476   0.09775   0.11590   0.00000  Uiso   1.00
Zn151  Zn    0.50000   0.21771   0.16667   0.00000  Uiso   1.00
Zn152  Zn    0.50000   0.11563   0.16667   0.00000  Uiso   1.00
C153   C     0.75353   0.16673   0.16639   0.00000  Uiso   1.00
C154   C     0.68804   0.20279   0.18815   0.00000  Uiso   1.00
C155   C     0.95790   0.16667   0.16626   0.00000  Uiso   1.00
C156   C     0.70962   0.16690   0.16595   0.00000  Uiso   1.00
C157   C     0.85163   0.02382   0.20457   0.00000  Uiso   1.00
C158   C     0.81487   0.30952   0.12890   0.00000  Uiso   1.00
C159   C     0.81495   0.02400   0.12885   0.00000  Uiso   1.00
C160   C     0.85178   0.30934   0.20447   0.00000  Uiso   1.00
C161   C     0.71817   0.11529   0.06800   0.00000  Uiso   1.00
C162   C     0.72225   0.07664   0.03051   0.00000  Uiso   1.00
C163   C     0.74354   0.09172   0.31561   0.00000  Uiso   1.00
C164   C     0.91345   0.16662   0.16657   0.00000  Uiso   1.00
C165   C     0.95546   0.26864   0.13849   0.00000  Uiso   1.00
C166   C     0.99644   0.28581   0.11663   0.00000  Uiso   1.00
C167   C     0.98898   0.31559   0.07102   0.00000  Uiso   1.00
C168   C     0.95717   0.06385   0.19254   0.00000  Uiso   1.00
C169   C     0.99873   0.05113   0.21662   0.00000  Uiso   1.00
C170   C     0.99239   0.01848   0.25996   0.00000  Uiso   1.00
C171   C     0.71667   0.21850   0.26393   0.00000  Uiso   1.00
C172   C     0.72235   0.25730   0.30073   0.00000  Uiso   1.00
C173   C     0.73987   0.24111   0.01724   0.00000  Uiso   1.00
C174   C     0.83411   0.16667   0.07295   0.00000  Uiso   1.00
C175   C     0.83405   0.16667   0.26038   0.00000  Uiso   1.00
C176   C     0.83509   0.16666   0.02182   0.00000  Uiso   1.00
C177   C     0.83507   0.16671   0.31150   0.00000  Uiso   1.00
C178   C     0.68843   0.13107   0.14352   0.00000  Uiso   1.00
C179   C     0.97954   0.20619   0.17929   0.00000  Uiso   1.00
C180   C     0.97995   0.12740   0.15267   0.00000  Uiso   1.00
H181   H     0.86636   0.04170   0.23494   0.00000  Uiso   1.00
H182   H     0.74503   0.06333   0.28865   0.00000  Uiso   1.00
H183   H     0.77563   0.10222   0.32377   0.00000  Uiso   1.00
H184   H     0.93398   0.29749   0.14363   0.00000  Uiso   1.00
H185   H     0.94064   0.24600   0.11055   0.00000  Uiso   1.00
H186   H     0.68037   0.30482   0.14539   0.00000  Uiso   1.00
H187   H     0.68247   0.25675   0.10477   0.00000  Uiso   1.00
H188   H     0.97038   0.29742   0.04257   0.00000  Uiso   1.00
H189   H     0.68580   0.32445   0.05401   0.00000  Uiso   1.00
H190   H     0.97260   0.01366   0.08208   0.00000  Uiso   1.00
H191   H     0.93921   0.03271   0.18594   0.00000  Uiso   1.00
H192   H     0.80011   0.29164   0.09859   0.00000  Uiso   1.00
H193   H     0.93904   0.08429   0.21985   0.00000  Uiso   1.00
H194   H     0.68643   0.03587   0.18846   0.00000  Uiso   1.00
H195   H     0.68044   0.08189   0.23153   0.00000  Uiso   1.00
H196   H     0.97076   0.03300   0.28812   0.00000  Uiso   1.00
H197   H     0.68918   0.01221   0.27830   0.00000  Uiso   1.00
H198   H     0.97989   0.31936   0.24611   0.00000  Uiso   1.00
H199   H     0.74580   0.19859   0.26210   0.00000  Uiso   1.00
H200   H     0.69149   0.19652   0.27894   0.00000  Uiso   1.00
H201   H     0.74357   0.28283   0.28438   0.00000  Uiso   1.00
H202   H     0.69175   0.27305   0.30785   0.00000  Uiso   1.00
H203   H     0.80036   0.04206   0.09849   0.00000  Uiso   1.00
H204   H     0.71931   0.21542   0.03431   0.00000  Uiso   1.00
H205   H     0.74253   0.27000   0.04335   0.00000  Uiso   1.00
H206   H     0.77111   0.22659   0.01157   0.00000  Uiso   1.00
H207   H     0.86673   0.29132   0.23468   0.00000  Uiso   1.00
H208   H     0.74802   0.13360   0.07012   0.00000  Uiso   1.00
H209   H     0.69400   0.13883   0.05333   0.00000  Uiso   1.00
H210   H     0.74039   0.04863   0.04724   0.00000  Uiso   1.00
H211   H     0.69084   0.06417   0.02134   0.00000  Uiso   1.00
H212   H     0.72636   0.12009   0.29820   0.00000  Uiso   1.00
N213   N     0.83333   0.28573   0.16667   0.00000  Uiso   1.00
N214   N     0.83333   0.04760   0.16667   0.00000  Uiso   1.00
O215   O     0.77226   0.20487   0.16666   0.00000  Uiso   1.00
O216   O     0.96054   0.24761   0.18598   0.00000  Uiso   1.00
O217   O     0.96144   0.08596   0.14553   0.00000  Uiso   1.00
O218   O     0.70732   0.23606   0.21586   0.00000  Uiso   1.00
O219   O     0.89441   0.12846   0.16667   0.00000  Uiso   1.00
O220   O     0.89441   0.20487   0.16667   0.00000  Uiso   1.00
O221   O     0.77226   0.12846   0.16666   0.00000  Uiso   1.00
O222   O     0.83334   0.20488   0.09511   0.00000  Uiso   1.00
O223   O     0.83333   0.12845   0.23822   0.00000  Uiso   1.00
O224   O     0.83333   0.20488   0.23822   0.00000  Uiso   1.00
O225   O     0.83334   0.12845   0.09511   0.00000  Uiso   1.00
O226   O     0.70810   0.09775   0.11590   0.00000  Uiso   1.00
Zn227  Zn    0.83333   0.21771   0.16667   0.00000  Uiso   1.00
Zn228  Zn    0.83333   0.11563   0.16667   0.00000  Uiso   1.00
C229   C     0.08686   0.50007   0.16639   0.00000  Uiso   1.00
C230   C     0.02138   0.53612   0.18815   0.00000  Uiso   1.00
C231   C     0.29123   0.50000   0.16626   0.00000  Uiso   1.00
C232   C     0.04296   0.50023   0.16595   0.00000  Uiso   1.00
C233   C     0.18496   0.35715   0.20457   0.00000  Uiso   1.00
C234   C     0.14821   0.64285   0.12890   0.00000  Uiso   1.00
C235   C     0.14828   0.35733   0.12885   0.00000  Uiso   1.00
C236   C     0.18511   0.64267   0.20447   0.00000  Uiso   1.00
C237   C     0.05151   0.44862   0.06800   0.00000  Uiso   1.00
C238   C     0.05558   0.40997   0.03051   0.00000  Uiso   1.00
C239   C     0.07687   0.42505   0.31561   0.00000  Uiso   1.00
C240   C     0.24678   0.49995   0.16657   0.00000  Uiso   1.00
C241   C     0.28880   0.60197   0.13849   0.00000  Uiso   1.00
C242   C     0.32977   0.61914   0.11663   0.00000  Uiso   1.00
C243   C     0.32231   0.64892   0.07102   0.00000  Uiso   1.00
C244   C     0.29050   0.39718   0.19254   0.00000  Uiso   1.00
C245   C     0.33206   0.38446   0.21662   0.00000  Uiso   1.00
C246   C     0.32572   0.35182   0.25996   0.00000  Uiso   1.00
C247   C     0.05000   0.55183   0.26393   0.00000  Uiso   1.00
C248   C     0.05568   0.59064   0.30073   0.00000  Uiso   1.00
C249   C     0.07320   0.57444   0.01724   0.00000  Uiso   1.00
C250   C     0.16745   0.50000   0.07295   0.00000  Uiso   1.00
C251   C     0.16738   0.50000   0.26038   0.00000  Uiso   1.00
C252   C     0.16843   0.49999   0.02182   0.00000  Uiso   1.00
C253   C     0.16840   0.50004   0.31150   0.00000  Uiso   1.00
C254   C     0.02176   0.46440   0.14352   0.00000  Uiso   1.00
C255   C     0.31287   0.53953   0.17929   0.00000  Uiso   1.00
C256   C     0.31328   0.46073   0.15267   0.00000  Uiso   1.00
H257   H     0.19969   0.37503   0.23494   0.00000  Uiso   1.00
H258   H     0.07837   0.39666   0.28865   0.00000  Uiso   1.00
H259   H     0.10897   0.43555   0.32377   0.00000  Uiso   1.00
H260   H     0.26732   0.63083   0.14363   0.00000  Uiso   1.00
H261   H     0.27397   0.57934   0.11055   0.00000  Uiso   1.00
H262   H     0.01371   0.63815   0.14539   0.00000  Uiso   1.00
H263   H     0.01580   0.59008   0.10477   0.00000  Uiso   1.00
H264   H     0.30371   0.63075   0.04257   0.00000  Uiso   1.00
H265   H     0.01913   0.65778   0.05401   0.00000  Uiso   1.00
H266   H     0.30593   0.34699   0.08208   0.00000  Uiso   1.00
H267   H     0.27255   0.36604   0.18594   0.00000  Uiso   1.00
H268   H     0.13344   0.62497   0.09859   0.00000  Uiso   1.00
H269   H     0.27237   0.41762   0.21985   0.00000  Uiso   1.00
H270   H     0.01976   0.36920   0.18846   0.00000  Uiso   1.00
H271   H     0.01377   0.41523   0.23153   0.00000  Uiso   1.00
H272   H     0.30409   0.36634   0.28812   0.00000  Uiso   1.00
H273   H     0.02251   0.34555   0.27830   0.00000  Uiso   1.00
H274   H     0.31322   0.65269   0.24611   0.00000  Uiso   1.00
H275   H     0.07913   0.53192   0.26210   0.00000  Uiso   1.00
H276   H     0.02482   0.52985   0.27894   0.00000  Uiso   1.00
H277   H     0.07691   0.61616   0.28438   0.00000  Uiso   1.00
H278   H     0.02508   0.60638   0.30785   0.00000  Uiso   1.00
H279   H     0.13369   0.37539   0.09849   0.00000  Uiso   1.00
H280   H     0.05264   0.54876   0.03431   0.00000  Uiso   1.00
H281   H     0.07587   0.60333   0.04335   0.00000  Uiso   1.00
H282   H     0.10444   0.55993   0.01157   0.00000  Uiso   1.00
H283   H     0.20007   0.62465   0.23468   0.00000  Uiso   1.00
H284   H     0.08136   0.46694   0.07012   0.00000  Uiso   1.00
H285   H     0.02734   0.47216   0.05333   0.00000  Uiso   1.00
H286   H     0.07372   0.38196   0.04724   0.00000  Uiso   1.00
H287   H     0.02418   0.39750   0.02134   0.00000  Uiso   1.00
H288   H     0.05969   0.45342   0.29820   0.00000  Uiso   1.00
N289   N     0.16667   0.61907   0.16667   0.00000  Uiso   1.00
N290   N     0.16667   0.38093   0.16667   0.00000  Uiso   1.00
O291   O     0.10559   0.53821   0.16666   0.00000  Uiso   1.00
O292   O     0.29388   0.58095   0.18598   0.00000  Uiso   1.00
O293   O     0.29478   0.41930   0.14553   0.00000  Uiso   1.00
O294   O     0.04065   0.56940   0.21586   0.00000  Uiso   1.00
O295   O     0.22774   0.46179   0.16667   0.00000  Uiso   1.00
O296   O     0.22774   0.53821   0.16667   0.00000  Uiso   1.00
O297   O     0.10559   0.46179   0.16666   0.00000  Uiso   1.00
O298   O     0.16667   0.53821   0.09511   0.00000  Uiso   1.00
O299   O     0.16666   0.46179   0.23822   0.00000  Uiso   1.00
O300   O     0.16666   0.53821   0.23822   0.00000  Uiso   1.00
O301   O     0.16667   0.46179   0.09511   0.00000  Uiso   1.00
O302   O     0.04143   0.43109   0.11590   0.00000  Uiso   1.00
Zn303  Zn    0.16667   0.55104   0.16667   0.00000  Uiso   1.00
Zn304  Zn    0.16667   0.44896   0.16667   0.00000  Uiso   1.00
C305   C     0.42019   0.50007   0.16639   0.00000  Uiso   1.00
C306   C     0.35471   0.53612   0.18815   0.00000  Uiso   1.00
C307   C     0.62456   0.50000   0.16626   0.00000  Uiso   1.00
C308   C     0.37629   0.50023   0.16595   0.00000  Uiso   1.00
C309   C     0.51829   0.35715   0.20457   0.00000  Uiso   1.00
C310   C     0.48154   0.64285   0.12890   0.00000  Uiso   1.00
C311   C     0.48162   0.35733   0.12885   0.00000  Uiso   1.00
C312   C     0.51844   0.64267   0.20447   0.00000  Uiso   1.00
C313   C     0.38484   0.44862   0.06800   0.00000  Uiso   1.00
C314   C     0.38891   0.40997   0.03051   0.00000  Uiso   1.00
C315   C     0.41021   0.42505   0.31561   0.00000  Uiso   1.00
C316   C     0.58012   0.49995   0.16657   0.00000  Uiso   1.00
C317   C     0.62213   0.60197   0.13849   0.00000  Uiso   1.00
C318   C     0.66311   0.61914   0.11663   0.00000  Uiso   1.00
C319   C     0.65564   0.64892   0.07102   0.00000  Uiso   1.00
C320   C     0.62384   0.39718   0.19254   0.00000  Uiso   1.00
C321   C     0.66540   0.38446   0.21662   0.00000  Uiso   1.00
C322   C     0.65905   0.35182   0.25996   0.00000  Uiso   1.00
C323   C     0.38334   0.55183   0.26393   0.00000  Uiso   1.00
C324   C     0.38902   0.59064   0.30073   0.00000  Uiso   1.00
C325   C     0.40654   0.57444   0.01724   0.00000  Uiso   1.00
C326   C     0.50078   0.50000   0.07295   0.00000  Uiso   1.00
C327   C     0.50071   0.50000   0.26038   0.00000  Uiso   1.00
C328   C     0.50176   0.49999   0.02182   0.00000  Uiso   1.00
C329   C     0.50173   0.50004   0.31150   0.00000  Uiso   1.00
C330   C     0.35509   0.46440   0.14352   0.00000  Uiso   1.00
C331   C     0.64621   0.53953   0.17929   0.00000  Uiso   1.00
C332   C     0.64661   0.46073   0.15267   0.00000  Uiso   1.00
H333   H     0.53303   0.37503   0.23494   0.00000  Uiso   1.00
H334   H     0.41170   0.39666   0.28865   0.00000  Uiso   1.00
H335   H     0.44230   0.43555   0.32377   0.00000  Uiso   1.00
H336   H     0.60065   0.63083   0.14363   0.00000  Uiso   1.00
H337   H     0.60730   0.57934   0.11055   0.00000  Uiso   1.00
H338   H     0.34704   0.63815   0.14539   0.00000  Uiso   1.00
H339   H     0.34913   0.59008   0.10477   0.00000  Uiso   1.00
H340   H     0.63704   0.63075   0.04257   0.00000  Uiso   1.00
H341   H     0.35246   0.65778   0.05401   0.00000  Uiso   1.00
H342   H     0.63927   0.34699   0.08208   0.00000  Uiso   1.00
H343   H     0.60588   0.36604   0.18594   0.00000  Uiso   1.00
H344   H     0.46678   0.62497   0.09859   0.00000  Uiso   1.00
H345   H     0.60570   0.41762   0.21985   0.00000  Uiso   1.00
H346   H     0.35309   0.36920   0.18846   0.00000  Uiso   1.00
H347   H     0.34711   0.41523   0.23153   0.00000  Uiso   1.00
H348   H     0.63742   0.36634   0.28812   0.00000  Uiso   1.00
H349   H     0.35584   0.34555   0.27830   0.00000  Uiso   1.00
H350   H     0.64655   0.65269   0.24611   0.00000  Uiso   1.00
H351   H     0.41247   0.53192   0.26210   0.00000  Uiso   1.00
H352   H     0.35815   0.52985   0.27894   0.00000  Uiso   1.00
H353   H     0.41024   0.61616   0.28438   0.00000  Uiso   1.00
H354   H     0.35841   0.60638   0.30785   0.00000  Uiso   1.00
H355   H     0.46703   0.37539   0.09849   0.00000  Uiso   1.00
H356   H     0.38598   0.54876   0.03431   0.00000  Uiso   1.00
H357   H     0.40920   0.60333   0.04335   0.00000  Uiso   1.00
H358   H     0.43777   0.55993   0.01157   0.00000  Uiso   1.00
H359   H     0.53340   0.62465   0.23468   0.00000  Uiso   1.00
H360   H     0.41469   0.46694   0.07012   0.00000  Uiso   1.00
H361   H     0.36067   0.47216   0.05333   0.00000  Uiso   1.00
H362   H     0.40705   0.38196   0.04724   0.00000  Uiso   1.00
H363   H     0.35751   0.39750   0.02134   0.00000  Uiso   1.00
H364   H     0.39303   0.45342   0.29820   0.00000  Uiso   1.00
N365   N     0.50000   0.61907   0.16667   0.00000  Uiso   1.00
N366   N     0.50000   0.38093   0.16667   0.00000  Uiso   1.00
O367   O     0.43892   0.53821   0.16666   0.00000  Uiso   1.00
O368   O     0.62721   0.58095   0.18598   0.00000  Uiso   1.00
O369   O     0.62811   0.41930   0.14553   0.00000  Uiso   1.00
O370   O     0.37399   0.56940   0.21586   0.00000  Uiso   1.00
O371   O     0.56108   0.46179   0.16667   0.00000  Uiso   1.00
O372   O     0.56108   0.53821   0.16667   0.00000  Uiso   1.00
O373   O     0.43892   0.46179   0.16666   0.00000  Uiso   1.00
O374   O     0.50000   0.53821   0.09511   0.00000  Uiso   1.00
O375   O     0.50000   0.46179   0.23822   0.00000  Uiso   1.00
O376   O     0.50000   0.53821   0.23822   0.00000  Uiso   1.00
O377   O     0.50000   0.46179   0.09511   0.00000  Uiso   1.00
O378   O     0.37476   0.43109   0.11590   0.00000  Uiso   1.00
Zn379  Zn    0.50000   0.55104   0.16667   0.00000  Uiso   1.00
Zn380  Zn    0.50000   0.44896   0.16667   0.00000  Uiso   1.00
C381   C     0.75353   0.50007   0.16639   0.00000  Uiso   1.00
C382   C     0.68804   0.53612   0.18815   0.00000  Uiso   1.00
C383   C     0.95790   0.50000   0.16626   0.00000  Uiso   1.00
C384   C     0.70962   0.50023   0.16595   0.00000  Uiso   1.00
C385   C     0.85163   0.35715   0.20457   0.00000  Uiso   1.00
C386   C     0.81487   0.64285   0.12890   0.00000  Uiso   1.00
C387   C     0.81495   0.35733   0.12885   0.00000  Uiso   1.00
C388   C     0.85178   0.64267   0.20447   0.00000  Uiso   1.00
C389   C     0.71817   0.44862   0.06800   0.00000  Uiso   1.00
C390   C     0.72225   0.40997   0.03051   0.00000  Uiso   1.00
C391   C     0.74354   0.42505   0.31561   0.00000  Uiso   1.00
C392   C     0.91345   0.49995   0.16657   0.00000  Uiso   1.00
C393   C     0.95546   0.60197   0.13849   0.00000  Uiso   1.00
C394   C     0.99644   0.61914   0.11663   0.00000  Uiso   1.00
C395   C     0.98898   0.64892   0.07102   0.00000  Uiso   1.00
C396   C     0.95717   0.39718   0.19254   0.00000  Uiso   1.00
C397   C     0.99873   0.38446   0.21662   0.00000  Uiso   1.00
C398   C     0.99239   0.35182   0.25996   0.00000  Uiso   1.00
C399   C     0.71667   0.55183   0.26393   0.00000  Uiso   1.00
C400   C     0.72235   0.59064   0.30073   0.00000  Uiso   1.00
C401   C     0.73987   0.57444   0.01724   0.00000  Uiso   1.00
C402   C     0.83411   0.50000   0.07295   0.00000  Uiso   1.00
C403   C     0.83405   0.50000   0.26038   0.00000  Uiso   1.00
C404   C     0.83509   0.49999   0.02182   0.00000  Uiso   1.00
C405   C     0.83507   0.50004   0.31150   0.00000  Uiso   1.00
C406   C     0.68843   0.46440   0.14352   0.00000  Uiso   1.00
C407   C     0.97954   0.53953   0.17929   0.00000  Uiso   1.00
C408   C     0.97995   0.46073   0.15267   0.00000  Uiso   1.00
H409   H     0.86636   0.37503   0.23494   0.00000  Uiso   1.00
H410   H     0.74503   0.39666   0.28865   0.00000  Uiso   1.00
H411   H     0.77563   0.43555   0.32377   0.00000  Uiso   1.00
H412   H     0.93398   0.63083   0.14363   0.00000  Uiso   1.00
H413   H     0.94064   0.57934   0.11055   0.00000  Uiso   1.00
H414   H     0.68037   0.63815   0.14539   0.00000  Uiso   1.00
H415   H     0.68247   0.59008   0.10477   0.00000  Uiso   1.00
H416   H     0.97038   0.63075   0.04257   0.00000  Uiso   1.00
H417   H     0.68580   0.65778   0.05401   0.00000  Uiso   1.00
H418   H     0.97260   0.34699   0.08208   0.00000  Uiso   1.00
H419   H     0.93921   0.36604   0.18594   0.00000  Uiso   1.00
H420   H     0.80011   0.62497   0.09859   0.00000  Uiso   1.00
H421   H     0.93904   0.41762   0.21985   0.00000  Uiso   1.00
H422   H     0.68643   0.36920   0.18846   0.00000  Uiso   1.00
H423   H     0.68044   0.41523   0.23153   0.00000  Uiso   1.00
H424   H     0.97076   0.36634   0.28812   0.00000  Uiso   1.00
H425   H     0.68918   0.34555   0.27830   0.00000  Uiso   1.00
H426   H     0.97989   0.65269   0.24611   0.00000  Uiso   1.00
H427   H     0.74580   0.53192   0.26210   0.00000  Uiso   1.00
H428   H     0.69149   0.52985   0.27894   0.00000  Uiso   1.00
H429   H     0.74357   0.61616   0.28438   0.00000  Uiso   1.00
H430   H     0.69175   0.60638   0.30785   0.00000  Uiso   1.00
H431   H     0.80036   0.37539   0.09849   0.00000  Uiso   1.00
H432   H     0.71931   0.54876   0.03431   0.00000  Uiso   1.00
H433   H     0.74253   0.60333   0.04335   0.00000  Uiso   1.00
H434   H     0.77111   0.55993   0.01157   0.00000  Uiso   1.00
H435   H     0.86673   0.62465   0.23468   0.00000  Uiso   1.00
H436   H     0.74802   0.46694   0.07012   0.00000  Uiso   1.00
H437   H     0.69400   0.47216   0.05333   0.00000  Uiso   1.00
H438   H     0.74039   0.38196   0.04724   0.00000  Uiso   1.00
H439   H     0.69084   0.39750   0.02134   0.00000  Uiso   1.00
H440   H     0.72636   0.45342   0.29820   0.00000  Uiso   1.00
N441   N     0.83333   0.61907   0.16667   0.00000  Uiso   1.00
N442   N     0.83333   0.38093   0.16667   0.00000  Uiso   1.00
O443   O     0.77226   0.53821   0.16666   0.00000  Uiso   1.00
O444   O     0.96054   0.58095   0.18598   0.00000  Uiso   1.00
O445   O     0.96144   0.41930   0.14553   0.00000  Uiso   1.00
O446   O     0.70732   0.56940   0.21586   0.00000  Uiso   1.00
O447   O     0.89441   0.46179   0.16667   0.00000  Uiso   1.00
O448   O     0.89441   0.53821   0.16667   0.00000  Uiso   1.00
O449   O     0.77226   0.46179   0.16666   0.00000  Uiso   1.00
O450   O     0.83334   0.53821   0.09511   0.00000  Uiso   1.00
O451   O     0.83333   0.46179   0.23822   0.00000  Uiso   1.00
O452   O     0.83333   0.53821   0.23822   0.00000  Uiso   1.00
O453   O     0.83334   0.46179   0.09511   0.00000  Uiso   1.00
O454   O     0.70810   0.43109   0.11590   0.00000  Uiso   1.00
Zn455  Zn    0.83333   0.55104   0.16667   0.00000  Uiso   1.00
Zn456  Zn    0.83333   0.44896   0.16667   0.00000  Uiso   1.00
C457   C     0.08686   0.83340   0.16639   0.00000  Uiso   1.00
C458   C     0.02138   0.86946   0.18815   0.00000  Uiso   1.00
C459   C     0.29123   0.83333   0.16626   0.00000  Uiso   1.00
C460   C     0.04296   0.83356   0.16595   0.00000  Uiso   1.00
C461   C     0.18496   0.69049   0.20457   0.00000  Uiso   1.00
C462   C     0.14821   0.97618   0.12890   0.00000  Uiso   1.00
C463   C     0.14828   0.69067   0.12885   0.00000  Uiso   1.00
C464   C     0.18511   0.97600   0.20447   0.00000  Uiso   1.00
C465   C     0.05151   0.78196   0.06800   0.00000  Uiso   1.00
C466   C     0.05558   0.74331   0.03051   0.00000  Uiso   1.00
C467   C     0.07687   0.75838   0.31561   0.00000  Uiso   1.00
C468   C     0.24678   0.83329   0.16657   0.00000  Uiso   1.00
C469   C     0.28880   0.93531   0.13849   0.00000  Uiso   1.00
C470   C     0.32977   0.95247   0.11663   0.00000  Uiso   1.00
C471   C     0.32231   0.98226   0.07102   0.00000  Uiso   1.00
C472   C     0.29050   0.73052   0.19254   0.00000  Uiso   1.00
C473   C     0.33206   0.71779   0.21662   0.00000  Uiso   1.00
C474   C     0.32572   0.68515   0.25996   0.00000  Uiso   1.00
C475   C     0.05000   0.88517   0.26393   0.00000  Uiso   1.00
C476   C     0.05568   0.92397   0.30073   0.00000  Uiso   1.00
C477   C     0.07320   0.90777   0.01724   0.00000  Uiso   1.00
C478   C     0.16745   0.83333   0.07295   0.00000  Uiso   1.00
C479   C     0.16738   0.83334   0.26038   0.00000  Uiso   1.00
C480   C     0.16843   0.83333   0.02182   0.00000  Uiso   1.00
C481   C     0.16840   0.83338   0.31150   0.00000  Uiso   1.00
C482   C     0.02176   0.79774   0.14352   0.00000  Uiso   1.00
C483   C     0.31287   0.87286   0.17929   0.00000  Uiso   1.00
C484   C     0.31328   0.79407   0.15267   0.00000  Uiso   1.00
H485   H     0.19969   0.70837   0.23494   0.00000  Uiso   1.00
H486   H     0.07837   0.72999   0.28865   0.00000  Uiso   1.00
H487   H     0.10897   0.76888   0.32377   0.00000  Uiso   1.00
H488   H     0.26732   0.96416   0.14363   0.00000  Uiso   1.00
H489   H     0.27397   0.91267   0.11055   0.00000  Uiso   1.00
H490   H     0.01371   0.97149   0.14539   0.00000  Uiso   1.00
H491   H     0.01580   0.92342   0.10477   0.00000  Uiso   1.00
H492   H     0.30371   0.96409   0.04257   0.00000  Uiso   1.00
H493   H     0.01913   0.99111   0.05401   0.00000  Uiso   1.00
H494   H     0.30593   0.68032   0.08208   0.00000  Uiso   1.00
H495   H     0.27255   0.69937   0.18594   0.00000  Uiso   1.00
H496   H     0.13344   0.95830   0.09859   0.00000  Uiso   1.00
H497   H     0.27237   0.75096   0.21985   0.00000  Uiso   1.00
H498   H     0.01976   0.70254   0.18846   0.00000  Uiso   1.00
H499   H     0.01377   0.74856   0.23153   0.00000  Uiso   1.00
H500   H     0.30409   0.69967   0.28812   0.00000  Uiso   1.00
H501   H     0.02251   0.67888   0.27830   0.00000  Uiso   1.00
H502   H     0.31322   0.98603   0.24611   0.00000  Uiso   1.00
H503   H     0.07913   0.86526   0.26210   0.00000  Uiso   1.00
H504   H     0.02482   0.86319   0.27894   0.00000  Uiso   1.00
H505   H     0.07691   0.94950   0.28438   0.00000  Uiso   1.00
H506   H     0.02508   0.93972   0.30785   0.00000  Uiso   1.00
H507   H     0.13369   0.70873   0.09849   0.00000  Uiso   1.00
H508   H     0.05264   0.88209   0.03431   0.00000  Uiso   1.00
H509   H     0.07587   0.93666   0.04335   0.00000  Uiso   1.00
H510   H     0.10444   0.89326   0.01157   0.00000  Uiso   1.00
H511   H     0.20007   0.95798   0.23468   0.00000  Uiso   1.00
H512   H     0.08136   0.80027   0.07012   0.00000  Uiso   1.00
H513   H     0.02734   0.80549   0.05333   0.00000  Uiso   1.00
H514   H     0.07372   0.71529   0.04724   0.00000  Uiso   1.00
H515   H     0.02418   0.73083   0.02134   0.00000  Uiso   1.00
H516   H     0.05969   0.78676   0.29820   0.00000  Uiso   1.00
N517   N     0.16667   0.95240   0.16667   0.00000  Uiso   1.00
N518   N     0.16667   0.71427   0.16667   0.00000  Uiso   1.00
O519   O     0.10559   0.87154   0.16666   0.00000  Uiso   1.00
O520   O     0.29388   0.91428   0.18598   0.00000  Uiso   1.00
O521   O     0.29478   0.75263   0.14553   0.00000  Uiso   1.00
O522   O     0.04065   0.90273   0.21586   0.00000  Uiso   1.00
O523   O     0.22774   0.79513   0.16667   0.00000  Uiso   1.00
O524   O     0.22774   0.87154   0.16667   0.00000  Uiso   1.00
O525   O     0.10559   0.79513   0.16666   0.00000  Uiso   1.00
O526   O     0.16667   0.87155   0.09511   0.00000  Uiso   1.00
O527   O     0.16666   0.79512   0.23822   0.00000  Uiso   1.00
O528   O     0.16666   0.87155   0.23822   0.00000  Uiso   1.00
O529   O     0.16667   0.79512   0.09511   0.00000  Uiso   1.00
O530   O     0.04143   0.76442   0.11590   0.00000  Uiso   1.00
Zn531  Zn    0.16667   0.88437   0.16667   0.00000  Uiso   1.00
Zn532  Zn    0.16667   0.78229   0.16667   0.00000  Uiso   1.00
C533   C     0.42019   0.83340   0.16639   0.00000  Uiso   1.00
C534   C     0.35471   0.86946   0.18815   0.00000  Uiso   1.00
C535   C     0.62456   0.83333   0.16626   0.00000  Uiso   1.00
C536   C     0.37629   0.83356   0.16595   0.00000  Uiso   1.00
C537   C     0.51829   0.69049   0.20457   0.00000  Uiso   1.00
C538   C     0.48154   0.97618   0.12890   0.00000  Uiso   1.00
C539   C     0.48162   0.69067   0.12885   0.00000  Uiso   1.00
C540   C     0.51844   0.97600   0.20447   0.00000  Uiso   1.00
C541   C     0.38484   0.78196   0.06800   0.00000  Uiso   1.00
C542   C     0.38891   0.74331   0.03051   0.00000  Uiso   1.00
C543   C     0.41021   0.75838   0.31561   0.00000  Uiso   1.00
C544   C     0.58012   0.83329   0.16657   0.00000  Uiso   1.00
C545   C     0.62213   0.93531   0.13849   0.00000  Uiso   1.00
C546   C     0.66311   0.95247   0.11663   0.00000  Uiso   1.00
C547   C     0.65564   0.98226   0.07102   0.00000  Uiso   1.00
C548   C     0.62384   0.73052   0.19254   0.00000  Uiso   1.00
C549   C     0.66540   0.71779   0.21662   0.00000  Uiso   1.00
C550   C     0.65905   0.68515   0.25996   0.00000  Uiso   1.00
C551   C     0.38334   0.88517   0.26393   0.00000  Uiso   1.00
C552   C     0.38902   0.92397   0.30073   0.00000  Uiso   1.00
C553   C     0.40654   0.90777   0.01724   0.00000  Uiso   1.00
C554   C     0.50078   0.83333   0.07295   0.00000  Uiso   1.00
C555   C     0.50071   0.83334   0.26038   0.00000  Uiso   1.00
C556   C     0.50176   0.83333   0.02182   0.00000  Uiso   1.00
C557   C     0.50173   0.83338   0.31150   0.00000  Uiso   1.00
C558   C     0.35509   0.79774   0.14352   0.00000  Uiso   1.00
C559   C     0.64621   0.87286   0.17929   0.00000  Uiso   1.00
C560   C     0.64661   0.79407   0.15267   0.00000  Uiso   1.00
H561   H     0.53303   0.70837   0.23494   0.00000  Uiso   1.00
H562   H     0.41170   0.72999   0.28865   0.00000  Uiso   1.00
H563   H     0.44230   0.76888   0.32377   0.00000  Uiso   1.00
H564   H     0.60065   0.96416   0.14363   0.00000  Uiso   1.00
H565   H     0.60730   0.91267   0.11055   0.00000  Uiso   1.00
H566   H     0.34704   0.97149   0.14539   0.00000  Uiso   1.00
H567   H     0.34913   0.92342   0.10477   0.00000  Uiso   1.00
H568   H     0.63704   0.96409   0.04257   0.00000  Uiso   1.00
H569   H     0.35246   0.99111   0.05401   0.00000  Uiso   1.00
H570   H     0.63927   0.68032   0.08208   0.00000  Uiso   1.00
H571   H     0.60588   0.69937   0.18594   0.00000  Uiso   1.00
H572   H     0.46678   0.95830   0.09859   0.00000  Uiso   1.00
H573   H     0.60570   0.75096   0.21985   0.00000  Uiso   1.00
H574   H     0.35309   0.70254   0.18846   0.00000  Uiso   1.00
H575   H     0.34711   0.74856   0.23153   0.00000  Uiso   1.00
H576   H     0.63742   0.69967   0.28812   0.00000  Uiso   1.00
H577   H     0.35584   0.67888   0.27830   0.00000  Uiso   1.00
H578   H     0.64655   0.98603   0.24611   0.00000  Uiso   1.00
H579   H     0.41247   0.86526   0.26210   0.00000  Uiso   1.00
H580   H     0.35815   0.86319   0.27894   0.00000  Uiso   1.00
H581   H     0.41024   0.94950   0.28438   0.00000  Uiso   1.00
H582   H     0.35841   0.93972   0.30785   0.00000  Uiso   1.00
H583   H     0.46703   0.70873   0.09849   0.00000  Uiso   1.00
H584   H     0.38598   0.88209   0.03431   0.00000  Uiso   1.00
H585   H     0.40920   0.93666   0.04335   0.00000  Uiso   1.00
H586   H     0.43777   0.89326   0.01157   0.00000  Uiso   1.00
H587   H     0.53340   0.95798   0.23468   0.00000  Uiso   1.00
H588   H     0.41469   0.80027   0.07012   0.00000  Uiso   1.00
H589   H     0.36067   0.80549   0.05333   0.00000  Uiso   1.00
H590   H     0.40705   0.71529   0.04724   0.00000  Uiso   1.00
H591   H     0.35751   0.73083   0.02134   0.00000  Uiso   1.00
H592   H     0.39303   0.78676   0.29820   0.00000  Uiso   1.00
N593   N     0.50000   0.95240   0.16667   0.00000  Uiso   1.00
N594   N     0.50000   0.71427   0.16667   0.00000  Uiso   1.00
O595   O     0.43892   0.87154   0.16666   0.00000  Uiso   1.00
O596   O     0.62721   0.91428   0.18598   0.00000  Uiso   1.00
O597   O     0.62811   0.75263   0.14553   0.00000  Uiso   1.00
O598   O     0.37399   0.90273   0.21586   0.00000  Uiso   1.00
O599   O     0.56108   0.79513   0.16667   0.00000  Uiso   1.00
O600   O     0.56108   0.87154   0.16667   0.00000  Uiso   1.00
O601   O     0.43892   0.79513   0.16666   0.00000  Uiso   1.00
O602   O     0.50000   0.87155   0.09511   0.00000  Uiso   1.00
O603   O     0.50000   0.79512   0.23822   0.00000  Uiso   1.00
O604   O     0.50000   0.87155   0.23822   0.00000  Uiso   1.00
O605   O     0.50000   0.79512   0.09511   0.00000  Uiso   1.00
O606   O     0.37476   0.76442   0.11590   0.00000  Uiso   1.00
Zn607  Zn    0.50000   0.88437   0.16667   0.00000  Uiso   1.00
Zn608  Zn    0.50000   0.78229   0.16667   0.00000  Uiso   1.00
C609   C     0.75353   0.83340   0.16639   0.00000  Uiso   1.00
C610   C     0.68804   0.86946   0.18815   0.00000  Uiso   1.00
C611   C     0.95790   0.83333   0.16626   0.00000  Uiso   1.00
C612   C     0.70962   0.83356   0.16595   0.00000  Uiso   1.00
C613   C     0.85163   0.69049   0.20457   0.00000  Uiso   1.00
C614   C     0.81487   0.97618   0.12890   0.00000  Uiso   1.00
C615   C     0.81495   0.69067   0.12885   0.00000  Uiso   1.00
C616   C     0.85178   0.97600   0.20447   0.00000  Uiso   1.00
C617   C     0.71817   0.78196   0.06800   0.00000  Uiso   1.00
C618   C     0.72225   0.74331   0.03051   0.00000  Uiso   1.00
C619   C     0.74354   0.75838   0.31561   0.00000  Uiso   1.00
C620   C     0.91345   0.83329   0.16657   0.00000  Uiso   1.00
C621   C     0.95546   0.93531   0.13849   0.00000  Uiso   1.00
C622   C     0.99644   0.95247   0.11663   0.00000  Uiso   1.00
C623   C     0.98898   0.98226   0.07102   0.00000  Uiso   1.00
C624   C     0.95717   0.73052   0.19254   0.00000  Uiso   1.00
C625   C     0.99873   0.71779   0.21662   0.00000  Uiso   1.00
C626   C     0.99239   0.68515   0.25996   0.00000  Uiso   1.00
C627   C     0.71667   0.88517   0.26393   0.00000  Uiso   1.00
C628   C     0.72235   0.92397   0.30073   0.00000  Uiso   1.00
C629   C     0.73987   0.90777   0.01724   0.00000  Uiso   1.00
C630   C     0.83411   0.83333   0.07295   0.00000  Uiso   1.00
C631   C     0.83405   0.83334   0.26038   0.00000  Uiso   1.00
C632   C     0.83509   0.83333   0.02182   0.00000  Uiso   1.00
C633   C     0.83507   0.83338   0.31150   0.00000  Uiso   1.00
C634   C     0.68843   0.79774   0.14352   0.00000  Uiso   1.00
C635   C     0.97954   0.87286   0.17929   0.00000  Uiso   1.00
C636   C     0.97995   0.79407   0.15267   0.00000  Uiso   1.00
H637   H     0.86636   0.70837   0.23494   0.00000  Uiso   1.00
H638   H     0.74503   0.72999   0.28865   0.00000  Uiso   1.00
H639   H     0.77563   0.76888   0.32377   0.00000  Uiso   1.00
H640   H     0.93398   0.96416   0.14363   0.00000  Uiso   1.00
H641   H     0.94064   0.91267   0.11055   0.00000  Uiso   1.00
H642   H     0.68037   0.97149   0.14539   0.00000  Uiso   1.00
H643   H     0.68247   0.92342   0.10477   0.00000  Uiso   1.00
H644   H     0.97038   0.96409   0.04257   0.00000  Uiso   1.00
H645   H     0.68580   0.99111   0.05401   0.00000  Uiso   1.00
H646   H     0.97260   0.68032   0.08208   0.00000  Uiso   1.00
H647   H     0.93921   0.69937   0.18594   0.00000  Uiso   1.00
H648   H     0.80011   0.95830   0.09859   0.00000  Uiso   1.00
H649   H     0.93904   0.75096   0.21985   0.00000  Uiso   1.00
H650   H     0.68643   0.70254   0.18846   0.00000  Uiso   1.00
H651   H     0.68044   0.74856   0.23153   0.00000  Uiso   1.00
H652   H     0.97076   0.69967   0.28812   0.00000  Uiso   1.00
H653   H     0.68918   0.67888   0.27830   0.00000  Uiso   1.00
H654   H     0.97989   0.98603   0.24611   0.00000  Uiso   1.00
H655   H     0.74580   0.86526   0.26210   0.00000  Uiso   1.00
H656   H     0.69149   0.86319   0.27894   0.00000  Uiso   1.00
H657   H     0.74357   0.94950   0.28438   0.00000  Uiso   1.00
H658   H     0.69175   0.93972   0.30785   0.00000  Uiso   1.00
H659   H     0.80036   0.70873   0.09849   0.00000  Uiso   1.00
H660   H     0.71931   0.88209   0.03431   0.00000  Uiso   1.00
H661   H     0.74253   0.93666   0.04335   0.00000  Uiso   1.00
H662   H     0.77111   0.89326   0.01157   0.00000  Uiso   1.00
H663   H     0.86673   0.95798   0.23468   0.00000  Uiso   1.00
H664   H     0.74802   0.80027   0.07012   0.00000  Uiso   1.00
H665   H     0.69400   0.80549   0.05333   0.00000  Uiso   1.00
H666   H     0.74039   0.71529   0.04724   0.00000  Uiso   1.00
H667   H     0.69084   0.73083   0.02134   0.00000  Uiso   1.00
H668   H     0.72636   0.78676   0.29820   0.00000  Uiso   1.00
N669   N     0.83333   0.95240   0.16667   0.00000  Uiso   1.00
N670   N     0.83333   0.71427   0.16667   0.00000  Uiso   1.00
O671   O     0.77226   0.87154   0.16666   0.00000  Uiso   1.00
O672   O     0.96054   0.91428   0.18598   0.00000  Uiso   1.00
O673   O     0.96144   0.75263   0.14553   0.00000  Uiso   1.00
O674   O     0.70732   0.90273   0.21586   0.00000  Uiso   1.00
O675   O     0.89441   0.79513   0.16667   0.00000  Uiso   1.00
O676   O     0.89441   0.87154   0.16667   0.00000  Uiso   1.00
O677   O     0.77226   0.79513   0.16666   0.00000  Uiso   1.00
O678   O     0.83334   0.87155   0.09511   0.00000  Uiso   1.00
O679   O     0.83333   0.79512   0.23822   0.00000  Uiso   1.00
O680   O     0.83333   0.87155   0.23822   0.00000  Uiso   1.00
O681   O     0.83334   0.79512   0.09511   0.00000  Uiso   1.00
O682   O     0.70810   0.76442   0.11590   0.00000  Uiso   1.00
Zn683  Zn    0.83333   0.88437   0.16667   0.00000  Uiso   1.00
Zn684  Zn    0.83333   0.78229   0.16667   0.00000  Uiso   1.00
C685   C     0.08686   0.16673   0.49972   0.00000  Uiso   1.00
C686   C     0.02138   0.20279   0.52149   0.00000  Uiso   1.00
C687   C     0.29123   0.16667   0.49959   0.00000  Uiso   1.00
C688   C     0.04296   0.16690   0.49929   0.00000  Uiso   1.00
C689   C     0.18496   0.02382   0.53790   0.00000  Uiso   1.00
C690   C     0.14821   0.30952   0.46223   0.00000  Uiso   1.00
C691   C     0.14828   0.02400   0.46219   0.00000  Uiso   1.00
C692   C     0.18511   0.30934   0.53780   0.00000  Uiso   1.00
C693   C     0.05151   0.11529   0.40133   0.00000  Uiso   1.00
C694   C     0.05558   0.07664   0.36384   0.00000  Uiso   1.00
C695   C     0.07687   0.09172   0.64894   0.00000  Uiso   1.00
C696   C     0.24678   0.16662   0.49990   0.00000  Uiso   1.00
C697   C     0.28880   0.26864   0.47182   0.00000  Uiso   1.00
C698   C     0.32977   0.28581   0.44997   0.00000  Uiso   1.00
C699   C     0.32231   0.31559   0.40435   0.00000  Uiso   1.00
C700   C     0.29050   0.06385   0.52588   0.00000  Uiso   1.00
C701   C     0.33206   0.05113   0.54995   0.00000  Uiso   1.00
C702   C     0.32572   0.01848   0.59329   0.00000  Uiso   1.00
C703   C     0.05000   0.21850   0.59727   0.00000  Uiso   1.00
C704   C     0.05568   0.25730   0.63406   0.00000  Uiso   1.00
C705   C     0.07320   0.24111   0.35058   0.00000  Uiso   1.00
C706   C     0.16745   0.16667   0.40628   0.00000  Uiso   1.00
C707   C     0.16738   0.16667   0.59372   0.00000  Uiso   1.00
C708   C     0.16843   0.16666   0.35515   0.00000  Uiso   1.00
C709   C     0.16840   0.16671   0.64483   0.00000  Uiso   1.00
C710   C     0.02176   0.13107   0.47685   0.00000  Uiso   1.00
C711   C     0.31287   0.20619   0.51262   0.00000  Uiso   1.00
C712   C     0.31328   0.12740   0.48600   0.00000  Uiso   1.00
H713   H     0.19969   0.04170   0.56827   0.00000  Uiso   1.00
H714   H     0.07837   0.06333   0.62198   0.00000  Uiso   1.00
H715   H     0.10897   0.10222   0.65710   0.00000  Uiso   1.00
H716   H     0.26732   0.29749   0.47696   0.00000  Uiso   1.00
H717   H     0.27397   0.24600   0.44389   0.00000  Uiso   1.00
H718   H     0.01371   0.30482   0.47873   0.00000  Uiso   1.00
H719   H     0.01580   0.25675   0.43810   0.00000  Uiso   1.00
H720   H     0.30371   0.29742   0.37590   0.00000  Uiso   1.00
H721   H     0.01913   0.32445   0.38734   0.00000  Uiso   1.00
H722   H     0.30593   0.01366   0.41542   0.00000  Uiso   1.00
H723   H     0.27255   0.03271   0.51927   0.00000  Uiso   1.00
H724   H     0.13344   0.29164   0.43192   0.00000  Uiso   1.00
H725   H     0.27237   0.08429   0.55318   0.00000  Uiso   1.00
H726   H     0.01976   0.03587   0.52180   0.00000  Uiso   1.00
H727   H     0.01377   0.08189   0.56487   0.00000  Uiso   1.00
H728   H     0.30409   0.03300   0.62145   0.00000  Uiso   1.00
H729   H     0.02251   0.01221   0.61163   0.00000  Uiso   1.00
H730   H     0.31322   0.31936   0.57945   0.00000  Uiso   1.00
H731   H     0.07913   0.19859   0.59543   0.00000  Uiso   1.00
H732   H     0.02482   0.19652   0.61227   0.00000  Uiso   1.00
H733   H     0.07691   0.28283   0.61771   0.00000  Uiso   1.00
H734   H     0.02508   0.27305   0.64118   0.00000  Uiso   1.00
H735   H     0.13369   0.04206   0.43182   0.00000  Uiso   1.00
H736   H     0.05264   0.21542   0.36764   0.00000  Uiso   1.00
H737   H     0.07587   0.27000   0.37668   0.00000  Uiso   1.00
H738   H     0.10444   0.22659   0.34491   0.00000  Uiso   1.00
H739   H     0.20007   0.29132   0.56801   0.00000  Uiso   1.00
H740   H     0.08136   0.13360   0.40345   0.00000  Uiso   1.00
H741   H     0.02734   0.13883   0.38667   0.00000  Uiso   1.00
H742   H     0.07372   0.04863   0.38057   0.00000  Uiso   1.00
H743   H     0.02418   0.06417   0.35467   0.00000  Uiso   1.00
H744   H     0.05969   0.12009   0.63153   0.00000  Uiso   1.00
N745   N     0.16667   0.28573   0.50000   0.00000  Uiso   1.00
N746   N     0.16667   0.04760   0.50000   0.00000  Uiso   1.00
O747   O     0.10559   0.20487   0.50000   0.00000  Uiso   1.00
O748   O     0.29388   0.24761   0.51931   0.00000  Uiso   1.00
O749   O     0.29478   0.08596   0.47887   0.00000  Uiso   1.00
O750   O     0.04065   0.23606   0.54919   0.00000  Uiso   1.00
O751   O     0.22774   0.12846   0.50000   0.00000  Uiso   1.00
O752   O     0.22774   0.20487   0.50000   0.00000  Uiso   1.00
O753   O     0.10559   0.12846   0.50000   0.00000  Uiso   1.00
O754   O     0.16667   0.20488   0.42845   0.00000  Uiso   1.00
O755   O     0.16666   0.12845   0.57155   0.00000  Uiso   1.00
O756   O     0.16666   0.20488   0.57155   0.00000  Uiso   1.00
O757   O     0.16667   0.12845   0.42845   0.00000  Uiso   1.00
O758   O     0.04143   0.09775   0.44923   0.00000  Uiso   1.00
Zn759  Zn    0.16667   0.21771   0.50000   0.00000  Uiso   1.00
Zn760  Zn    0.16667   0.11563   0.50000   0.00000  Uiso   1.00
C761   C     0.42019   0.16673   0.49972   0.00000  Uiso   1.00
C762   C     0.35471   0.20279   0.52149   0.00000  Uiso   1.00
C763   C     0.62456   0.16667   0.49959   0.00000  Uiso   1.00
C764   C     0.37629   0.16690   0.49929   0.00000  Uiso   1.00
C765   C     0.51829   0.02382   0.53790   0.00000  Uiso   1.00
C766   C     0.48154   0.30952   0.46223   0.00000  Uiso   1.00
C767   C     0.48162   0.02400   0.46219   0.00000  Uiso   1.00
C768   C     0.51844   0.30934   0.53780   0.00000  Uiso   1.00
C769   C     0.38484   0.11529   0.40133   0.00000  Uiso   1.00
C770   C     0.38891   0.07664   0.36384   0.00000  Uiso   1.00
C771   C     0.41021   0.09172   0.64894   0.00000  Uiso   1.00
C772   C     0.58012   0.16662   0.49990   0.00000  Uiso   1.00
C773   C     0.62213   0.26864   0.47182   0.00000  Uiso   1.00
C774   C     0.66311   0.28581   0.44997   0.00000  Uiso   1.00
C775   C     0.65564   0.31559   0.40435   0.00000  Uiso   1.00
C776   C     0.62384   0.06385   0.52588   0.00000  Uiso   1.00
C777   C     0.66540   0.05113   0.54995   0.00000  Uiso   1.00
C778   C     0.65905   0.01848   0.59329   0.00000  Uiso   1.00
C779   C     0.38334   0.21850   0.59727   0.00000  Uiso   1.00
C780   C     0.38902   0.25730   0.63406   0.00000  Uiso   1.00
C781   C     0.40654   0.24111   0.35058   0.00000  Uiso   1.00
C782   C     0.50078   0.16667   0.40628   0.00000  Uiso   1.00
C783   C     0.50071   0.16667   0.59372   0.00000  Uiso   1.00
C784   C     0.50176   0.16666   0.35515   0.00000  Uiso   1.00
C785   C     0.50173   0.16671   0.64483   0.00000  Uiso   1.00
C786   C     0.35509   0.13107   0.47685   0.00000  Uiso   1.00
C787   C     0.64621   0.20619   0.51262   0.00000  Uiso   1.00
C788   C     0.64661   0.12740   0.48600   0.00000  Uiso   1.00
H789   H     0.53303   0.04170   0.56827   0.00000  Uiso   1.00
H790   H     0.41170   0.06333   0.62198   0.00000  Uiso   1.00
H791   H     0.44230   0.10222   0.65710   0.00000  Uiso   1.00
H792   H     0.60065   0.29749   0.47696   0.00000  Uiso   1.00
H793   H     0.60730   0.24600   0.44389   0.00000  Uiso   1.00
H794   H     0.34704   0.30482   0.47873   0.00000  Uiso   1.00
H795   H     0.34913   0.25675   0.43810   0.00000  Uiso   1.00
H796   H     0.63704   0.29742   0.37590   0.00000  Uiso   1.00
H797   H     0.35246   0.32445   0.38734   0.00000  Uiso   1.00
H798   H     0.63927   0.01366   0.41542   0.00000  Uiso   1.00
H799   H     0.60588   0.03271   0.51927   0.00000  Uiso   1.00
H800   H     0.46678   0.29164   0.43192   0.00000  Uiso   1.00
H801   H     0.60570   0.08429   0.55318   0.00000  Uiso   1.00
H802   H     0.35309   0.03587   0.52180   0.00000  Uiso   1.00
H803   H     0.34711   0.08189   0.56487   0.00000  Uiso   1.00
H804   H     0.63742   0.03300   0.62145   0.00000  Uiso   1.00
H805   H     0.35584   0.01221   0.61163   0.00000  Uiso   1.00
H806   H     0.64655   0.31936   0.57945   0.00000  Uiso   1.00
H807   H     0.41247   0.19859   0.59543   0.00000  Uiso   1.00
H808   H     0.35815   0.19652   0.61227   0.00000  Uiso   1.00
H809   H     0.41024   0.28283   0.61771   0.00000  Uiso   1.00
H810   H     0.35841   0.27305   0.64118   0.00000  Uiso   1.00
H811   H     0.46703   0.04206   0.43182   0.00000  Uiso   1.00
H812   H     0.38598   0.21542   0.36764   0.00000  Uiso   1.00
H813   H     0.40920   0.27000   0.37668   0.00000  Uiso   1.00
H814   H     0.43777   0.22659   0.34491   0.00000  Uiso   1.00
H815   H     0.53340   0.29132   0.56801   0.00000  Uiso   1.00
H816   H     0.41469   0.13360   0.40345   0.00000  Uiso   1.00
H817   H     0.36067   0.13883   0.38667   0.00000  Uiso   1.00
H818   H     0.40705   0.04863   0.38057   0.00000  Uiso   1.00
H819   H     0.35751   0.06417   0.35467   0.00000  Uiso   1.00
H820   H     0.39303   0.12009   0.63153   0.00000  Uiso   1.00
N821   N     0.50000   0.28573   0.50000   0.00000  Uiso   1.00
N822   N     0.50000   0.04760   0.50000   0.00000  Uiso   1.00
O823   O     0.43892   0.20487   0.50000   0.00000  Uiso   1.00
O824   O     0.62721   0.24761   0.51931   0.00000  Uiso   1.00
O825   O     0.62811   0.08596   0.47887   0.00000  Uiso   1.00
O826   O     0.37399   0.23606   0.54919   0.00000  Uiso   1.00
O827   O     0.56108   0.12846   0.50000   0.00000  Uiso   1.00
O828   O     0.56108   0.20487   0.50000   0.00000  Uiso   1.00
O829   O     0.43892   0.12846   0.50000   0.00000  Uiso   1.00
O830   O     0.50000   0.20488   0.42845   0.00000  Uiso   1.00
O831   O     0.50000   0.12845   0.57155   0.00000  Uiso   1.00
O832   O     0.50000   0.20488   0.57155   0.00000  Uiso   1.00
O833   O     0.50000   0.12845   0.42845   0.00000  Uiso   1.00
O834   O     0.37476   0.09775   0.44923   0.00000  Uiso   1.00
Zn835  Zn    0.50000   0.21771   0.50000   0.00000  Uiso   1.00
Zn836  Zn    0.50000   0.11563   0.50000   0.00000  Uiso   1.00
C837   C     0.75353   0.16673   0.49972   0.00000  Uiso   1.00
C838   C     0.68804   0.20279   0.52149   0.00000  Uiso   1.00
C839   C     0.95790   0.16667   0.49959   0.00000  Uiso   1.00
C840   C     0.70962   0.16690   0.49929   0.00000  Uiso   1.00
C841   C     0.85163   0.02382   0.53790   0.00000  Uiso   1.00
C842   C     0.81487   0.30952   0.46223   0.00000  Uiso   1.00
C843   C     0.81495   0.02400   0.46219   0.00000  Uiso   1.00
C844   C     0.85178   0.30934   0.53780   0.00000  Uiso   1.00
C845   C     0.71817   0.11529   0.40133   0.00000  Uiso   1.00
C846   C     0.72225   0.07664   0.36384   0.00000  Uiso   1.00
C847   C     0.74354   0.09172   0.64894   0.00000  Uiso   1.00
C848   C     0.91345   0.16662   0.49990   0.00000  Uiso   1.00
C849   C     0.95546   0.26864   0.47182   0.00000  Uiso   1.00
C850   C     0.99644   0.28581   0.44997   0.00000  Uiso   1.00
C851   C     0.98898   0.31559   0.40435   0.00000  Uiso   1.00
C852   C     0.95717   0.06385   0.52588   0.00000  Uiso   1.00
C853   C     0.99873   0.05113   0.54995   0.00000  Uiso   1.00
C854   C     0.99239   0.01848   0.59329   0.00000  Uiso   1.00
C855   C     0.71667   0.21850   0.59727   0.00000  Uiso   1.00
C856   C     0.72235   0.25730   0.63406   0.00000  Uiso   1.00
C857   C     0.73987   0.24111   0.35058   0.00000  Uiso   1.00
C858   C     0.83411   0.16667   0.40628   0.00000  Uiso   1.00
C859   C     0.83405   0.16667   0.59372   0.00000  Uiso   1.00
C860   C     0.83509   0.16666   0.35515   0.00000  Uiso   1.00
C861   C     0.83507   0.16671   0.64483   0.00000  Uiso   1.00
C862   C     0.68843   0.13107   0.47685   0.00000  Uiso   1.00
C863   C     0.97954   0.20619   0.51262   0.00000  Uiso   1.00
C864   C     0.97995   0.12740   0.48600   0.00000  Uiso   1.00
H865   H     0.86636   0.04170   0.56827   0.00000  Uiso   1.00
H866   H     0.74503   0.06333   0.62198   0.00000  Uiso   1.00
H867   H     0.77563   0.10222   0.65710   0.00000  Uiso   1.00
H868   H     0.93398   0.29749   0.47696   0.00000  Uiso   1.00
H869   H     0.94064   0.24600   0.44389   0.00000  Uiso   1.00
H870   H     0.68037   0.30482   0.47873   0.00000  Uiso   1.00
H871   H     0.68247   0.25675   0.43810   0.00000  Uiso   1.00
H872   H     0.97038   0.29742   0.37590   0.00000  Uiso   1.00
H873   H     0.68580   0.32445   0.38734   0.00000  Uiso   1.00
H874   H     0.97260   0.01366   0.41542   0.00000  Uiso   1.00
H875   H     0.93921   0.03271   0.51927   0.00000  Uiso   1.00
H876   H     0.80011   0.29164   0.43192   0.00000  Uiso   1.00
H877   H     0.93904   0.08429   0.55318   0.00000  Uiso   1.00
H878   H     0.68643   0.03587   0.52180   0.00000  Uiso   1.00
H879   H     0.68044   0.08189   0.56487   0.00000  Uiso   1.00
H880   H     0.97076   0.03300   0.62145   0.00000  Uiso   1.00
H881   H     0.68918   0.01221   0.61163   0.00000  Uiso   1.00
H882   H     0.97989   0.31936   0.57945   0.00000  Uiso   1.00
H883   H     0.74580   0.19859   0.59543   0.00000  Uiso   1.00
H884   H     0.69149   0.19652   0.61227   0.00000  Uiso   1.00
H885   H     0.74357   0.28283   0.61771   0.00000  Uiso   1.00
H886   H     0.69175   0.27305   0.64118   0.00000  Uiso   1.00
H887   H     0.80036   0.04206   0.43182   0.00000  Uiso   1.00
H888   H     0.71931   0.21542   0.36764   0.00000  Uiso   1.00
H889   H     0.74253   0.27000   0.37668   0.00000  Uiso   1.00
H890   H     0.77111   0.22659   0.34491   0.00000  Uiso   1.00
H891   H     0.86673   0.29132   0.56801   0.00000  Uiso   1.00
H892   H     0.74802   0.13360   0.40345   0.00000  Uiso   1.00
H893   H     0.69400   0.13883   0.38667   0.00000  Uiso   1.00
H894   H     0.74039   0.04863   0.38057   0.00000  Uiso   1.00
H895   H     0.69084   0.06417   0.35467   0.00000  Uiso   1.00
H896   H     0.72636   0.12009   0.63153   0.00000  Uiso   1.00
N897   N     0.83333   0.28573   0.50000   0.00000  Uiso   1.00
N898   N     0.83333   0.04760   0.50000   0.00000  Uiso   1.00
O899   O     0.77226   0.20487   0.50000   0.00000  Uiso   1.00
O900   O     0.96054   0.24761   0.51931   0.00000  Uiso   1.00
O901   O     0.96144   0.08596   0.47887   0.00000  Uiso   1.00
O902   O     0.70732   0.23606   0.54919   0.00000  Uiso   1.00
O903   O     0.89441   0.12846   0.50000   0.00000  Uiso   1.00
O904   O     0.89441   0.20487   0.50000   0.00000  Uiso   1.00
O905   O     0.77226   0.12846   0.50000   0.00000  Uiso   1.00
O906   O     0.83334   0.20488   0.42845   0.00000  Uiso   1.00
O907   O     0.83333   0.12845   0.57155   0.00000  Uiso   1.00
O908   O     0.83333   0.20488   0.57155   0.00000  Uiso   1.00
O909   O     0.83334   0.12845   0.42845   0.00000  Uiso   1.00
O910   O     0.70810   0.09775   0.44923   0.00000  Uiso   1.00
Zn911  Zn    0.83333   0.21771   0.50000   0.00000  Uiso   1.00
Zn912  Zn    0.83333   0.11563   0.50000   0.00000  Uiso   1.00
C913   C     0.08686   0.50007   0.49972   0.00000  Uiso   1.00
C914   C     0.02138   0.53612   0.52149   0.00000  Uiso   1.00
C915   C     0.29123   0.50000   0.49959   0.00000  Uiso   1.00
C916   C     0.04296   0.50023   0.49929   0.00000  Uiso   1.00
C917   C     0.18496   0.35715   0.53790   0.00000  Uiso   1.00
C918   C     0.14821   0.64285   0.46223   0.00000  Uiso   1.00
C919   C     0.14828   0.35733   0.46219   0.00000  Uiso   1.00
C920   C     0.18511   0.64267   0.53780   0.00000  Uiso   1.00
C921   C     0.05151   0.44862   0.40133   0.00000  Uiso   1.00
C922   C     0.05558   0.40997   0.36384   0.00000  Uiso   1.00
C923   C     0.07687   0.42505   0.64894   0.00000  Uiso   1.00
C924   C     0.24678   0.49995   0.49990   0.00000  Uiso   1.00
C925   C     0.28880   0.60197   0.47182   0.00000  Uiso   1.00
C926   C     0.32977   0.61914   0.44997   0.00000  Uiso   1.00
C927   C     0.32231   0.64892   0.40435   0.00000  Uiso   1.00
C928   C     0.29050   0.39718   0.52588   0.00000  Uiso   1.00
C929   C     0.33206   0.38446   0.54995   0.00000  Uiso   1.00
C930   C     0.32572   0.35182   0.59329   0.00000  Uiso   1.00
C931   C     0.05000   0.55183   0.59727   0.00000  Uiso   1.00
C932   C     0.05568   0.59064   0.63406   0.00000  Uiso   1.00
C933   C     0.07320   0.57444   0.35058   0.00000  Uiso   1.00
C934   C     0.16745   0.50000   0.40628   0.00000  Uiso   1.00
C935   C     0.16738   0.50000   0.59372   0.00000  Uiso   1.00
C936   C     0.16843   0.49999   0.35515   0.00000  Uiso   1.00
C937   C     0.16840   0.50004   0.64483   0.00000  Uiso   1.00
C938   C     0.02176   0.46440   0.47685   0.00000  Uiso   1.00
C939   C     0.31287   0.53953   0.51262   0.00000  Uiso   1.00
C940   C     0.31328   0.46073   0.48600   0.00000  Uiso   1.00
H941   H     0.19969   0.37503   0.56827   0.00000  Uiso   1.00
H942   H     0.07837   0.39666   0.62198   0.00000  Uiso   1.00
H943   H     0.10897   0.43555   0.65710   0.00000  Uiso   1.00
H944   H     0.26732   0.63083   0.47696   0.00000  Uiso   1.00
H945   H     0.27397   0.57934   0.44389   0.00000  Uiso   1.00
H946   H     0.01371   0.63815   0.47873   0.00000  Uiso   1.00
H947   H     0.01580   0.59008   0.43810   0.00000  Uiso   1.00
H948   H     0.30371   0.63075   0.37590   0.00000  Uiso   1.00
H949   H     0.01913   0.65778   0.38734   0.00000  Uiso   1.00
H950   H     0.30593   0.34699   0.41542   0.00000  Uiso   1.00
H951   H     0.27255   0.36604   0.51927   0.00000  Uiso   1.00
H952   H     0.13344   0.62497   0.43192   0.00000  Uiso   1.00
H953   H     0.27237   0.41762   0.55318   0.00000  Uiso   1.00
H954   H     0.01976   0.36920   0.52180   0.00000  Uiso   1.00
H955   H     0.01377   0.41523   0.56487   0.00000  Uiso   1.00
H956   H     0.30409   0.36634   0.62145   0.00000  Uiso   1.00
H957   H     0.02251   0.34555   0.61163   0.00000  Uiso   1.00
H958   H     0.31322   0.65269   0.57945   0.00000  Uiso   1.00
H959   H     0.07913   0.53192   0.59543   0.00000  Uiso   1.00
H960   H     0.02482   0.52985   0.61227   0.00000  Uiso   1.00
H961   H     0.07691   0.61616   0.61771   0.00000  Uiso   1.00
H962   H     0.02508   0.60638   0.64118   0.00000  Uiso   1.00
H963   H     0.13369   0.37539   0.43182   0.00000  Uiso   1.00
H964   H     0.05264   0.54876   0.36764   0.00000  Uiso   1.00
H965   H     0.07587   0.60333   0.37668   0.00000  Uiso   1.00
H966   H     0.10444   0.55993   0.34491   0.00000  Uiso   1.00
H967   H     0.20007   0.62465   0.56801   0.00000  Uiso   1.00
H968   H     0.08136   0.46694   0.40345   0.00000  Uiso   1.00
H969   H     0.02734   0.47216   0.38667   0.00000  Uiso   1.00
H970   H     0.07372   0.38196   0.38057   0.00000  Uiso   1.00
H971   H     0.02418   0.39750   0.35467   0.00000  Uiso   1.00
H972   H     0.05969   0.45342   0.63153   0.00000  Uiso   1.00
N973   N     0.16667   0.61907   0.50000   0.00000  Uiso   1.00
N974   N     0.16667   0.38093   0.50000   0.00000  Uiso   1.00
O975   O     0.10559   0.53821   0.50000   0.00000  Uiso   1.00
O976   O     0.29388   0.58095   0.51931   0.00000  Uiso   1.00
O977   O     0.29478   0.41930   0.47887   0.00000  Uiso   1.00
O978   O     0.04065   0.56940   0.54919   0.00000  Uiso   1.00
O979   O     0.22774   0.46179   0.50000   0.00000  Uiso   1.00
O980   O     0.22774   0.53821   0.50000   0.00000  Uiso   1.00
O981   O     0.10559   0.46179   0.50000   0.00000  Uiso   1.00
O982   O     0.16667   0.53821   0.42845   0.00000  Uiso   1.00
O983   O     0.16666   0.46179   0.57155   0.00000  Uiso   1.00
O984   O     0.16666   0.53821   0.57155   0.00000  Uiso   1.00
O985   O     0.16667   0.46179   0.42845   0.00000  Uiso   1.00
O986   O     0.04143   0.43109   0.44923   0.00000  Uiso   1.00
Zn987  Zn    0.16667   0.55104   0.50000   0.00000  Uiso   1.00
Zn988  Zn    0.16667   0.44896   0.50000   0.00000  Uiso   1.00
C989   C     0.42019   0.50007   0.49972   0.00000  Uiso   1.00
C990   C     0.35471   0.53612   0.52149   0.00000  Uiso   1.00
C991   C     0.62456   0.50000   0.49959   0.00000  Uiso   1.00
C992   C     0.37629   0.50023   0.49929   0.00000  Uiso   1.00
C993   C     0.51829   0.35715   0.53790   0.00000  Uiso   1.00
C994   C     0.48154   0.64285   0.46223   0.00000  Uiso   1.00
C995   C     0.48162   0.35733   0.46219   0.00000  Uiso   1.00
C996   C     0.51844   0.64267   0.53780   0.00000  Uiso   1.00
C997   C     0.38484   0.44862   0.40133   0.00000  Uiso   1.00
C998   C     0.38891   0.40997   0.36384   0.00000  Uiso   1.00
C999   C     0.41021   0.42505   0.64894   0.00000  Uiso   1.00
C1000  C     0.58012   0.49995   0.49990   0.00000  Uiso   1.00
C1001  C     0.62213   0.60197   0.47182   0.00000  Uiso   1.00
C1002  C     0.66311   0.61914   0.44997   0.00000  Uiso   1.00
C1003  C     0.65564   0.64892   0.40435   0.00000  Uiso   1.00
C1004  C     0.62384   0.39718   0.52588   0.00000  Uiso   1.00
C1005  C     0.66540   0.38446   0.54995   0.00000  Uiso   1.00
C1006  C     0.65905   0.35182   0.59329   0.00000  Uiso   1.00
C1007  C     0.38334   0.55183   0.59727   0.00000  Uiso   1.00
C1008  C     0.38902   0.59064   0.63406   0.00000  Uiso   1.00
C1009  C     0.40654   0.57444   0.35058   0.00000  Uiso   1.00
C1010  C     0.50078   0.50000   0.40628   0.00000  Uiso   1.00
C1011  C     0.50071   0.50000   0.59372   0.00000  Uiso   1.00
C1012  C     0.50176   0.49999   0.35515   0.00000  Uiso   1.00
C1013  C     0.50173   0.50004   0.64483   0.00000  Uiso   1.00
C1014  C     0.35509   0.46440   0.47685   0.00000  Uiso   1.00
C1015  C     0.64621   0.53953   0.51262   0.00000  Uiso   1.00
C1016  C     0.64661   0.46073   0.48600   0.00000  Uiso   1.00
H1017  H     0.53303   0.37503   0.56827   0.00000  Uiso   1.00
H1018  H     0.41170   0.39666   0.62198   0.00000  Uiso   1.00
H1019  H     0.44230   0.43555   0.65710   0.00000  Uiso   1.00
H1020  H     0.60065   0.63083   0.47696   0.00000  Uiso   1.00
H1021  H     0.60730   0.57934   0.44389   0.00000  Uiso   1.00
H1022  H     0.34704   0.63815   0.47873   0.00000  Uiso   1.00
H1023  H     0.34913   0.59008   0.43810   0.00000  Uiso   1.00
H1024  H     0.63704   0.63075   0.37590   0.00000  Uiso   1.00
H1025  H     0.35246   0.65778   0.38734   0.00000  Uiso   1.00
H1026  H     0.63927   0.34699   0.41542   0.00000  Uiso   1.00
H1027  H     0.60588   0.36604   0.51927   0.00000  Uiso   1.00
H1028  H     0.46678   0.62497   0.43192   0.00000  Uiso   1.00
H1029  H     0.60570   0.41762   0.55318   0.00000  Uiso   1.00
H1030  H     0.35309   0.36920   0.52180   0.00000  Uiso   1.00
H1031  H     0.34711   0.41523   0.56487   0.00000  Uiso   1.00
H1032  H     0.63742   0.36634   0.62145   0.00000  Uiso   1.00
H1033  H     0.35584   0.34555   0.61163   0.00000  Uiso   1.00
H1034  H     0.64655   0.65269   0.57945   0.00000  Uiso   1.00
H1035  H     0.41247   0.53192   0.59543   0.00000  Uiso   1.00
H1036  H     0.35815   0.52985   0.61227   0.00000  Uiso   1.00
H1037  H     0.41024   0.61616   0.61771   0.00000  Uiso   1.00
H1038  H     0.35841   0.60638   0.64118   0.00000  Uiso   1.00
H1039  H     0.46703   0.37539   0.43182   0.00000  Uiso   1.00
H1040  H     0.38598   0.54876   0.36764   0.00000  Uiso   1.00
H1041  H     0.40920   0.60333   0.37668   0.00000  Uiso   1.00
H1042  H     0.43777   0.55993   0.34491   0.00000  Uiso   1.00
H1043  H     0.53340   0.62465   0.56801   0.00000  Uiso   1.00
H1044  H     0.41469   0.46694   0.40345   0.00000  Uiso   1.00
H1045  H     0.36067   0.47216   0.38667   0.00000  Uiso   1.00
H1046  H     0.40705   0.38196   0.38057   0.00000  Uiso   1.00
H1047  H     0.35751   0.39750   0.35467   0.00000  Uiso   1.00
H1048  H     0.39303   0.45342   0.63153   0.00000  Uiso   1.00
N1049  N     0.50000   0.61907   0.50000   0.00000  Uiso   1.00
N1050  N     0.50000   0.38093   0.50000   0.00000  Uiso   1.00
O1051  O     0.43892   0.53821   0.50000   0.00000  Uiso   1.00
O1052  O     0.62721   0.58095   0.51931   0.00000  Uiso   1.00
O1053  O     0.62811   0.41930   0.47887   0.00000  Uiso   1.00
O1054  O     0.37399   0.56940   0.54919   0.00000  Uiso   1.00
O1055  O     0.56108   0.46179   0.50000   0.00000  Uiso   1.00
O1056  O     0.56108   0.53821   0.50000   0.00000  Uiso   1.00
O1057  O     0.43892   0.46179   0.50000   0.00000  Uiso   1.00
O1058  O     0.50000   0.53821   0.42845   0.00000  Uiso   1.00
O1059  O     0.50000   0.46179   0.57155   0.00000  Uiso   1.00
O1060  O     0.50000   0.53821   0.57155   0.00000  Uiso   1.00
O1061  O     0.50000   0.46179   0.42845   0.00000  Uiso   1.00
O1062  O     0.37476   0.43109   0.44923   0.00000  Uiso   1.00
Zn1063 Zn    0.50000   0.55104   0.50000   0.00000  Uiso   1.00
Zn1064 Zn    0.50000   0.44896   0.50000   0.00000  Uiso   1.00
C1065  C     0.75353   0.50007   0.49972   0.00000  Uiso   1.00
C1066  C     0.68804   0.53612   0.52149   0.00000  Uiso   1.00
C1067  C     0.95790   0.50000   0.49959   0.00000  Uiso   1.00
C1068  C     0.70962   0.50023   0.49929   0.00000  Uiso   1.00
C1069  C     0.85163   0.35715   0.53790   0.00000  Uiso   1.00
C1070  C     0.81487   0.64285   0.46223   0.00000  Uiso   1.00
C1071  C     0.81495   0.35733   0.46219   0.00000  Uiso   1.00
C1072  C     0.85178   0.64267   0.53780   0.00000  Uiso   1.00
C1073  C     0.71817   0.44862   0.40133   0.00000  Uiso   1.00
C1074  C     0.72225   0.40997   0.36384   0.00000  Uiso   1.00
C1075  C     0.74354   0.42505   0.64894   0.00000  Uiso   1.00
C1076  C     0.91345   0.49995   0.49990   0.00000  Uiso   1.00
C1077  C     0.95546   0.60197   0.47182   0.00000  Uiso   1.00
C1078  C     0.99644   0.61914   0.44997   0.00000  Uiso   1.00
C1079  C     0.98898   0.64892   0.40435   0.00000  Uiso   1.00
C1080  C     0.95717   0.39718   0.52588   0.00000  Uiso   1.00
C1081  C     0.99873   0.38446   0.54995   0.00000  Uiso   1.00
C1082  C     0.99239   0.35182   0.59329   0.00000  Uiso   1.00
C1083  C     0.71667   0.55183   0.59727   0.00000  Uiso   1.00
C1084  C     0.72235   0.59064   0.63406   0.00000  Uiso   1.00
C1085  C     0.73987   0.57444   0.35058   0.00000  Uiso   1.00
C1086  C     0.83411   0.50000   0.40628   0.00000  Uiso   1.00
C1087  C     0.83405   0.50000   0.59372   0.00000  Uiso   1.00
C1088  C     0.83509   0.49999   0.35515   0.00000  Uiso   1.00
C1089  C     0.83507   0.50004   0.64483   0.00000  Uiso   1.00
C1090  C     0.68843   0.46440   0.47685   0.00000  Uiso   1.00
C1091  C     0.97954   0.53953   0.51262   0.00000  Uiso   1.00
C1092  C     0.97995   0.46073   0.48600   0.00000  Uiso   1.00
H1093  H     0.86636   0.37503   0.56827   0.00000  Uiso   1.00
H1094  H     0.74503   0.39666   0.62198   0.00000  Uiso   1.00
H1095  H     0.77563   0.43555   0.65710   0.00000  Uiso   1.00
H1096  H     0.93398   0.63083   0.47696   0.00000  Uiso   1.00
H1097  H     0.94064   0.57934   0.44389   0.00000  Uiso   1.00
H1098  H     0.68037   0.63815   0.47873   0.00000  Uiso   1.00
H1099  H     0.68247   0.59008   0.43810   0.00000  Uiso   1.00
H1100  H     0.97038   0.63075   0.37590   0.00000  Uiso   1.00
H1101  H     0.68580   0.65778   0.38734   0.00000  Uiso   1.00
H1102  H     0.97260   0.34699   0.41542   0.00000  Uiso   1.00
H1103  H     0.93921   0.36604   0.51927   0.00000  Uiso   1.00
H1104  H     0.80011   0.62497   0.43192   0.00000  Uiso   1.00
H1105  H     0.93904   0.41762   0.55318   0.00000  Uiso   1.00
H1106  H     0.68643   0.36920   0.52180   0.00000  Uiso   1.00
H1107  H     0.68044   0.41523   0.56487   0.00000  Uiso   1.00
H1108  H     0.97076   0.36634   0.62145   0.00000  Uiso   1.00
H1109  H     0.68918   0.34555   0.61163   0.00000  Uiso   1.00
H1110  H     0.97989   0.65269   0.57945   0.00000  Uiso   1.00
H1111  H     0.74580   0.53192   0.59543   0.00000  Uiso   1.00
H1112  H     0.69149   0.52985   0.61227   0.00000  Uiso   1.00
H1113  H     0.74357   0.61616   0.61771   0.00000  Uiso   1.00
H1114  H     0.69175   0.60638   0.64118   0.00000  Uiso   1.00
H1115  H     0.80036   0.37539   0.43182   0.00000  Uiso   1.00
H1116  H     0.71931   0.54876   0.36764   0.00000  Uiso   1.00
H1117  H     0.74253   0.60333   0.37668   0.00000  Uiso   1.00
H1118  H     0.77111   0.55993   0.34491   0.00000  Uiso   1.00
H1119  H     0.86673   0.62465   0.56801   0.00000  Uiso   1.00
H1120  H     0.74802   0.46694   0.40345   0.00000  Uiso   1.00
H1121  H     0.69400   0.47216   0.38667   0.00000  Uiso   1.00
H1122  H     0.74039   0.38196   0.38057   0.00000  Uiso   1.00
H1123  H     0.69084   0.39750   0.35467   0.00000  Uiso   1.00
H1124  H     0.72636   0.45342   0.63153   0.00000  Uiso   1.00
N1125  N     0.83333   0.61907   0.50000   0.00000  Uiso   1.00
N1126  N     0.83333   0.38093   0.50000   0.00000  Uiso   1.00
O1127  O     0.77226   0.53821   0.50000   0.00000  Uiso   1.00
O1128  O     0.96054   0.58095   0.51931   0.00000  Uiso   1.00
O1129  O     0.96144   0.41930   0.47887   0.00000  Uiso   1.00
O1130  O     0.70732   0.56940   0.54919   0.00000  Uiso   1.00
O1131  O     0.89441   0.46179   0.50000   0.00000  Uiso   1.00
O1132  O     0.89441   0.53821   0.50000   0.00000  Uiso   1.00
O1133  O     0.77226   0.46179   0.50000   0.00000  Uiso   1.00
O1134  O     0.83334   0.53821   0.42845   0.00000  Uiso   1.00
O1135  O     0.83333   0.46179   0.57155   0.00000  Uiso   1.00
O1136  O     0.83333   0.53821   0.57155   0.00000  Uiso   1.00
O1137  O     0.83334   0.46179   0.42845   0.00000  Uiso   1.00
O1138  O     0.70810   0.43109   0.44923   0.00000  Uiso   1.00
Zn1139 Zn    0.83333   0.55104   0.50000   0.00000  Uiso   1.00
Zn1140 Zn    0.83333   0.44896   0.50000   0.00000  Uiso   1.00
C1141  C     0.08686   0.83340   0.49972   0.00000  Uiso   1.00
C1142  C     0.02138   0.86946   0.52149   0.00000  Uiso   1.00
C1143  C     0.29123   0.83333   0.49959   0.00000  Uiso   1.00
C1144  C     0.04296   0.83356   0.49929   0.00000  Uiso   1.00
C1145  C     0.18496   0.69049   0.53790   0.00000  Uiso   1.00
C1146  C     0.14821   0.97618   0.46223   0.00000  Uiso   1.00
C1147  C     0.14828   0.69067   0.46219   0.00000  Uiso   1.00
C1148  C     0.18511   0.97600   0.53780   0.00000  Uiso   1.00
C1149  C     0.05151   0.78196   0.40133   0.00000  Uiso   1.00
C1150  C     0.05558   0.74331   0.36384   0.00000  Uiso   1.00
C1151  C     0.07687   0.75838   0.64894   0.00000  Uiso   1.00
C1152  C     0.24678   0.83329   0.49990   0.00000  Uiso   1.00
C1153  C     0.28880   0.93531   0.47182   0.00000  Uiso   1.00
C1154  C     0.32977   0.95247   0.44997   0.00000  Uiso   1.00
C1155  C     0.32231   0.98226   0.40435   0.00000  Uiso   1.00
C1156  C     0.29050   0.73052   0.52588   0.00000  Uiso   1.00
C1157  C     0.33206   0.71779   0.54995   0.00000  Uiso   1.00
C1158  C     0.32572   0.68515   0.59329   0.00000  Uiso   1.00
C1159  C     0.05000   0.88517   0.59727   0.00000  Uiso   1.00
C1160  C     0.05568   0.92397   0.63406   0.00000  Uiso   1.00
C1161  C     0.07320   0.90777   0.35058   0.00000  Uiso   1.00
C1162  C     0.16745   0.83333   0.40628   0.00000  Uiso   1.00
C1163  C     0.16738   0.83334   0.59372   0.00000  Uiso   1.00
C1164  C     0.16843   0.83333   0.35515   0.00000  Uiso   1.00
C1165  C     0.16840   0.83338   0.64483   0.00000  Uiso   1.00
C1166  C     0.02176   0.79774   0.47685   0.00000  Uiso   1.00
C1167  C     0.31287   0.87286   0.51262   0.00000  Uiso   1.00
C1168  C     0.31328   0.79407   0.48600   0.00000  Uiso   1.00
H1169  H     0.19969   0.70837   0.56827   0.00000  Uiso   1.00
H1170  H     0.07837   0.72999   0.62198   0.00000  Uiso   1.00
H1171  H     0.10897   0.76888   0.65710   0.00000  Uiso   1.00
H1172  H     0.26732   0.96416   0.47696   0.00000  Uiso   1.00
H1173  H     0.27397   0.91267   0.44389   0.00000  Uiso   1.00
H1174  H     0.01371   0.97149   0.47873   0.00000  Uiso   1.00
H1175  H     0.01580   0.92342   0.43810   0.00000  Uiso   1.00
H1176  H     0.30371   0.96409   0.37590   0.00000  Uiso   1.00
H1177  H     0.01913   0.99111   0.38734   0.00000  Uiso   1.00
H1178  H     0.30593   0.68032   0.41542   0.00000  Uiso   1.00
H1179  H     0.27255   0.69937   0.51927   0.00000  Uiso   1.00
H1180  H     0.13344   0.95830   0.43192   0.00000  Uiso   1.00
H1181  H     0.27237   0.75096   0.55318   0.00000  Uiso   1.00
H1182  H     0.01976   0.70254   0.52180   0.00000  Uiso   1.00
H1183  H     0.01377   0.74856   0.56487   0.00000  Uiso   1.00
H1184  H     0.30409   0.69967   0.62145   0.00000  Uiso   1.00
H1185  H     0.02251   0.67888   0.61163   0.00000  Uiso   1.00
H1186  H     0.31322   0.98603   0.57945   0.00000  Uiso   1.00
H1187  H     0.07913   0.86526   0.59543   0.00000  Uiso   1.00
H1188  H     0.02482   0.86319   0.61227   0.00000  Uiso   1.00
H1189  H     0.07691   0.94950   0.61771   0.00000  Uiso   1.00
H1190  H     0.02508   0.93972   0.64118   0.00000  Uiso   1.00
H1191  H     0.13369   0.70873   0.43182   0.00000  Uiso   1.00
H1192  H     0.05264   0.88209   0.36764   0.00000  Uiso   1.00
H1193  H     0.07587   0.93666   0.37668   0.00000  Uiso   1.00
H1194  H     0.10444   0.89326   0.34491   0.00000  Uiso   1.00
H1195  H     0.20007   0.95798   0.56801   0.00000  Uiso   1.00
H1196  H     0.08136   0.80027   0.40345   0.00000  Uiso   1.00
H1197  H     0.02734   0.80549   0.38667   0.00000  Uiso   1.00
H1198  H     0.07372   0.71529   0.38057   0.00000  Uiso   1.00
H1199  H     0.02418   0.73083   0.35467   0.00000  Uiso   1.00
H1200  H     0.05969   0.78676   0.63153   0.00000  Uiso   1.00
N1201  N     0.16667   0.95240   0.50000   0.00000  Uiso   1.00
N1202  N     0.16667   0.71427   0.50000   0.00000  Uiso   1.00
O1203  O     0.10559   0.87154   0.50000   0.00000  Uiso   1.00
O1204  O     0.29388   0.91428   0.51931   0.00000  Uiso   1.00
O1205  O     0.29478   0.75263   0.47887   0.00000  Uiso   1.00
O1206  O     0.04065   0.90273   0.54919   0.00000  Uiso   1.00
O1207  O     0.22774   0.79513   0.50000   0.00000  Uiso   1.00
O1208  O     0.22774   0.87154   0.50000   0.00000  Uiso   1.00
O1209  O     0.10559   0.79513   0.50000   0.00000  Uiso   1.00
O1210  O     0.16667   0.87155   0.42845   0.00000  Uiso   1.00
O1211  O     0.16666   0.79512   0.57155   0.00000  Uiso   1.00
O1212  O     0.16666   0.87155   0.57155   0.00000  Uiso   1.00
O1213  O     0.16667   0.79512   0.42845   0.00000  Uiso   1.00
O1214  O     0.04143   0.76442   0.44923   0.00000  Uiso   1.00
Zn1215 Zn    0.16667   0.88437   0.50000   0.00000  Uiso   1.00
Zn1216 Zn    0.16667   0.78229   0.50000   0.00000  Uiso   1.00
C1217  C     0.42019   0.83340   0.49972   0.00000  Uiso   1.00
C1218  C     0.35471   0.86946   0.52149   0.00000  Uiso   1.00
C1219  C     0.62456   0.83333   0.49959   0.00000  Uiso   1.00
C1220  C     0.37629   0.83356   0.49929   0.00000  Uiso   1.00
C1221  C     0.51829   0.69049   0.53790   0.00000  Uiso   1.00
C1222  C     0.48154   0.97618   0.46223   0.00000  Uiso   1.00
C1223  C     0.48162   0.69067   0.46219   0.00000  Uiso   1.00
C1224  C     0.51844   0.97600   0.53780   0.00000  Uiso   1.00
C1225  C     0.38484   0.78196   0.40133   0.00000  Uiso   1.00
C1226  C     0.38891   0.74331   0.36384   0.00000  Uiso   1.00
C1227  C     0.41021   0.75838   0.64894   0.00000  Uiso   1.00
C1228  C     0.58012   0.83329   0.49990   0.00000  Uiso   1.00
C1229  C     0.62213   0.93531   0.47182   0.00000  Uiso   1.00
C1230  C     0.66311   0.95247   0.44997   0.00000  Uiso   1.00
C1231  C     0.65564   0.98226   0.40435   0.00000  Uiso   1.00
C1232  C     0.62384   0.73052   0.52588   0.00000  Uiso   1.00
C1233  C     0.66540   0.71779   0.54995   0.00000  Uiso   1.00
C1234  C     0.65905   0.68515   0.59329   0.00000  Uiso   1.00
C1235  C     0.38334   0.88517   0.59727   0.00000  Uiso   1.00
C1236  C     0.38902   0.92397   0.63406   0.00000  Uiso   1.00
C1237  C     0.40654   0.90777   0.35058   0.00000  Uiso   1.00
C1238  C     0.50078   0.83333   0.40628   0.00000  Uiso   1.00
C1239  C     0.50071   0.83334   0.59372   0.00000  Uiso   1.00
C1240  C     0.50176   0.83333   0.35515   0.00000  Uiso   1.00
C1241  C     0.50173   0.83338   0.64483   0.00000  Uiso   1.00
C1242  C     0.35509   0.79774   0.47685   0.00000  Uiso   1.00
C1243  C     0.64621   0.87286   0.51262   0.00000  Uiso   1.00
C1244  C     0.64661   0.79407   0.48600   0.00000  Uiso   1.00
H1245  H     0.53303   0.70837   0.56827   0.00000  Uiso   1.00
H1246  H     0.41170   0.72999   0.62198   0.00000  Uiso   1.00
H1247  H     0.44230   0.76888   0.65710   0.00000  Uiso   1.00
H1248  H     0.60065   0.96416   0.47696   0.00000  Uiso   1.00
H1249  H     0.60730   0.91267   0.44389   0.00000  Uiso   1.00
H1250  H     0.34704   0.97149   0.47873   0.00000  Uiso   1.00
H1251  H     0.34913   0.92342   0.43810   0.00000  Uiso   1.00
H1252  H     0.63704   0.96409   0.37590   0.00000  Uiso   1.00
H1253  H     0.35246   0.99111   0.38734   0.00000  Uiso   1.00
H1254  H     0.63927   0.68032   0.41542   0.00000  Uiso   1.00
H1255  H     0.60588   0.69937   0.51927   0.00000  Uiso   1.00
H1256  H     0.46678   0.95830   0.43192   0.00000  Uiso   1.00
H1257  H     0.60570   0.75096   0.55318   0.00000  Uiso   1.00
H1258  H     0.35309   0.70254   0.52180   0.00000  Uiso   1.00
H1259  H     0.34711   0.74856   0.56487   0.00000  Uiso   1.00
H1260  H     0.63742   0.69967   0.62145   0.00000  Uiso   1.00
H1261  H     0.35584   0.67888   0.61163   0.00000  Uiso   1.00
H1262  H     0.64655   0.98603   0.57945   0.00000  Uiso   1.00
H1263  H     0.41247   0.86526   0.59543   0.00000  Uiso   1.00
H1264  H     0.35815   0.86319   0.61227   0.00000  Uiso   1.00
H1265  H     0.41024   0.94950   0.61771   0.00000  Uiso   1.00
H1266  H     0.35841   0.93972   0.64118   0.00000  Uiso   1.00
H1267  H     0.46703   0.70873   0.43182   0.00000  Uiso   1.00
H1268  H     0.38598   0.88209   0.36764   0.00000  Uiso   1.00
H1269  H     0.40920   0.93666   0.37668   0.00000  Uiso   1.00
H1270  H     0.43777   0.89326   0.34491   0.00000  Uiso   1.00
H1271  H     0.53340   0.95798   0.56801   0.00000  Uiso   1.00
H1272  H     0.41469   0.80027   0.40345   0.00000  Uiso   1.00
H1273  H     0.36067   0.80549   0.38667   0.00000  Uiso   1.00
H1274  H     0.40705   0.71529   0.38057   0.00000  Uiso   1.00
H1275  H     0.35751   0.73083   0.35467   0.00000  Uiso   1.00
H1276  H     0.39303   0.78676   0.63153   0.00000  Uiso   1.00
N1277  N     0.50000   0.95240   0.50000   0.00000  Uiso   1.00
N1278  N     0.50000   0.71427   0.50000   0.00000  Uiso   1.00
O1279  O     0.43892   0.87154   0.50000   0.00000  Uiso   1.00
O1280  O     0.62721   0.91428   0.51931   0.00000  Uiso   1.00
O1281  O     0.62811   0.75263   0.47887   0.00000  Uiso   1.00
O1282  O     0.37399   0.90273   0.54919   0.00000  Uiso   1.00
O1283  O     0.56108   0.79513   0.50000   0.00000  Uiso   1.00
O1284  O     0.56108   0.87154   0.50000   0.00000  Uiso   1.00
O1285  O     0.43892   0.79513   0.50000   0.00000  Uiso   1.00
O1286  O     0.50000   0.87155   0.42845   0.00000  Uiso   1.00
O1287  O     0.50000   0.79512   0.57155   0.00000  Uiso   1.00
O1288  O     0.50000   0.87155   0.57155   0.00000  Uiso   1.00
O1289  O     0.50000   0.79512   0.42845   0.00000  Uiso   1.00
O1290  O     0.37476   0.76442   0.44923   0.00000  Uiso   1.00
Zn1291 Zn    0.50000   0.88437   0.50000   0.00000  Uiso   1.00
Zn1292 Zn    0.50000   0.78229   0.50000   0.00000  Uiso   1.00
C1293  C     0.75353   0.83340   0.49972   0.00000  Uiso   1.00
C1294  C     0.68804   0.86946   0.52149   0.00000  Uiso   1.00
C1295  C     0.95790   0.83333   0.49959   0.00000  Uiso   1.00
C1296  C     0.70962   0.83356   0.49929   0.00000  Uiso   1.00
C1297  C     0.85163   0.69049   0.53790   0.00000  Uiso   1.00
C1298  C     0.81487   0.97618   0.46223   0.00000  Uiso   1.00
C1299  C     0.81495   0.69067   0.46219   0.00000  Uiso   1.00
C1300  C     0.85178   0.97600   0.53780   0.00000  Uiso   1.00
C1301  C     0.71817   0.78196   0.40133   0.00000  Uiso   1.00
C1302  C     0.72225   0.74331   0.36384   0.00000  Uiso   1.00
C1303  C     0.74354   0.75838   0.64894   0.00000  Uiso   1.00
C1304  C     0.91345   0.83329   0.49990   0.00000  Uiso   1.00
C1305  C     0.95546   0.93531   0.47182   0.00000  Uiso   1.00
C1306  C     0.99644   0.95247   0.44997   0.00000  Uiso   1.00
C1307  C     0.98898   0.98226   0.40435   0.00000  Uiso   1.00
C1308  C     0.95717   0.73052   0.52588   0.00000  Uiso   1.00
C1309  C     0.99873   0.71779   0.54995   0.00000  Uiso   1.00
C1310  C     0.99239   0.68515   0.59329   0.00000  Uiso   1.00
C1311  C     0.71667   0.88517   0.59727   0.00000  Uiso   1.00
C1312  C     0.72235   0.92397   0.63406   0.00000  Uiso   1.00
C1313  C     0.73987   0.90777   0.35058   0.00000  Uiso   1.00
C1314  C     0.83411   0.83333   0.40628   0.00000  Uiso   1.00
C1315  C     0.83405   0.83334   0.59372   0.00000  Uiso   1.00
C1316  C     0.83509   0.83333   0.35515   0.00000  Uiso   1.00
C1317  C     0.83507   0.83338   0.64483   0.00000  Uiso   1.00
C1318  C     0.68843   0.79774   0.47685   0.00000  Uiso   1.00
C1319  C     0.97954   0.87286   0.51262   0.00000  Uiso   1.00
C1320  C     0.97995   0.79407   0.48600   0.00000  Uiso   1.00
H1321  H     0.86636   0.70837   0.56827   0.00000  Uiso   1.00
H1322  H     0.74503   0.72999   0.62198   0.00000  Uiso   1.00
H1323  H     0.77563   0.76888   0.65710   0.00000  Uiso   1.00
H1324  H     0.93398   0.96416   0.47696   0.00000  Uiso   1.00
H1325  H     0.94064   0.91267   0.44389   0.00000  Uiso   1.00
H1326  H     0.68037   0.97149   0.47873   0.00000  Uiso   1.00
H1327  H     0.68247   0.92342   0.43810   0.00000  Uiso   1.00
H1328  H     0.97038   0.96409   0.37590   0.00000  Uiso   1.00
H1329  H     0.68580   0.99111   0.38734   0.00000  Uiso   1.00
H1330  H     0.97260   0.68032   0.41542   0.00000  Uiso   1.00
H1331  H     0.93921   0.69937   0.51927   0.00000  Uiso   1.00
H1332  H     0.80011   0.95830   0.43192   0.00000  Uiso   1.00
H1333  H     0.93904   0.75096   0.55318   0.00000  Uiso   1.00
H1334  H     0.68643   0.70254   0.52180   0.00000  Uiso   1.00
H1335  H     0.68044   0.74856   0.56487   0.00000  Uiso   1.00
H1336  H     0.97076   0.69967   0.62145   0.00000  Uiso   1.00
H1337  H     0.68918   0.67888   0.61163   0.00000  Uiso   1.00
H1338  H     0.97989   0.98603   0.57945   0.00000  Uiso   1.00
H1339  H     0.74580   0.86526   0.59543   0.00000  Uiso   1.00
H1340  H     0.69149   0.86319   0.61227   0.00000  Uiso   1.00
H1341  H     0.74357   0.94950   0.61771   0.00000  Uiso   1.00
H1342  H     0.69175   0.93972   0.64118   0.00000  Uiso   1.00
H1343  H     0.80036   0.70873   0.43182   0.00000  Uiso   1.00
H1344  H     0.71931   0.88209   0.36764   0.00000  Uiso   1.00
H1345  H     0.74253   0.93666   0.37668   0.00000  Uiso   1.00
H1346  H     0.77111   0.89326   0.34491   0.00000  Uiso   1.00
H1347  H     0.86673   0.95798   0.56801   0.00000  Uiso   1.00
H1348  H     0.74802   0.80027   0.40345   0.00000  Uiso   1.00
H1349  H     0.69400   0.80549   0.38667   0.00000  Uiso   1.00
H1350  H     0.74039   0.71529   0.38057   0.00000  Uiso   1.00
H1351  H     0.69084   0.73083   0.35467   0.00000  Uiso   1.00
H1352  H     0.72636   0.78676   0.63153   0.00000  Uiso   1.00
N1353  N     0.83333   0.95240   0.50000   0.00000  Uiso   1.00
N1354  N     0.83333   0.71427   0.50000   0.00000  Uiso   1.00
O1355  O     0.77226   0.87154   0.50000   0.00000  Uiso   1.00
O1356  O     0.96054   0.91428   0.51931   0.00000  Uiso   1.00
O1357  O     0.96144   0.75263   0.47887   0.00000  Uiso   1.00
O1358  O     0.70732   0.90273   0.54919   0.00000  Uiso   1.00
O1359  O     0.89441   0.79513   0.50000   0.00000  Uiso   1.00
O1360  O     0.89441   0.87154   0.50000   0.00000  Uiso   1.00
O1361  O     0.77226   0.79513   0.50000   0.00000  Uiso   1.00
O1362  O     0.83334   0.87155   0.42845   0.00000  Uiso   1.00
O1363  O     0.83333   0.79512   0.57155   0.00000  Uiso   1.00
O1364  O     0.83333   0.87155   0.57155   0.00000  Uiso   1.00
O1365  O     0.83334   0.79512   0.42845   0.00000  Uiso   1.00
O1366  O     0.70810   0.76442   0.44923   0.00000  Uiso   1.00
Zn1367 Zn    0.83333   0.88437   0.50000   0.00000  Uiso   1.00
Zn1368 Zn    0.83333   0.78229   0.50000   0.00000  Uiso   1.00
C1369  C     0.08686   0.16673   0.83306   0.00000  Uiso   1.00
C1370  C     0.02138   0.20279   0.85482   0.00000  Uiso   1.00
C1371  C     0.29123   0.16667   0.83293   0.00000  Uiso   1.00
C1372  C     0.04296   0.16690   0.83262   0.00000  Uiso   1.00
C1373  C     0.18496   0.02382   0.87123   0.00000  Uiso   1.00
C1374  C     0.14821   0.30952   0.79556   0.00000  Uiso   1.00
C1375  C     0.14828   0.02400   0.79552   0.00000  Uiso   1.00
C1376  C     0.18511   0.30934   0.87114   0.00000  Uiso   1.00
C1377  C     0.05151   0.11529   0.73466   0.00000  Uiso   1.00
C1378  C     0.05558   0.07664   0.69717   0.00000  Uiso   1.00
C1379  C     0.07687   0.09172   0.98228   0.00000  Uiso   1.00
C1380  C     0.24678   0.16662   0.83324   0.00000  Uiso   1.00
C1381  C     0.28880   0.26864   0.80516   0.00000  Uiso   1.00
C1382  C     0.32977   0.28581   0.78330   0.00000  Uiso   1.00
C1383  C     0.32231   0.31559   0.73769   0.00000  Uiso   1.00
C1384  C     0.29050   0.06385   0.85921   0.00000  Uiso   1.00
C1385  C     0.33206   0.05113   0.88328   0.00000  Uiso   1.00
C1386  C     0.32572   0.01848   0.92663   0.00000  Uiso   1.00
C1387  C     0.05000   0.21850   0.93060   0.00000  Uiso   1.00
C1388  C     0.05568   0.25730   0.96739   0.00000  Uiso   1.00
C1389  C     0.07320   0.24111   0.68391   0.00000  Uiso   1.00
C1390  C     0.16745   0.16667   0.73961   0.00000  Uiso   1.00
C1391  C     0.16738   0.16667   0.92705   0.00000  Uiso   1.00
C1392  C     0.16843   0.16666   0.68849   0.00000  Uiso   1.00
C1393  C     0.16840   0.16671   0.97817   0.00000  Uiso   1.00
C1394  C     0.02176   0.13107   0.81019   0.00000  Uiso   1.00
C1395  C     0.31287   0.20619   0.84596   0.00000  Uiso   1.00
C1396  C     0.31328   0.12740   0.81934   0.00000  Uiso   1.00
H1397  H     0.19969   0.04170   0.90161   0.00000  Uiso   1.00
H1398  H     0.07837   0.06333   0.95531   0.00000  Uiso   1.00
H1399  H     0.10897   0.10222   0.99043   0.00000  Uiso   1.00
H1400  H     0.26732   0.29749   0.81030   0.00000  Uiso   1.00
H1401  H     0.27397   0.24600   0.77722   0.00000  Uiso   1.00
H1402  H     0.01371   0.30482   0.81206   0.00000  Uiso   1.00
H1403  H     0.01580   0.25675   0.77144   0.00000  Uiso   1.00
H1404  H     0.30371   0.29742   0.70923   0.00000  Uiso   1.00
H1405  H     0.01913   0.32445   0.72067   0.00000  Uiso   1.00
H1406  H     0.30593   0.01366   0.74875   0.00000  Uiso   1.00
H1407  H     0.27255   0.03271   0.85260   0.00000  Uiso   1.00
H1408  H     0.13344   0.29164   0.76525   0.00000  Uiso   1.00
H1409  H     0.27237   0.08429   0.88652   0.00000  Uiso   1.00
H1410  H     0.01976   0.03587   0.85513   0.00000  Uiso   1.00
H1411  H     0.01377   0.08189   0.89820   0.00000  Uiso   1.00
H1412  H     0.30409   0.03300   0.95479   0.00000  Uiso   1.00
H1413  H     0.02251   0.01221   0.94497   0.00000  Uiso   1.00
H1414  H     0.31322   0.31936   0.91278   0.00000  Uiso   1.00
H1415  H     0.07913   0.19859   0.92876   0.00000  Uiso   1.00
H1416  H     0.02482   0.19652   0.94561   0.00000  Uiso   1.00
H1417  H     0.07691   0.28283   0.95105   0.00000  Uiso   1.00
H1418  H     0.02508   0.27305   0.97451   0.00000  Uiso   1.00
H1419  H     0.13369   0.04206   0.76515   0.00000  Uiso   1.00
H1420  H     0.05264   0.21542   0.70097   0.00000  Uiso   1.00
H1421  H     0.07587   0.27000   0.71001   0.00000  Uiso   1.00
H1422  H     0.10444   0.22659   0.67824   0.00000  Uiso   1.00
H1423  H     0.20007   0.29132   0.90135   0.00000  Uiso   1.00
H1424  H     0.08136   0.13360   0.73679   0.00000  Uiso   1.00
H1425  H     0.02734   0.13883   0.72000   0.00000  Uiso   1.00
H1426  H     0.07372   0.04863   0.71391   0.00000  Uiso   1.00
H1427  H     0.02418   0.06417   0.68800   0.00000  Uiso   1.00
H1428  H     0.05969   0.12009   0.96486   0.00000  Uiso   1.00
N1429  N     0.16667   0.28573   0.83333   0.00000  Uiso   1.00
N1430  N     0.16667   0.04760   0.83333   0.00000  Uiso   1.00
O1431  O     0.10559   0.20487   0.83333   0.00000  Uiso   1.00
O1432  O     0.29388   0.24761   0.85265   0.00000  Uiso   1.00
O1433  O     0.29478   0.08596   0.81220   0.00000  Uiso   1.00
O1434  O     0.04065   0.23606   0.88252   0.00000  Uiso   1.00
O1435  O     0.22774   0.12846   0.83334   0.00000  Uiso   1.00
O1436  O     0.22774   0.20487   0.83334   0.00000  Uiso   1.00
O1437  O     0.10559   0.12846   0.83333   0.00000  Uiso   1.00
O1438  O     0.16667   0.20488   0.76178   0.00000  Uiso   1.00
O1439  O     0.16666   0.12845   0.90489   0.00000  Uiso   1.00
O1440  O     0.16666   0.20488   0.90489   0.00000  Uiso   1.00
O1441  O     0.16667   0.12845   0.76178   0.00000  Uiso   1.00
O1442  O     0.04143   0.09775   0.78257   0.00000  Uiso   1.00
Zn1443 Zn    0.16667   0.21771   0.83333   0.00000  Uiso   1.00
Zn1444 Zn    0.16667   0.11563   0.83333   0.00000  Uiso   1.00
C1445  C     0.42019   0.16673   0.83306   0.00000  Uiso   1.00
C1446  C     0.35471   0.20279   0.85482   0.00000  Uiso   1.00
C1447  C     0.62456   0.16667   0.83293   0.00000  Uiso   1.00
C1448  C     0.37629   0.16690   0.83262   0.00000  Uiso   1.00
C1449  C     0.51829   0.02382   0.87123   0.00000  Uiso   1.00
C1450  C     0.48154   0.30952   0.79556   0.00000  Uiso   1.00
C1451  C     0.48162   0.02400   0.79552   0.00000  Uiso   1.00
C1452  C     0.51844   0.30934   0.87114   0.00000  Uiso   1.00
C1453  C     0.38484   0.11529   0.73466   0.00000  Uiso   1.00
C1454  C     0.38891   0.07664   0.69717   0.00000  Uiso   1.00
C1455  C     0.41021   0.09172   0.98228   0.00000  Uiso   1.00
C1456  C     0.58012   0.16662   0.83324   0.00000  Uiso   1.00
C1457  C     0.62213   0.26864   0.80516   0.00000  Uiso   1.00
C1458  C     0.66311   0.28581   0.78330   0.00000  Uiso   1.00
C1459  C     0.65564   0.31559   0.73769   0.00000  Uiso   1.00
C1460  C     0.62384   0.06385   0.85921   0.00000  Uiso   1.00
C1461  C     0.66540   0.05113   0.88328   0.00000  Uiso   1.00
C1462  C     0.65905   0.01848   0.92663   0.00000  Uiso   1.00
C1463  C     0.38334   0.21850   0.93060   0.00000  Uiso   1.00
C1464  C     0.38902   0.25730   0.96739   0.00000  Uiso   1.00
C1465  C     0.40654   0.24111   0.68391   0.00000  Uiso   1.00
C1466  C     0.50078   0.16667   0.73961   0.00000  Uiso   1.00
C1467  C     0.50071   0.16667   0.92705   0.00000  Uiso   1.00
C1468  C     0.50176   0.16666   0.68849   0.00000  Uiso   1.00
C1469  C     0.50173   0.16671   0.97817   0.00000  Uiso   1.00
C1470  C     0.35509   0.13107   0.81019   0.00000  Uiso   1.00
C1471  C     0.64621   0.20619   0.84596   0.00000  Uiso   1.00
C1472  C     0.64661   0.12740   0.81934   0.00000  Uiso   1.00
H1473  H     0.53303   0.04170   0.90161   0.00000  Uiso   1.00
H1474  H     0.41170   0.06333   0.95531   0.00000  Uiso   1.00
H1475  H     0.44230   0.10222   0.99043   0.00000  Uiso   1.00
H1476  H     0.60065   0.29749   0.81030   0.00000  Uiso   1.00
H1477  H     0.60730   0.24600   0.77722   0.00000  Uiso   1.00
H1478  H     0.34704   0.30482   0.81206   0.00000  Uiso   1.00
H1479  H     0.34913   0.25675   0.77144   0.00000  Uiso   1.00
H1480  H     0.63704   0.29742   0.70923   0.00000  Uiso   1.00
H1481  H     0.35246   0.32445   0.72067   0.00000  Uiso   1.00
H1482  H     0.63927   0.01366   0.74875   0.00000  Uiso   1.00
H1483  H     0.60588   0.03271   0.85260   0.00000  Uiso   1.00
H1484  H     0.46678   0.29164   0.76525   0.00000  Uiso   1.00
H1485  H     0.60570   0.08429   0.88652   0.00000  Uiso   1.00
H1486  H     0.35309   0.03587   0.85513   0.00000  Uiso   1.00
H1487  H     0.34711   0.08189   0.89820   0.00000  Uiso   1.00
H1488  H     0.63742   0.03300   0.95479   0.00000  Uiso   1.00
H1489  H     0.35584   0.01221   0.94497   0.00000  Uiso   1.00
H1490  H     0.64655   0.31936   0.91278   0.00000  Uiso   1.00
H1491  H     0.41247   0.19859   0.92876   0.00000  Uiso   1.00
H1492  H     0.35815   0.19652   0.94561   0.00000  Uiso   1.00
H1493  H     0.41024   0.28283   0.95105   0.00000  Uiso   1.00
H1494  H     0.35841   0.27305   0.97451   0.00000  Uiso   1.00
H1495  H     0.46703   0.04206   0.76515   0.00000  Uiso   1.00
H1496  H     0.38598   0.21542   0.70097   0.00000  Uiso   1.00
H1497  H     0.40920   0.27000   0.71001   0.00000  Uiso   1.00
H1498  H     0.43777   0.22659   0.67824   0.00000  Uiso   1.00
H1499  H     0.53340   0.29132   0.90135   0.00000  Uiso   1.00
H1500  H     0.41469   0.13360   0.73679   0.00000  Uiso   1.00
H1501  H     0.36067   0.13883   0.72000   0.00000  Uiso   1.00
H1502  H     0.40705   0.04863   0.71391   0.00000  Uiso   1.00
H1503  H     0.35751   0.06417   0.68800   0.00000  Uiso   1.00
H1504  H     0.39303   0.12009   0.96486   0.00000  Uiso   1.00
N1505  N     0.50000   0.28573   0.83333   0.00000  Uiso   1.00
N1506  N     0.50000   0.04760   0.83333   0.00000  Uiso   1.00
O1507  O     0.43892   0.20487   0.83333   0.00000  Uiso   1.00
O1508  O     0.62721   0.24761   0.85265   0.00000  Uiso   1.00
O1509  O     0.62811   0.08596   0.81220   0.00000  Uiso   1.00
O1510  O     0.37399   0.23606   0.88252   0.00000  Uiso   1.00
O1511  O     0.56108   0.12846   0.83334   0.00000  Uiso   1.00
O1512  O     0.56108   0.20487   0.83334   0.00000  Uiso   1.00
O1513  O     0.43892   0.12846   0.83333   0.00000  Uiso   1.00
O1514  O     0.50000   0.20488   0.76178   0.00000  Uiso   1.00
O1515  O     0.50000   0.12845   0.90489   0.00000  Uiso   1.00
O1516  O     0.50000   0.20488   0.90489   0.00000  Uiso   1.00
O1517  O     0.50000   0.12845   0.76178   0.00000  Uiso   1.00
O1518  O     0.37476   0.09775   0.78257   0.00000  Uiso   1.00
Zn1519 Zn    0.50000   0.21771   0.83333   0.00000  Uiso   1.00
Zn1520 Zn    0.50000   0.11563   0.83333   0.00000  Uiso   1.00
C1521  C     0.75353   0.16673   0.83306   0.00000  Uiso   1.00
C1522  C     0.68804   0.20279   0.85482   0.00000  Uiso   1.00
C1523  C     0.95790   0.16667   0.83293   0.00000  Uiso   1.00
C1524  C     0.70962   0.16690   0.83262   0.00000  Uiso   1.00
C1525  C     0.85163   0.02382   0.87123   0.00000  Uiso   1.00
C1526  C     0.81487   0.30952   0.79556   0.00000  Uiso   1.00
C1527  C     0.81495   0.02400   0.79552   0.00000  Uiso   1.00
C1528  C     0.85178   0.30934   0.87114   0.00000  Uiso   1.00
C1529  C     0.71817   0.11529   0.73466   0.00000  Uiso   1.00
C1530  C     0.72225   0.07664   0.69717   0.00000  Uiso   1.00
C1531  C     0.74354   0.09172   0.98228   0.00000  Uiso   1.00
C1532  C     0.91345   0.16662   0.83324   0.00000  Uiso   1.00
C1533  C     0.95546   0.26864   0.80516   0.00000  Uiso   1.00
C1534  C     0.99644   0.28581   0.78330   0.00000  Uiso   1.00
C1535  C     0.98898   0.31559   0.73769   0.00000  Uiso   1.00
C1536  C     0.95717   0.06385   0.85921   0.00000  Uiso   1.00
C1537  C     0.99873   0.05113   0.88328   0.00000  Uiso   1.00
C1538  C     0.99239   0.01848   0.92663   0.00000  Uiso   1.00
C1539  C     0.71667   0.21850   0.93060   0.00000  Uiso   1.00
C1540  C     0.72235   0.25730   0.96739   0.00000  Uiso   1.00
C1541  C     0.73987   0.24111   0.68391   0.00000  Uiso   1.00
C1542  C     0.83411   0.16667   0.73961   0.00000  Uiso   1.00
C1543  C     0.83405   0.16667   0.92705   0.00000  Uiso   1.00
C1544  C     0.83509   0.16666   0.68849   0.00000  Uiso   1.00
C1545  C     0.83507   0.16671   0.97817   0.00000  Uiso   1.00
C1546  C     0.68843   0.13107   0.81019   0.00000  Uiso   1.00
C1547  C     0.97954   0.20619   0.84596   0.00000  Uiso   1.00
C1548  C     0.97995   0.12740   0.81934   0.00000  Uiso   1.00
H1549  H     0.86636   0.04170   0.90161   0.00000  Uiso   1.00
H1550  H     0.74503   0.06333   0.95531   0.00000  Uiso   1.00
H1551  H     0.77563   0.10222   0.99043   0.00000  Uiso   1.00
H1552  H     0.93398   0.29749   0.81030   0.00000  Uiso   1.00
H1553  H     0.94064   0.24600   0.77722   0.00000  Uiso   1.00
H1554  H     0.68037   0.30482   0.81206   0.00000  Uiso   1.00
H1555  H     0.68247   0.25675   0.77144   0.00000  Uiso   1.00
H1556  H     0.97038   0.29742   0.70923   0.00000  Uiso   1.00
H1557  H     0.68580   0.32445   0.72067   0.00000  Uiso   1.00
H1558  H     0.97260   0.01366   0.74875   0.00000  Uiso   1.00
H1559  H     0.93921   0.03271   0.85260   0.00000  Uiso   1.00
H1560  H     0.80011   0.29164   0.76525   0.00000  Uiso   1.00
H1561  H     0.93904   0.08429   0.88652   0.00000  Uiso   1.00
H1562  H     0.68643   0.03587   0.85513   0.00000  Uiso   1.00
H1563  H     0.68044   0.08189   0.89820   0.00000  Uiso   1.00
H1564  H     0.97076   0.03300   0.95479   0.00000  Uiso   1.00
H1565  H     0.68918   0.01221   0.94497   0.00000  Uiso   1.00
H1566  H     0.97989   0.31936   0.91278   0.00000  Uiso   1.00
H1567  H     0.74580   0.19859   0.92876   0.00000  Uiso   1.00
H1568  H     0.69149   0.19652   0.94561   0.00000  Uiso   1.00
H1569  H     0.74357   0.28283   0.95105   0.00000  Uiso   1.00
H1570  H     0.69175   0.27305   0.97451   0.00000  Uiso   1.00
H1571  H     0.80036   0.04206   0.76515   0.00000  Uiso   1.00
H1572  H     0.71931   0.21542   0.70097   0.00000  Uiso   1.00
H1573  H     0.74253   0.27000   0.71001   0.00000  Uiso   1.00
H1574  H     0.77111   0.22659   0.67824   0.00000  Uiso   1.00
H1575  H     0.86673   0.29132   0.90135   0.00000  Uiso   1.00
H1576  H     0.74802   0.13360   0.73679   0.00000  Uiso   1.00
H1577  H     0.69400   0.13883   0.72000   0.00000  Uiso   1.00
H1578  H     0.74039   0.04863   0.71391   0.00000  Uiso   1.00
H1579  H     0.69084   0.06417   0.68800   0.00000  Uiso   1.00
H1580  H     0.72636   0.12009   0.96486   0.00000  Uiso   1.00
N1581  N     0.83333   0.28573   0.83333   0.00000  Uiso   1.00
N1582  N     0.83333   0.04760   0.83333   0.00000  Uiso   1.00
O1583  O     0.77226   0.20487   0.83333   0.00000  Uiso   1.00
O1584  O     0.96054   0.24761   0.85265   0.00000  Uiso   1.00
O1585  O     0.96144   0.08596   0.81220   0.00000  Uiso   1.00
O1586  O     0.70732   0.23606   0.88252   0.00000  Uiso   1.00
O1587  O     0.89441   0.12846   0.83334   0.00000  Uiso   1.00
O1588  O     0.89441   0.20487   0.83334   0.00000  Uiso   1.00
O1589  O     0.77226   0.12846   0.83333   0.00000  Uiso   1.00
O1590  O     0.83334   0.20488   0.76178   0.00000  Uiso   1.00
O1591  O     0.83333   0.12845   0.90489   0.00000  Uiso   1.00
O1592  O     0.83333   0.20488   0.90489   0.00000  Uiso   1.00
O1593  O     0.83334   0.12845   0.76178   0.00000  Uiso   1.00
O1594  O     0.70810   0.09775   0.78257   0.00000  Uiso   1.00
Zn1595 Zn    0.83333   0.21771   0.83333   0.00000  Uiso   1.00
Zn1596 Zn    0.83333   0.11563   0.83333   0.00000  Uiso   1.00
C1597  C     0.08686   0.50007   0.83306   0.00000  Uiso   1.00
C1598  C     0.02138   0.53612   0.85482   0.00000  Uiso   1.00
C1599  C     0.29123   0.50000   0.83293   0.00000  Uiso   1.00
C1600  C     0.04296   0.50023   0.83262   0.00000  Uiso   1.00
C1601  C     0.18496   0.35715   0.87123   0.00000  Uiso   1.00
C1602  C     0.14821   0.64285   0.79556   0.00000  Uiso   1.00
C1603  C     0.14828   0.35733   0.79552   0.00000  Uiso   1.00
C1604  C     0.18511   0.64267   0.87114   0.00000  Uiso   1.00
C1605  C     0.05151   0.44862   0.73466   0.00000  Uiso   1.00
C1606  C     0.05558   0.40997   0.69717   0.00000  Uiso   1.00
C1607  C     0.07687   0.42505   0.98228   0.00000  Uiso   1.00
C1608  C     0.24678   0.49995   0.83324   0.00000  Uiso   1.00
C1609  C     0.28880   0.60197   0.80516   0.00000  Uiso   1.00
C1610  C     0.32977   0.61914   0.78330   0.00000  Uiso   1.00
C1611  C     0.32231   0.64892   0.73769   0.00000  Uiso   1.00
C1612  C     0.29050   0.39718   0.85921   0.00000  Uiso   1.00
C1613  C     0.33206   0.38446   0.88328   0.00000  Uiso   1.00
C1614  C     0.32572   0.35182   0.92663   0.00000  Uiso   1.00
C1615  C     0.05000   0.55183   0.93060   0.00000  Uiso   1.00
C1616  C     0.05568   0.59064   0.96739   0.00000  Uiso   1.00
C1617  C     0.07320   0.57444   0.68391   0.00000  Uiso   1.00
C1618  C     0.16745   0.50000   0.73961   0.00000  Uiso   1.00
C1619  C     0.16738   0.50000   0.92705   0.00000  Uiso   1.00
C1620  C     0.16843   0.49999   0.68849   0.00000  Uiso   1.00
C1621  C     0.16840   0.50004   0.97817   0.00000  Uiso   1.00
C1622  C     0.02176   0.46440   0.81019   0.00000  Uiso   1.00
C1623  C     0.31287   0.53953   0.84596   0.00000  Uiso   1.00
C1624  C     0.31328   0.46073   0.81934   0.00000  Uiso   1.00
H1625  H     0.19969   0.37503   0.90161   0.00000  Uiso   1.00
H1626  H     0.07837   0.39666   0.95531   0.00000  Uiso   1.00
H1627  H     0.10897   0.43555   0.99043   0.00000  Uiso   1.00
H1628  H     0.26732   0.63083   0.81030   0.00000  Uiso   1.00
H1629  H     0.27397   0.57934   0.77722   0.00000  Uiso   1.00
H1630  H     0.01371   0.63815   0.81206   0.00000  Uiso   1.00
H1631  H     0.01580   0.59008   0.77144   0.00000  Uiso   1.00
H1632  H     0.30371   0.63075   0.70923   0.00000  Uiso   1.00
H1633  H     0.01913   0.65778   0.72067   0.00000  Uiso   1.00
H1634  H     0.30593   0.34699   0.74875   0.00000  Uiso   1.00
H1635  H     0.27255   0.36604   0.85260   0.00000  Uiso   1.00
H1636  H     0.13344   0.62497   0.76525   0.00000  Uiso   1.00
H1637  H     0.27237   0.41762   0.88652   0.00000  Uiso   1.00
H1638  H     0.01976   0.36920   0.85513   0.00000  Uiso   1.00
H1639  H     0.01377   0.41523   0.89820   0.00000  Uiso   1.00
H1640  H     0.30409   0.36634   0.95479   0.00000  Uiso   1.00
H1641  H     0.02251   0.34555   0.94497   0.00000  Uiso   1.00
H1642  H     0.31322   0.65269   0.91278   0.00000  Uiso   1.00
H1643  H     0.07913   0.53192   0.92876   0.00000  Uiso   1.00
H1644  H     0.02482   0.52985   0.94561   0.00000  Uiso   1.00
H1645  H     0.07691   0.61616   0.95105   0.00000  Uiso   1.00
H1646  H     0.02508   0.60638   0.97451   0.00000  Uiso   1.00
H1647  H     0.13369   0.37539   0.76515   0.00000  Uiso   1.00
H1648  H     0.05264   0.54876   0.70097   0.00000  Uiso   1.00
H1649  H     0.07587   0.60333   0.71001   0.00000  Uiso   1.00
H1650  H     0.10444   0.55993   0.67824   0.00000  Uiso   1.00
H1651  H     0.20007   0.62465   0.90135   0.00000  Uiso   1.00
H1652  H     0.08136   0.46694   0.73679   0.00000  Uiso   1.00
H1653  H     0.02734   0.47216   0.72000   0.00000  Uiso   1.00
H1654  H     0.07372   0.38196   0.71391   0.00000  Uiso   1.00
H1655  H     0.02418   0.39750   0.68800   0.00000  Uiso   1.00
H1656  H     0.05969   0.45342   0.96486   0.00000  Uiso   1.00
N1657  N     0.16667   0.61907   0.83333   0.00000  Uiso   1.00
N1658  N     0.16667   0.38093   0.83333   0.00000  Uiso   1.00
O1659  O     0.10559   0.53821   0.83333   0.00000  Uiso   1.00
O1660  O     0.29388   0.58095   0.85265   0.00000  Uiso   1.00
O1661  O     0.29478   0.41930   0.81220   0.00000  Uiso   1.00
O1662  O     0.04065   0.56940   0.88252   0.00000  Uiso   1.00
O1663  O     0.22774   0.46179   0.83334   0.00000  Uiso   1.00
O1664  O     0.22774   0.53821   0.83334   0.00000  Uiso   1.00
O1665  O     0.10559   0.46179   0.83333   0.00000  Uiso   1.00
O1666  O     0.16667   0.53821   0.76178   0.00000  Uiso   1.00
O1667  O     0.16666   0.46179   0.90489   0.00000  Uiso   1.00
O1668  O     0.16666   0.53821   0.90489   0.00000  Uiso   1.00
O1669  O     0.16667   0.46179   0.76178   0.00000  Uiso   1.00
O1670  O     0.04143   0.43109   0.78257   0.00000  Uiso   1.00
Zn1671 Zn    0.16667   0.55104   0.83333   0.00000  Uiso   1.00
Zn1672 Zn    0.16667   0.44896   0.83333   0.00000  Uiso   1.00
C1673  C     0.42019   0.50007   0.83306   0.00000  Uiso   1.00
C1674  C     0.35471   0.53612   0.85482   0.00000  Uiso   1.00
C1675  C     0.62456   0.50000   0.83293   0.00000  Uiso   1.00
C1676  C     0.37629   0.50023   0.83262   0.00000  Uiso   1.00
C1677  C     0.51829   0.35715   0.87123   0.00000  Uiso   1.00
C1678  C     0.48154   0.64285   0.79556   0.00000  Uiso   1.00
C1679  C     0.48162   0.35733   0.79552   0.00000  Uiso   1.00
C1680  C     0.51844   0.64267   0.87114   0.00000  Uiso   1.00
C1681  C     0.38484   0.44862   0.73466   0.00000  Uiso   1.00
C1682  C     0.38891   0.40997   0.69717   0.00000  Uiso   1.00
C1683  C     0.41021   0.42505   0.98228   0.00000  Uiso   1.00
C1684  C     0.58012   0.49995   0.83324   0.00000  Uiso   1.00
C1685  C     0.62213   0.60197   0.80516   0.00000  Uiso   1.00
C1686  C     0.66311   0.61914   0.78330   0.00000  Uiso   1.00
C1687  C     0.65564   0.64892   0.73769   0.00000  Uiso   1.00
C1688  C     0.62384   0.39718   0.85921   0.00000  Uiso   1.00
C1689  C     0.66540   0.38446   0.88328   0.00000  Uiso   1.00
C1690  C     0.65905   0.35182   0.92663   0.00000  Uiso   1.00
C1691  C     0.38334   0.55183   0.93060   0.00000  Uiso   1.00
C1692  C     0.38902   0.59064   0.96739   0.00000  Uiso   1.00
C1693  C     0.40654   0.57444   0.68391   0.00000  Uiso   1.00
C1694  C     0.50078   0.50000   0.73961   0.00000  Uiso   1.00
C1695  C     0.50071   0.50000   0.92705   0.00000  Uiso   1.00
C1696  C     0.50176   0.49999   0.68849   0.00000  Uiso   1.00
C1697  C     0.50173   0.50004   0.97817   0.00000  Uiso   1.00
C1698  C     0.35509   0.46440   0.81019   0.00000  Uiso   1.00
C1699  C     0.64621   0.53953   0.84596   0.00000  Uiso   1.00
C1700  C     0.64661   0.46073   0.81934   0.00000  Uiso   1.00
H1701  H     0.53303   0.37503   0.90161   0.00000  Uiso   1.00
H1702  H     0.41170   0.39666   0.95531   0.00000  Uiso   1.00
H1703  H     0.44230   0.43555   0.99043   0.00000  Uiso   1.00
H1704  H     0.60065   0.63083   0.81030   0.00000  Uiso   1.00
H1705  H     0.60730   0.57934   0.77722   0.00000  Uiso   1.00
H1706  H     0.34704   0.63815   0.81206   0.00000  Uiso   1.00
H1707  H     0.34913   0.59008   0.77144   0.00000  Uiso   1.00
H1708  H     0.63704   0.63075   0.70923   0.00000  Uiso   1.00
H1709  H     0.35246   0.65778   0.72067   0.00000  Uiso   1.00
H1710  H     0.63927   0.34699   0.74875   0.00000  Uiso   1.00
H1711  H     0.60588   0.36604   0.85260   0.00000  Uiso   1.00
H1712  H     0.46678   0.62497   0.76525   0.00000  Uiso   1.00
H1713  H     0.60570   0.41762   0.88652   0.00000  Uiso   1.00
H1714  H     0.35309   0.36920   0.85513   0.00000  Uiso   1.00
H1715  H     0.34711   0.41523   0.89820   0.00000  Uiso   1.00
H1716  H     0.63742   0.36634   0.95479   0.00000  Uiso   1.00
H1717  H     0.35584   0.34555   0.94497   0.00000  Uiso   1.00
H1718  H     0.64655   0.65269   0.91278   0.00000  Uiso   1.00
H1719  H     0.41247   0.53192   0.92876   0.00000  Uiso   1.00
H1720  H     0.35815   0.52985   0.94561   0.00000  Uiso   1.00
H1721  H     0.41024   0.61616   0.95105   0.00000  Uiso   1.00
H1722  H     0.35841   0.60638   0.97451   0.00000  Uiso   1.00
H1723  H     0.46703   0.37539   0.76515   0.00000  Uiso   1.00
H1724  H     0.38598   0.54876   0.70097   0.00000  Uiso   1.00
H1725  H     0.40920   0.60333   0.71001   0.00000  Uiso   1.00
H1726  H     0.43777   0.55993   0.67824   0.00000  Uiso   1.00
H1727  H     0.53340   0.62465   0.90135   0.00000  Uiso   1.00
H1728  H     0.41469   0.46694   0.73679   0.00000  Uiso   1.00
H1729  H     0.36067   0.47216   0.72000   0.00000  Uiso   1.00
H1730  H     0.40705   0.38196   0.71391   0.00000  Uiso   1.00
H1731  H     0.35751   0.39750   0.68800   0.00000  Uiso   1.00
H1732  H     0.39303   0.45342   0.96486   0.00000  Uiso   1.00
N1733  N     0.50000   0.61907   0.83333   0.00000  Uiso   1.00
N1734  N     0.50000   0.38093   0.83333   0.00000  Uiso   1.00
O1735  O     0.43892   0.53821   0.83333   0.00000  Uiso   1.00
O1736  O     0.62721   0.58095   0.85265   0.00000  Uiso   1.00
O1737  O     0.62811   0.41930   0.81220   0.00000  Uiso   1.00
O1738  O     0.37399   0.56940   0.88252   0.00000  Uiso   1.00
O1739  O     0.56108   0.46179   0.83334   0.00000  Uiso   1.00
O1740  O     0.56108   0.53821   0.83334   0.00000  Uiso   1.00
O1741  O     0.43892   0.46179   0.83333   0.00000  Uiso   1.00
O1742  O     0.50000   0.53821   0.76178   0.00000  Uiso   1.00
O1743  O     0.50000   0.46179   0.90489   0.00000  Uiso   1.00
O1744  O     0.50000   0.53821   0.90489   0.00000  Uiso   1.00
O1745  O     0.50000   0.46179   0.76178   0.00000  Uiso   1.00
O1746  O     0.37476   0.43109   0.78257   0.00000  Uiso   1.00
Zn1747 Zn    0.50000   0.55104   0.83333   0.00000  Uiso   1.00
Zn1748 Zn    0.50000   0.44896   0.83333   0.00000  Uiso   1.00
C1749  C     0.75353   0.50007   0.83306   0.00000  Uiso   1.00
C1750  C     0.68804   0.53612   0.85482   0.00000  Uiso   1.00
C1751  C     0.95790   0.50000   0.83293   0.00000  Uiso   1.00
C1752  C     0.70962   0.50023   0.83262   0.00000  Uiso   1.00
C1753  C     0.85163   0.35715   0.87123   0.00000  Uiso   1.00
C1754  C     0.81487   0.64285   0.79556   0.00000  Uiso   1.00
C1755  C     0.81495   0.35733   0.79552   0.00000  Uiso   1.00
C1756  C     0.85178   0.64267   0.87114   0.00000  Uiso   1.00
C1757  C     0.71817   0.44862   0.73466   0.00000  Uiso   1.00
C1758  C     0.72225   0.40997   0.69717   0.00000  Uiso   1.00
C1759  C     0.74354   0.42505   0.98228   0.00000  Uiso   1.00
C1760  C     0.91345   0.49995   0.83324   0.00000  Uiso   1.00
C1761  C     0.95546   0.60197   0.80516   0.00000  Uiso   1.00
C1762  C     0.99644   0.61914   0.78330   0.00000  Uiso   1.00
C1763  C     0.98898   0.64892   0.73769   0.00000  Uiso   1.00
C1764  C     0.95717   0.39718   0.85921   0.00000  Uiso   1.00
C1765  C     0.99873   0.38446   0.88328   0.00000  Uiso   1.00
C1766  C     0.99239   0.35182   0.92663   0.00000  Uiso   1.00
C1767  C     0.71667   0.55183   0.93060   0.00000  Uiso   1.00
C1768  C     0.72235   0.59064   0.96739   0.00000  Uiso   1.00
C1769  C     0.73987   0.57444   0.68391   0.00000  Uiso   1.00
C1770  C     0.83411   0.50000   0.73961   0.00000  Uiso   1.00
C1771  C     0.83405   0.50000   0.92705   0.00000  Uiso   1.00
C1772  C     0.83509   0.49999   0.68849   0.00000  Uiso   1.00
C1773  C     0.83507   0.50004   0.97817   0.00000  Uiso   1.00
C1774  C     0.68843   0.46440   0.81019   0.00000  Uiso   1.00
C1775  C     0.97954   0.53953   0.84596   0.00000  Uiso   1.00
C1776  C     0.97995   0.46073   0.81934   0.00000  Uiso   1.00
H1777  H     0.86636   0.37503   0.90161   0.00000  Uiso   1.00
H1778  H     0.74503   0.39666   0.95531   0.00000  Uiso   1.00
H1779  H     0.77563   0.43555   0.99043   0.00000  Uiso   1.00
H1780  H     0.93398   0.63083   0.81030   0.00000  Uiso   1.00
H1781  H     0.94064   0.57934   0.77722   0.00000  Uiso   1.00
H1782  H     0.68037   0.63815   0.81206   0.00000  Uiso   1.00
H1783  H     0.68247   0.59008   0.77144   0.00000  Uiso   1.00
H1784  H     0.97038   0.63075   0.70923   0.00000  Uiso   1.00
H1785  H     0.68580   0.65778   0.72067   0.00000  Uiso   1.00
H1786  H     0.97260   0.34699   0.74875   0.00000  Uiso   1.00
H1787  H     0.93921   0.36604   0.85260   0.00000  Uiso   1.00
H1788  H     0.80011   0.62497   0.76525   0.00000  Uiso   1.00
H1789  H     0.93904   0.41762   0.88652   0.00000  Uiso   1.00
H1790  H     0.68643   0.36920   0.85513   0.00000  Uiso   1.00
H1791  H     0.68044   0.41523   0.89820   0.00000  Uiso   1.00
H1792  H     0.97076   0.36634   0.95479   0.00000  Uiso   1.00
H1793  H     0.68918   0.34555   0.94497   0.00000  Uiso   1.00
H1794  H     0.97989   0.65269   0.91278   0.00000  Uiso   1.00
H1795  H     0.74580   0.53192   0.92876   0.00000  Uiso   1.00
H1796  H     0.69149   0.52985   0.94561   0.00000  Uiso   1.00
H1797  H     0.74357   0.61616   0.95105   0.00000  Uiso   1.00
H1798  H     0.69175   0.60638   0.97451   0.00000  Uiso   1.00
H1799  H     0.80036   0.37539   0.76515   0.00000  Uiso   1.00
H1800  H     0.71931   0.54876   0.70097   0.00000  Uiso   1.00
H1801  H     0.74253   0.60333   0.71001   0.00000  Uiso   1.00
H1802  H     0.77111   0.55993   0.67824   0.00000  Uiso   1.00
H1803  H     0.86673   0.62465   0.90135   0.00000  Uiso   1.00
H1804  H     0.74802   0.46694   0.73679   0.00000  Uiso   1.00
H1805  H     0.69400   0.47216   0.72000   0.00000  Uiso   1.00
H1806  H     0.74039   0.38196   0.71391   0.00000  Uiso   1.00
H1807  H     0.69084   0.39750   0.68800   0.00000  Uiso   1.00
H1808  H     0.72636   0.45342   0.96486   0.00000  Uiso   1.00
N1809  N     0.83333   0.61907   0.83333   0.00000  Uiso   1.00
N1810  N     0.83333   0.38093   0.83333   0.00000  Uiso   1.00
O1811  O     0.77226   0.53821   0.83333   0.00000  Uiso   1.00
O1812  O     0.96054   0.58095   0.85265   0.00000  Uiso   1.00
O1813  O     0.96144   0.41930   0.81220   0.00000  Uiso   1.00
O1814  O     0.70732   0.56940   0.88252   0.00000  Uiso   1.00
O1815  O     0.89441   0.46179   0.83334   0.00000  Uiso   1.00
O1816  O     0.89441   0.53821   0.83334   0.00000  Uiso   1.00
O1817  O     0.77226   0.46179   0.83333   0.00000  Uiso   1.00
O1818  O     0.83334   0.53821   0.76178   0.00000  Uiso   1.00
O1819  O     0.83333   0.46179   0.90489   0.00000  Uiso   1.00
O1820  O     0.83333   0.53821   0.90489   0.00000  Uiso   1.00
O1821  O     0.83334   0.46179   0.76178   0.00000  Uiso   1.00
O1822  O     0.70810   0.43109   0.78257   0.00000  Uiso   1.00
Zn1823 Zn    0.83333   0.55104   0.83333   0.00000  Uiso   1.00
Zn1824 Zn    0.83333   0.44896   0.83333   0.00000  Uiso   1.00
C1825  C     0.08686   0.83340   0.83306   0.00000  Uiso   1.00
C1826  C     0.02138   0.86946   0.85482   0.00000  Uiso   1.00
C1827  C     0.29123   0.83333   0.83293   0.00000  Uiso   1.00
C1828  C     0.04296   0.83356   0.83262   0.00000  Uiso   1.00
C1829  C     0.18496   0.69049   0.87123   0.00000  Uiso   1.00
C1830  C     0.14821   0.97618   0.79556   0.00000  Uiso   1.00
C1831  C     0.14828   0.69067   0.79552   0.00000  Uiso   1.00
C1832  C     0.18511   0.97600   0.87114   0.00000  Uiso   1.00
C1833  C     0.05151   0.78196   0.73466   0.00000  Uiso   1.00
C1834  C     0.05558   0.74331   0.69717   0.00000  Uiso   1.00
C1835  C     0.07687   0.75838   0.98228   0.00000  Uiso   1.00
C1836  C     0.24678   0.83329   0.83324   0.00000  Uiso   1.00
C1837  C     0.28880   0.93531   0.80516   0.00000  Uiso   1.00
C1838  C     0.32977   0.95247   0.78330   0.00000  Uiso   1.00
C1839  C     0.32231   0.98226   0.73769   0.00000  Uiso   1.00
C1840  C     0.29050   0.73052   0.85921   0.00000  Uiso   1.00
C1841  C     0.33206   0.71779   0.88328   0.00000  Uiso   1.00
C1842  C     0.32572   0.68515   0.92663   0.00000  Uiso   1.00
C1843  C     0.05000   0.88517   0.93060   0.00000  Uiso   1.00
C1844  C     0.05568   0.92397   0.96739   0.00000  Uiso   1.00
C1845  C     0.07320   0.90777   0.68391   0.00000  Uiso   1.00
C1846  C     0.16745   0.83333   0.73961   0.00000  Uiso   1.00
C1847  C     0.16738   0.83334   0.92705   0.00000  Uiso   1.00
C1848  C     0.16843   0.83333   0.68849   0.00000  Uiso   1.00
C1849  C     0.16840   0.83338   0.97817   0.00000  Uiso   1.00
C1850  C     0.02176   0.79774   0.81019   0.00000  Uiso   1.00
C1851  C     0.31287   0.87286   0.84596   0.00000  Uiso   1.00
C1852  C     0.31328   0.79407   0.81934   0.00000  Uiso   1.00
H1853  H     0.19969   0.70837   0.90161   0.00000  Uiso   1.00
H1854  H     0.07837   0.72999   0.95531   0.00000  Uiso   1.00
H1855  H     0.10897   0.76888   0.99043   0.00000  Uiso   1.00
H1856  H     0.26732   0.96416   0.81030   0.00000  Uiso   1.00
H1857  H     0.27397   0.91267   0.77722   0.00000  Uiso   1.00
H1858  H     0.01371   0.97149   0.81206   0.00000  Uiso   1.00
H1859  H     0.01580   0.92342   0.77144   0.00000  Uiso   1.00
H1860  H     0.30371   0.96409   0.70923   0.00000  Uiso   1.00
H1861  H     0.01913   0.99111   0.72067   0.00000  Uiso   1.00
H1862  H     0.30593   0.68032   0.74875   0.00000  Uiso   1.00
H1863  H     0.27255   0.69937   0.85260   0.00000  Uiso   1.00
H1864  H     0.13344   0.95830   0.76525   0.00000  Uiso   1.00
H1865  H     0.27237   0.75096   0.88652   0.00000  Uiso   1.00
H1866  H     0.01976   0.70254   0.85513   0.00000  Uiso   1.00
H1867  H     0.01377   0.74856   0.89820   0.00000  Uiso   1.00
H1868  H     0.30409   0.69967   0.95479   0.00000  Uiso   1.00
H1869  H     0.02251   0.67888   0.94497   0.00000  Uiso   1.00
H1870  H     0.31322   0.98603   0.91278   0.00000  Uiso   1.00
H1871  H     0.07913   0.86526   0.92876   0.00000  Uiso   1.00
H1872  H     0.02482   0.86319   0.94561   0.00000  Uiso   1.00
H1873  H     0.07691   0.94950   0.95105   0.00000  Uiso   1.00
H1874  H     0.02508   0.93972   0.97451   0.00000  Uiso   1.00
H1875  H     0.13369   0.70873   0.76515   0.00000  Uiso   1.00
H1876  H     0.05264   0.88209   0.70097   0.00000  Uiso   1.00
H1877  H     0.07587   0.93666   0.71001   0.00000  Uiso   1.00
H1878  H     0.10444   0.89326   0.67824   0.00000  Uiso   1.00
H1879  H     0.20007   0.95798   0.90135   0.00000  Uiso   1.00
H1880  H     0.08136   0.80027   0.73679   0.00000  Uiso   1.00
H1881  H     0.02734   0.80549   0.72000   0.00000  Uiso   1.00
H1882  H     0.07372   0.71529   0.71391   0.00000  Uiso   1.00
H1883  H     0.02418   0.73083   0.68800   0.00000  Uiso   1.00
H1884  H     0.05969   0.78676   0.96486   0.00000  Uiso   1.00
N1885  N     0.16667   0.95240   0.83333   0.00000  Uiso   1.00
N1886  N     0.16667   0.71427   0.83333   0.00000  Uiso   1.00
O1887  O     0.10559   0.87154   0.83333   0.00000  Uiso   1.00
O1888  O     0.29388   0.91428   0.85265   0.00000  Uiso   1.00
O1889  O     0.29478   0.75263   0.81220   0.00000  Uiso   1.00
O1890  O     0.04065   0.90273   0.88252   0.00000  Uiso   1.00
O1891  O     0.22774   0.79513   0.83334   0.00000  Uiso   1.00
O1892  O     0.22774   0.87154   0.83334   0.00000  Uiso   1.00
O1893  O     0.10559   0.79513   0.83333   0.00000  Uiso   1.00
O1894  O     0.16667   0.87155   0.76178   0.00000  Uiso   1.00
O1895  O     0.16666   0.79512   0.90489   0.00000  Uiso   1.00
O1896  O     0.16666   0.87155   0.90489   0.00000  Uiso   1.00
O1897  O     0.16667   0.79512   0.76178   0.00000  Uiso   1.00
O1898  O     0.04143   0.76442   0.78257   0.00000  Uiso   1.00
Zn1899 Zn    0.16667   0.88437   0.83333   0.00000  Uiso   1.00
Zn1900 Zn    0.16667   0.78229   0.83333   0.00000  Uiso   1.00
C1901  C     0.42019   0.83340   0.83306   0.00000  Uiso   1.00
C1902  C     0.35471   0.86946   0.85482   0.00000  Uiso   1.00
C1903  C     0.62456   0.83333   0.83293   0.00000  Uiso   1.00
C1904  C     0.37629   0.83356   0.83262   0.00000  Uiso   1.00
C1905  C     0.51829   0.69049   0.87123   0.00000  Uiso   1.00
C1906  C     0.48154   0.97618   0.79556   0.00000  Uiso   1.00
C1907  C     0.48162   0.69067   0.79552   0.00000  Uiso   1.00
C1908  C     0.51844   0.97600   0.87114   0.00000  Uiso   1.00
C1909  C     0.38484   0.78196   0.73466   0.00000  Uiso   1.00
C1910  C     0.38891   0.74331   0.69717   0.00000  Uiso   1.00
C1911  C     0.41021   0.75838   0.98228   0.00000  Uiso   1.00
C1912  C     0.58012   0.83329   0.83324   0.00000  Uiso   1.00
C1913  C     0.62213   0.93531   0.80516   0.00000  Uiso   1.00
C1914  C     0.66311   0.95247   0.78330   0.00000  Uiso   1.00
C1915  C     0.65564   0.98226   0.73769   0.00000  Uiso   1.00
C1916  C     0.62384   0.73052   0.85921   0.00000  Uiso   1.00
C1917  C     0.66540   0.71779   0.88328   0.00000  Uiso   1.00
C1918  C     0.65905   0.68515   0.92663   0.00000  Uiso   1.00
C1919  C     0.38334   0.88517   0.93060   0.00000  Uiso   1.00
C1920  C     0.38902   0.92397   0.96739   0.00000  Uiso   1.00
C1921  C     0.40654   0.90777   0.68391   0.00000  Uiso   1.00
C1922  C     0.50078   0.83333   0.73961   0.00000  Uiso   1.00
C1923  C     0.50071   0.83334   0.92705   0.00000  Uiso   1.00
C1924  C     0.50176   0.83333   0.68849   0.00000  Uiso   1.00
C1925  C     0.50173   0.83338   0.97817   0.00000  Uiso   1.00
C1926  C     0.35509   0.79774   0.81019   0.00000  Uiso   1.00
C1927  C     0.64621   0.87286   0.84596   0.00000  Uiso   1.00
C1928  C     0.64661   0.79407   0.81934   0.00000  Uiso   1.00
H1929  H     0.53303   0.70837   0.90161   0.00000  Uiso   1.00
H1930  H     0.41170   0.72999   0.95531   0.00000  Uiso   1.00
H1931  H     0.44230   0.76888   0.99043   0.00000  Uiso   1.00
H1932  H     0.60065   0.96416   0.81030   0.00000  Uiso   1.00
H1933  H     0.60730   0.91267   0.77722   0.00000  Uiso   1.00
H1934  H     0.34704   0.97149   0.81206   0.00000  Uiso   1.00
H1935  H     0.34913   0.92342   0.77144   0.00000  Uiso   1.00
H1936  H     0.63704   0.96409   0.70923   0.00000  Uiso   1.00
H1937  H     0.35246   0.99111   0.72067   0.00000  Uiso   1.00
H1938  H     0.63927   0.68032   0.74875   0.00000  Uiso   1.00
H1939  H     0.60588   0.69937   0.85260   0.00000  Uiso   1.00
H1940  H     0.46678   0.95830   0.76525   0.00000  Uiso   1.00
H1941  H     0.60570   0.75096   0.88652   0.00000  Uiso   1.00
H1942  H     0.35309   0.70254   0.85513   0.00000  Uiso   1.00
H1943  H     0.34711   0.74856   0.89820   0.00000  Uiso   1.00
H1944  H     0.63742   0.69967   0.95479   0.00000  Uiso   1.00
H1945  H     0.35584   0.67888   0.94497   0.00000  Uiso   1.00
H1946  H     0.64655   0.98603   0.91278   0.00000  Uiso   1.00
H1947  H     0.41247   0.86526   0.92876   0.00000  Uiso   1.00
H1948  H     0.35815   0.86319   0.94561   0.00000  Uiso   1.00
H1949  H     0.41024   0.94950   0.95105   0.00000  Uiso   1.00
H1950  H     0.35841   0.93972   0.97451   0.00000  Uiso   1.00
H1951  H     0.46703   0.70873   0.76515   0.00000  Uiso   1.00
H1952  H     0.38598   0.88209   0.70097   0.00000  Uiso   1.00
H1953  H     0.40920   0.93666   0.71001   0.00000  Uiso   1.00
H1954  H     0.43777   0.89326   0.67824   0.00000  Uiso   1.00
H1955  H     0.53340   0.95798   0.90135   0.00000  Uiso   1.00
H1956  H     0.41469   0.80027   0.73679   0.00000  Uiso   1.00
H1957  H     0.36067   0.80549   0.72000   0.00000  Uiso   1.00
H1958  H     0.40705   0.71529   0.71391   0.00000  Uiso   1.00
H1959  H     0.35751   0.73083   0.68800   0.00000  Uiso   1.00
H1960  H     0.39303   0.78676   0.96486   0.00000  Uiso   1.00
N1961  N     0.50000   0.95240   0.83333   0.00000  Uiso   1.00
N1962  N     0.50000   0.71427   0.83333   0.00000  Uiso   1.00
O1963  O     0.43892   0.87154   0.83333   0.00000  Uiso   1.00
O1964  O     0.62721   0.91428   0.85265   0.00000  Uiso   1.00
O1965  O     0.62811   0.75263   0.81220   0.00000  Uiso   1.00
O1966  O     0.37399   0.90273   0.88252   0.00000  Uiso   1.00
O1967  O     0.56108   0.79513   0.83334   0.00000  Uiso   1.00
O1968  O     0.56108   0.87154   0.83334   0.00000  Uiso   1.00
O1969  O     0.43892   0.79513   0.83333   0.00000  Uiso   1.00
O1970  O     0.50000   0.87155   0.76178   0.00000  Uiso   1.00
O1971  O     0.50000   0.79512   0.90489   0.00000  Uiso   1.00
O1972  O     0.50000   0.87155   0.90489   0.00000  Uiso   1.00
O1973  O     0.50000   0.79512   0.76178   0.00000  Uiso   1.00
O1974  O     0.37476   0.76442   0.78257   0.00000  Uiso   1.00
Zn1975 Zn    0.50000   0.88437   0.83333   0.00000  Uiso   1.00
Zn1976 Zn    0.50000   0.78229   0.83333   0.00000  Uiso   1.00
C1977  C     0.75353   0.83340   0.83306   0.00000  Uiso   1.00
C1978  C     0.68804   0.86946   0.85482   0.00000  Uiso   1.00
C1979  C     0.95790   0.83333   0.83293   0.00000  Uiso   1.00
C1980  C     0.70962   0.83356   0.83262   0.00000  Uiso   1.00
C1981  C     0.85163   0.69049   0.87123   0.00000  Uiso   1.00
C1982  C     0.81487   0.97618   0.79556   0.00000  Uiso   1.00
C1983  C     0.81495   0.69067   0.79552   0.00000  Uiso   1.00
C1984  C     0.85178   0.97600   0.87114   0.00000  Uiso   1.00
C1985  C     0.71817   0.78196   0.73466   0.00000  Uiso   1.00
C1986  C     0.72225   0.74331   0.69717   0.00000  Uiso   1.00
C1987  C     0.74354   0.75838   0.98228   0.00000  Uiso   1.00
C1988  C     0.91345   0.83329   0.83324   0.00000  Uiso   1.00
C1989  C     0.95546   0.93531   0.80516   0.00000  Uiso   1.00
C1990  C     0.99644   0.95247   0.78330   0.00000  Uiso   1.00
C1991  C     0.98898   0.98226   0.73769   0.00000  Uiso   1.00
C1992  C     0.95717   0.73052   0.85921   0.00000  Uiso   1.00
C1993  C     0.99873   0.71779   0.88328   0.00000  Uiso   1.00
C1994  C     0.99239   0.68515   0.92663   0.00000  Uiso   1.00
C1995  C     0.71667   0.88517   0.93060   0.00000  Uiso   1.00
C1996  C     0.72235   0.92397   0.96739   0.00000  Uiso   1.00
C1997  C     0.73987   0.90777   0.68391   0.00000  Uiso   1.00
C1998  C     0.83411   0.83333   0.73961   0.00000  Uiso   1.00
C1999  C     0.83405   0.83334   0.92705   0.00000  Uiso   1.00
C2000  C     0.83509   0.83333   0.68849   0.00000  Uiso   1.00
C2001  C     0.83507   0.83338   0.97817   0.00000  Uiso   1.00
C2002  C     0.68843   0.79774   0.81019   0.00000  Uiso   1.00
C2003  C     0.97954   0.87286   0.84596   0.00000  Uiso   1.00
C2004  C     0.97995   0.79407   0.81934   0.00000  Uiso   1.00
H2005  H     0.86636   0.70837   0.90161   0.00000  Uiso   1.00
H2006  H     0.74503   0.72999   0.95531   0.00000  Uiso   1.00
H2007  H     0.77563   0.76888   0.99043   0.00000  Uiso   1.00
H2008  H     0.93398   0.96416   0.81030   0.00000  Uiso   1.00
H2009  H     0.94064   0.91267   0.77722   0.00000  Uiso   1.00
H2010  H     0.68037   0.97149   0.81206   0.00000  Uiso   1.00
H2011  H     0.68247   0.92342   0.77144   0.00000  Uiso   1.00
H2012  H     0.97038   0.96409   0.70923   0.00000  Uiso   1.00
H2013  H     0.68580   0.99111   0.72067   0.00000  Uiso   1.00
H2014  H     0.97260   0.68032   0.74875   0.00000  Uiso   1.00
H2015  H     0.93921   0.69937   0.85260   0.00000  Uiso   1.00
H2016  H     0.80011   0.95830   0.76525   0.00000  Uiso   1.00
H2017  H     0.93904   0.75096   0.88652   0.00000  Uiso   1.00
H2018  H     0.68643   0.70254   0.85513   0.00000  Uiso   1.00
H2019  H     0.68044   0.74856   0.89820   0.00000  Uiso   1.00
H2020  H     0.97076   0.69967   0.95479   0.00000  Uiso   1.00
H2021  H     0.68918   0.67888   0.94497   0.00000  Uiso   1.00
H2022  H     0.97989   0.98603   0.91278   0.00000  Uiso   1.00
H2023  H     0.74580   0.86526   0.92876   0.00000  Uiso   1.00
H2024  H     0.69149   0.86319   0.94561   0.00000  Uiso   1.00
H2025  H     0.74357   0.94950   0.95105   0.00000  Uiso   1.00
H2026  H     0.69175   0.93972   0.97451   0.00000  Uiso   1.00
H2027  H     0.80036   0.70873   0.76515   0.00000  Uiso   1.00
H2028  H     0.71931   0.88209   0.70097   0.00000  Uiso   1.00
H2029  H     0.74253   0.93666   0.71001   0.00000  Uiso   1.00
H2030  H     0.77111   0.89326   0.67824   0.00000  Uiso   1.00
H2031  H     0.86673   0.95798   0.90135   0.00000  Uiso   1.00
H2032  H     0.74802   0.80027   0.73679   0.00000  Uiso   1.00
H2033  H     0.69400   0.80549   0.72000   0.00000  Uiso   1.00
H2034  H     0.74039   0.71529   0.71391   0.00000  Uiso   1.00
H2035  H     0.69084   0.73083   0.68800   0.00000  Uiso   1.00
H2036  H     0.72636   0.78676   0.96486   0.00000  Uiso   1.00
N2037  N     0.83333   0.95240   0.83333   0.00000  Uiso   1.00
N2038  N     0.83333   0.71427   0.83333   0.00000  Uiso   1.00
O2039  O     0.77226   0.87154   0.83333   0.00000  Uiso   1.00
O2040  O     0.96054   0.91428   0.85265   0.00000  Uiso   1.00
O2041  O     0.96144   0.75263   0.81220   0.00000  Uiso   1.00
O2042  O     0.70732   0.90273   0.88252   0.00000  Uiso   1.00
O2043  O     0.89441   0.79513   0.83334   0.00000  Uiso   1.00
O2044  O     0.89441   0.87154   0.83334   0.00000  Uiso   1.00
O2045  O     0.77226   0.79513   0.83333   0.00000  Uiso   1.00
O2046  O     0.83334   0.87155   0.76178   0.00000  Uiso   1.00
O2047  O     0.83333   0.79512   0.90489   0.00000  Uiso   1.00
O2048  O     0.83333   0.87155   0.90489   0.00000  Uiso   1.00
O2049  O     0.83334   0.79512   0.76178   0.00000  Uiso   1.00
O2050  O     0.70810   0.76442   0.78257   0.00000  Uiso   1.00
Zn2051 Zn    0.83333   0.88437   0.83333   0.00000  Uiso   1.00
Zn2052 Zn    0.83333   0.78229   0.83333   0.00000  Uiso   1.00
loop_
_geom_bond_atom_site_label_1
_geom_bond_atom_site_label_2
_geom_bond_distance
_geom_bond_site_symmetry_2
_ccdc_geom_bond_type
C1     C4      1.419   .     S
C1     O63     1.286   .     A
C1     O69     1.286   .     A
C2     C4      1.402   .     A
C2     O66     1.385   .     S
C2     C179    1.377   1_455 S
C3     C12     1.437   .     S
C3     C27     1.412   .     A
C3     C28     1.411   .     A
C4     C26     1.402   .     A
C5     N62     1.368   .     A
C5     H29     1.082   .     S
C5     C464    1.420   1_545 S
C6     H40     1.081   .     S
C6     N61     1.368   .     A
C6     C235    1.420   .     S
C7     N62     1.367   .     A
C7     H51     1.080   .     S
C7     C462    1.420   1_545 S
C8     N61     1.368   .     A
C8     H55     1.082   .     S
C8     C233    1.420   .     S
C9     C10     1.528   .     S
C9     H56     1.111   .     S
C9     O74     1.417   .     S
C9     H57     1.118   .     S
C10    H58     1.110   .     S
C10    H59     1.110   .     S
C10    C1379   1.525   1_554 S
C11    H31     1.106   .     S
C11    H60     1.110   .     S
C11    H30     1.109   .     S
C11    C694    1.525   .     S
C12    O68     1.290   .     A
C12    O67     1.291   .     A
C13    H33     1.114   .     S
C13    H32     1.109   .     S
C13    C14     1.534   .     S
C13    O64     1.422   .     S
C14    C15     1.523   .     S
C14    H110    1.106   .     S
C14    H111    1.110   .     S
C15    H36     1.111   .     S
C15    H113    1.106   .     S
C15    H266    1.110   .     S
C16    O65     1.422   .     S
C16    H39     1.108   .     S
C16    C17     1.537   .     S
C16    H41     1.113   .     S
C17    C18     1.522   .     S
C17    H118    1.108   .     S
C17    H119    1.111   .     S
C18    H44     1.111   .     S
C18    H121    1.106   .     S
C18    H502    1.110   1_545 S
C19    C20     1.526   .     S
C19    H47     1.111   .     S
C19    O66     1.417   .     S
C19    H48     1.118   .     S
C20    H49     1.112   .     S
C20    H50     1.109   .     S
C20    C705    1.524   .     S
C21    H53     1.109   .     S
C21    H54     1.106   .     S
C21    H52     1.110   .     S
C21    C1388   1.524   1_554 S
C22    C24     1.364   .     S
C22    O73     1.279   .     A
C22    O70     1.280   .     A
C23    O71     1.280   .     A
C23    C25     1.364   .     S
C23    O72     1.279   .     A
C24    C1393   1.165   1_554 S
C25    C708    1.165   .     S
C26    O74     1.385   .     S
C26    C180    1.377   1_455 S
C27    O64     1.384   .     S
C27    C78     1.377   .     S
C28    O65     1.383   .     S
C28    C102    1.377   .     S
H34    C166    1.106   1_455 S
H35    C166    1.110   1_455 S
H37    C167    1.106   1_455 S
H38    C471    1.110   1_545 S
H42    C169    1.108   1_455 S
H43    C169    1.111   1_455 S
H45    C170    1.106   1_455 S
H46    C246    1.110   .     S
N61    Zn75    2.020   .     S
N62    Zn76    2.020   .     S
O63    Zn75    2.012   .     S
O67    Zn76    2.012   .     S
O68    Zn75    2.009   .     S
O69    Zn76    2.009   .     S
O70    Zn75    1.947   .     S
O71    Zn76    1.947   .     S
O72    Zn75    1.947   .     S
O73    Zn76    1.947   .     S
C77    C80     1.419   .     S
C77    O139    1.286   .     A
C77    O145    1.286   .     A
C78    C80     1.402   .     A
C78    O142    1.385   .     S
C79    C88     1.437   .     S
C79    C103    1.412   .     A
C79    C104    1.411   .     A
C80    C102    1.402   .     A
C81    N138    1.368   .     A
C81    H105    1.082   .     S
C81    C540    1.420   1_545 S
C82    H116    1.081   .     S
C82    N137    1.368   .     A
C82    C311    1.420   .     S
C83    N138    1.367   .     A
C83    H127    1.080   .     S
C83    C538    1.420   1_545 S
C84    N137    1.368   .     A
C84    H131    1.082   .     S
C84    C309    1.420   .     S
C85    C86     1.528   .     S
C85    H132    1.111   .     S
C85    O150    1.417   .     S
C85    H133    1.118   .     S
C86    H134    1.110   .     S
C86    H135    1.110   .     S
C86    C1455   1.525   1_554 S
C87    H107    1.106   .     S
C87    H136    1.110   .     S
C87    H106    1.109   .     S
C87    C770    1.525   .     S
C88    O144    1.290   .     A
C88    O143    1.291   .     A
C89    H109    1.114   .     S
C89    H108    1.109   .     S
C89    C90     1.534   .     S
C89    O140    1.422   .     S
C90    C91     1.523   .     S
C90    H186    1.106   .     S
C90    H187    1.110   .     S
C91    H112    1.111   .     S
C91    H189    1.106   .     S
C91    H342    1.110   .     S
C92    O141    1.422   .     S
C92    H115    1.108   .     S
C92    C93     1.537   .     S
C92    H117    1.113   .     S
C93    C94     1.522   .     S
C93    H194    1.108   .     S
C93    H195    1.111   .     S
C94    H120    1.111   .     S
C94    H197    1.106   .     S
C94    H578    1.110   1_545 S
C95    C96     1.526   .     S
C95    H123    1.111   .     S
C95    O142    1.417   .     S
C95    H124    1.118   .     S
C96    H125    1.112   .     S
C96    H126    1.109   .     S
C96    C781    1.524   .     S
C97    H129    1.109   .     S
C97    H130    1.106   .     S
C97    H128    1.110   .     S
C97    C1464   1.524   1_554 S
C98    C100    1.364   .     S
C98    O149    1.279   .     A
C98    O146    1.280   .     A
C99    O147    1.280   .     A
C99    C101    1.364   .     S
C99    O148    1.279   .     A
C100   C1469   1.165   1_554 S
C101   C784    1.165   .     S
C102   O150    1.385   .     S
C103   O140    1.384   .     S
C103   C154    1.377   .     S
C104   O141    1.383   .     S
C104   C178    1.377   .     S
H114   C547    1.110   1_545 S
H122   C322    1.110   .     S
N137   Zn151   2.020   .     S
N138   Zn152   2.020   .     S
O139   Zn151   2.012   .     S
O143   Zn152   2.012   .     S
O144   Zn151   2.009   .     S
O145   Zn152   2.009   .     S
O146   Zn151   1.947   .     S
O147   Zn152   1.947   .     S
O148   Zn151   1.947   .     S
O149   Zn152   1.947   .     S
C153   C156    1.419   .     S
C153   O215    1.286   .     A
C153   O221    1.286   .     A
C154   C156    1.402   .     A
C154   O218    1.385   .     S
C155   C164    1.437   .     S
C155   C179    1.412   .     A
C155   C180    1.411   .     A
C156   C178    1.402   .     A
C157   N214    1.368   .     A
C157   H181    1.082   .     S
C157   C616    1.420   1_545 S
C158   H192    1.081   .     S
C158   N213    1.368   .     A
C158   C387    1.420   .     S
C159   N214    1.367   .     A
C159   H203    1.080   .     S
C159   C614    1.420   1_545 S
C160   N213    1.368   .     A
C160   H207    1.082   .     S
C160   C385    1.420   .     S
C161   C162    1.528   .     S
C161   H208    1.111   .     S
C161   O226    1.417   .     S
C161   H209    1.118   .     S
C162   H210    1.110   .     S
C162   H211    1.110   .     S
C162   C1531   1.525   1_554 S
C163   H183    1.106   .     S
C163   H212    1.110   .     S
C163   H182    1.109   .     S
C163   C846    1.525   .     S
C164   O220    1.290   .     A
C164   O219    1.291   .     A
C165   H185    1.114   .     S
C165   H184    1.109   .     S
C165   C166    1.534   .     S
C165   O216    1.422   .     S
C166   C167    1.523   .     S
C166   H34     1.106   1_655 S
C166   H35     1.110   1_655 S
C167   H188    1.111   .     S
C167   H37     1.106   1_655 S
C167   H418    1.110   .     S
C168   O217    1.422   .     S
C168   H191    1.108   .     S
C168   C169    1.537   .     S
C168   H193    1.113   .     S
C169   C170    1.522   .     S
C169   H42     1.108   1_655 S
C169   H43     1.111   1_655 S
C170   H196    1.111   .     S
C170   H45     1.106   1_655 S
C170   H654    1.110   1_545 S
C171   C172    1.526   .     S
C171   H199    1.111   .     S
C171   O218    1.417   .     S
C171   H200    1.118   .     S
C172   H201    1.112   .     S
C172   H202    1.109   .     S
C172   C857    1.524   .     S
C173   H205    1.109   .     S
C173   H206    1.106   .     S
C173   H204    1.110   .     S
C173   C1540   1.524   1_554 S
C174   C176    1.364   .     S
C174   O225    1.279   .     A
C174   O222    1.280   .     A
C175   O223    1.280   .     A
C175   C177    1.364   .     S
C175   O224    1.279   .     A
C176   C1545   1.165   1_554 S
C177   C860    1.165   .     S
C178   O226    1.385   .     S
C179   O216    1.384   .     S
C179   C2      1.377   1_655 S
C180   O217    1.383   .     S
C180   C26     1.377   1_655 S
H190   C623    1.110   1_545 S
H198   C398    1.110   .     S
N213   Zn227   2.020   .     S
N214   Zn228   2.020   .     S
O215   Zn227   2.012   .     S
O219   Zn228   2.012   .     S
O220   Zn227   2.009   .     S
O221   Zn228   2.009   .     S
O222   Zn227   1.947   .     S
O223   Zn228   1.947   .     S
O224   Zn227   1.947   .     S
O225   Zn228   1.947   .     S
C229   C232    1.419   .     S
C229   O291    1.286   .     A
C229   O297    1.286   .     A
C230   C232    1.402   .     A
C230   O294    1.385   .     S
C230   C407    1.377   1_455 S
C231   C240    1.437   .     S
C231   C255    1.412   .     A
C231   C256    1.411   .     A
C232   C254    1.402   .     A
C233   N290    1.368   .     A
C233   H257    1.082   .     S
C234   H268    1.081   .     S
C234   N289    1.368   .     A
C234   C463    1.420   .     S
C235   N290    1.367   .     A
C235   H279    1.080   .     S
C236   N289    1.368   .     A
C236   H283    1.082   .     S
C236   C461    1.420   .     S
C237   C238    1.528   .     S
C237   H284    1.111   .     S
C237   O302    1.417   .     S
C237   H285    1.118   .     S
C238   H286    1.110   .     S
C238   H287    1.110   .     S
C238   C1607   1.525   1_554 S
C239   H259    1.106   .     S
C239   H288    1.110   .     S
C239   H258    1.109   .     S
C239   C922    1.525   .     S
C240   O296    1.290   .     A
C240   O295    1.291   .     A
C241   H261    1.114   .     S
C241   H260    1.109   .     S
C241   C242    1.534   .     S
C241   O292    1.422   .     S
C242   C243    1.523   .     S
C242   H338    1.106   .     S
C242   H339    1.110   .     S
C243   H264    1.111   .     S
C243   H341    1.106   .     S
C243   H494    1.110   .     S
C244   O293    1.422   .     S
C244   H267    1.108   .     S
C244   C245    1.537   .     S
C244   H269    1.113   .     S
C245   C246    1.522   .     S
C245   H346    1.108   .     S
C245   H347    1.111   .     S
C246   H272    1.111   .     S
C246   H349    1.106   .     S
C247   C248    1.526   .     S
C247   H275    1.111   .     S
C247   O294    1.417   .     S
C247   H276    1.118   .     S
C248   H277    1.112   .     S
C248   H278    1.109   .     S
C248   C933    1.524   .     S
C249   H281    1.109   .     S
C249   H282    1.106   .     S
C249   H280    1.110   .     S
C249   C1616   1.524   1_554 S
C250   C252    1.364   .     S
C250   O301    1.279   .     A
C250   O298    1.280   .     A
C251   O299    1.280   .     A
C251   C253    1.364   .     S
C251   O300    1.279   .     A
C252   C1621   1.165   1_554 S
C253   C936    1.165   .     S
C254   O302    1.385   .     S
C254   C408    1.377   1_455 S
C255   O292    1.384   .     S
C255   C306    1.377   .     S
C256   O293    1.383   .     S
C256   C330    1.377   .     S
H262   C394    1.106   1_455 S
H263   C394    1.110   1_455 S
H265   C395    1.106   1_455 S
H270   C397    1.108   1_455 S
H271   C397    1.111   1_455 S
H273   C398    1.106   1_455 S
H274   C474    1.110   .     S
N289   Zn303   2.020   .     S
N290   Zn304   2.020   .     S
O291   Zn303   2.012   .     S
O295   Zn304   2.012   .     S
O296   Zn303   2.009   .     S
O297   Zn304   2.009   .     S
O298   Zn303   1.947   .     S
O299   Zn304   1.947   .     S
O300   Zn303   1.947   .     S
O301   Zn304   1.947   .     S
C305   C308    1.419   .     S
C305   O367    1.286   .     A
C305   O373    1.286   .     A
C306   C308    1.402   .     A
C306   O370    1.385   .     S
C307   C316    1.437   .     S
C307   C331    1.412   .     A
C307   C332    1.411   .     A
C308   C330    1.402   .     A
C309   N366    1.368   .     A
C309   H333    1.082   .     S
C310   H344    1.081   .     S
C310   N365    1.368   .     A
C310   C539    1.420   .     S
C311   N366    1.367   .     A
C311   H355    1.080   .     S
C312   N365    1.368   .     A
C312   H359    1.082   .     S
C312   C537    1.420   .     S
C313   C314    1.528   .     S
C313   H360    1.111   .     S
C313   O378    1.417   .     S
C313   H361    1.118   .     S
C314   H362    1.110   .     S
C314   H363    1.110   .     S
C314   C1683   1.525   1_554 S
C315   H335    1.106   .     S
C315   H364    1.110   .     S
C315   H334    1.109   .     S
C315   C998    1.525   .     S
C316   O372    1.290   .     A
C316   O371    1.291   .     A
C317   H337    1.114   .     S
C317   H336    1.109   .     S
C317   C318    1.534   .     S
C317   O368    1.422   .     S
C318   C319    1.523   .     S
C318   H414    1.106   .     S
C318   H415    1.110   .     S
C319   H340    1.111   .     S
C319   H417    1.106   .     S
C319   H570    1.110   .     S
C320   O369    1.422   .     S
C320   H343    1.108   .     S
C320   C321    1.537   .     S
C320   H345    1.113   .     S
C321   C322    1.522   .     S
C321   H422    1.108   .     S
C321   H423    1.111   .     S
C322   H348    1.111   .     S
C322   H425    1.106   .     S
C323   C324    1.526   .     S
C323   H351    1.111   .     S
C323   O370    1.417   .     S
C323   H352    1.118   .     S
C324   H353    1.112   .     S
C324   H354    1.109   .     S
C324   C1009   1.524   .     S
C325   H357    1.109   .     S
C325   H358    1.106   .     S
C325   H356    1.110   .     S
C325   C1692   1.524   1_554 S
C326   C328    1.364   .     S
C326   O377    1.279   .     A
C326   O374    1.280   .     A
C327   O375    1.280   .     A
C327   C329    1.364   .     S
C327   O376    1.279   .     A
C328   C1697   1.165   1_554 S
C329   C1012   1.165   .     S
C330   O378    1.385   .     S
C331   O368    1.384   .     S
C331   C382    1.377   .     S
C332   O369    1.383   .     S
C332   C406    1.377   .     S
H350   C550    1.110   .     S
N365   Zn379   2.020   .     S
N366   Zn380   2.020   .     S
O367   Zn379   2.012   .     S
O371   Zn380   2.012   .     S
O372   Zn379   2.009   .     S
O373   Zn380   2.009   .     S
O374   Zn379   1.947   .     S
O375   Zn380   1.947   .     S
O376   Zn379   1.947   .     S
O377   Zn380   1.947   .     S
C381   C384    1.419   .     S
C381   O443    1.286   .     A
C381   O449    1.286   .     A
C382   C384    1.402   .     A
C382   O446    1.385   .     S
C383   C392    1.437   .     S
C383   C407    1.412   .     A
C383   C408    1.411   .     A
C384   C406    1.402   .     A
C385   N442    1.368   .     A
C385   H409    1.082   .     S
C386   H420    1.081   .     S
C386   N441    1.368   .     A
C386   C615    1.420   .     S
C387   N442    1.367   .     A
C387   H431    1.080   .     S
C388   N441    1.368   .     A
C388   H435    1.082   .     S
C388   C613    1.420   .     S
C389   C390    1.528   .     S
C389   H436    1.111   .     S
C389   O454    1.417   .     S
C389   H437    1.118   .     S
C390   H438    1.110   .     S
C390   H439    1.110   .     S
C390   C1759   1.525   1_554 S
C391   H411    1.106   .     S
C391   H440    1.110   .     S
C391   H410    1.109   .     S
C391   C1074   1.525   .     S
C392   O448    1.290   .     A
C392   O447    1.291   .     A
C393   H413    1.114   .     S
C393   H412    1.109   .     S
C393   C394    1.534   .     S
C393   O444    1.422   .     S
C394   C395    1.523   .     S
C394   H262    1.106   1_655 S
C394   H263    1.110   1_655 S
C395   H416    1.111   .     S
C395   H265    1.106   1_655 S
C395   H646    1.110   .     S
C396   O445    1.422   .     S
C396   H419    1.108   .     S
C396   C397    1.537   .     S
C396   H421    1.113   .     S
C397   C398    1.522   .     S
C397   H270    1.108   1_655 S
C397   H271    1.111   1_655 S
C398   H424    1.111   .     S
C398   H273    1.106   1_655 S
C399   C400    1.526   .     S
C399   H427    1.111   .     S
C399   O446    1.417   .     S
C399   H428    1.118   .     S
C400   H429    1.112   .     S
C400   H430    1.109   .     S
C400   C1085   1.524   .     S
C401   H433    1.109   .     S
C401   H434    1.106   .     S
C401   H432    1.110   .     S
C401   C1768   1.524   1_554 S
C402   C404    1.364   .     S
C402   O453    1.279   .     A
C402   O450    1.280   .     A
C403   O451    1.280   .     A
C403   C405    1.364   .     S
C403   O452    1.279   .     A
C404   C1773   1.165   1_554 S
C405   C1088   1.165   .     S
C406   O454    1.385   .     S
C407   O444    1.384   .     S
C407   C230    1.377   1_655 S
C408   O445    1.383   .     S
C408   C254    1.377   1_655 S
H426   C626    1.110   .     S
N441   Zn455   2.020   .     S
N442   Zn456   2.020   .     S
O443   Zn455   2.012   .     S
O447   Zn456   2.012   .     S
O448   Zn455   2.009   .     S
O449   Zn456   2.009   .     S
O450   Zn455   1.947   .     S
O451   Zn456   1.947   .     S
O452   Zn455   1.947   .     S
O453   Zn456   1.947   .     S
C457   C460    1.419   .     S
C457   O519    1.286   .     A
C457   O525    1.286   .     A
C458   C460    1.402   .     A
C458   O522    1.385   .     S
C458   C635    1.377   1_455 S
C459   C468    1.437   .     S
C459   C483    1.412   .     A
C459   C484    1.411   .     A
C460   C482    1.402   .     A
C461   N518    1.368   .     A
C461   H485    1.082   .     S
C462   H496    1.081   .     S
C462   N517    1.368   .     A
C462   C7      1.420   1_565 S
C463   N518    1.367   .     A
C463   H507    1.080   .     S
C464   N517    1.368   .     A
C464   H511    1.082   .     S
C464   C5      1.420   1_565 S
C465   C466    1.528   .     S
C465   H512    1.111   .     S
C465   O530    1.417   .     S
C465   H513    1.118   .     S
C466   H514    1.110   .     S
C466   H515    1.110   .     S
C466   C1835   1.525   1_554 S
C467   H487    1.106   .     S
C467   H516    1.110   .     S
C467   H486    1.109   .     S
C467   C1150   1.525   .     S
C468   O524    1.290   .     A
C468   O523    1.291   .     A
C469   H489    1.114   .     S
C469   H488    1.109   .     S
C469   C470    1.534   .     S
C469   O520    1.422   .     S
C470   C471    1.523   .     S
C470   H566    1.106   .     S
C470   H567    1.110   .     S
C471   H492    1.111   .     S
C471   H569    1.106   .     S
C471   H38     1.110   1_565 S
C472   O521    1.422   .     S
C472   H495    1.108   .     S
C472   C473    1.537   .     S
C472   H497    1.113   .     S
C473   C474    1.522   .     S
C473   H574    1.108   .     S
C473   H575    1.111   .     S
C474   H500    1.111   .     S
C474   H577    1.106   .     S
C475   C476    1.526   .     S
C475   H503    1.111   .     S
C475   O522    1.417   .     S
C475   H504    1.118   .     S
C476   H505    1.112   .     S
C476   H506    1.109   .     S
C476   C1161   1.524   .     S
C477   H509    1.109   .     S
C477   H510    1.106   .     S
C477   H508    1.110   .     S
C477   C1844   1.524   1_554 S
C478   C480    1.364   .     S
C478   O529    1.279   .     A
C478   O526    1.280   .     A
C479   O527    1.280   .     A
C479   C481    1.364   .     S
C479   O528    1.279   .     A
C480   C1849   1.165   1_554 S
C481   C1164   1.165   .     S
C482   O530    1.385   .     S
C482   C636    1.377   1_455 S
C483   O520    1.384   .     S
C483   C534    1.377   .     S
C484   O521    1.383   .     S
C484   C558    1.377   .     S
H490   C622    1.106   1_455 S
H491   C622    1.110   1_455 S
H493   C623    1.106   1_455 S
H498   C625    1.108   1_455 S
H499   C625    1.111   1_455 S
H501   C626    1.106   1_455 S
H502   C18     1.110   1_565 S
N517   Zn531   2.020   .     S
N518   Zn532   2.020   .     S
O519   Zn531   2.012   .     S
O523   Zn532   2.012   .     S
O524   Zn531   2.009   .     S
O525   Zn532   2.009   .     S
O526   Zn531   1.947   .     S
O527   Zn532   1.947   .     S
O528   Zn531   1.947   .     S
O529   Zn532   1.947   .     S
C533   C536    1.419   .     S
C533   O595    1.286   .     A
C533   O601    1.286   .     A
C534   C536    1.402   .     A
C534   O598    1.385   .     S
C535   C544    1.437   .     S
C535   C559    1.412   .     A
C535   C560    1.411   .     A
C536   C558    1.402   .     A
C537   N594    1.368   .     A
C537   H561    1.082   .     S
C538   H572    1.081   .     S
C538   N593    1.368   .     A
C538   C83     1.420   1_565 S
C539   N594    1.367   .     A
C539   H583    1.080   .     S
C540   N593    1.368   .     A
C540   H587    1.082   .     S
C540   C81     1.420   1_565 S
C541   C542    1.528   .     S
C541   H588    1.111   .     S
C541   O606    1.417   .     S
C541   H589    1.118   .     S
C542   H590    1.110   .     S
C542   H591    1.110   .     S
C542   C1911   1.525   1_554 S
C543   H563    1.106   .     S
C543   H592    1.110   .     S
C543   H562    1.109   .     S
C543   C1226   1.525   .     S
C544   O600    1.290   .     A
C544   O599    1.291   .     A
C545   H565    1.114   .     S
C545   H564    1.109   .     S
C545   C546    1.534   .     S
C545   O596    1.422   .     S
C546   C547    1.523   .     S
C546   H642    1.106   .     S
C546   H643    1.110   .     S
C547   H568    1.111   .     S
C547   H645    1.106   .     S
C547   H114    1.110   1_565 S
C548   O597    1.422   .     S
C548   H571    1.108   .     S
C548   C549    1.537   .     S
C548   H573    1.113   .     S
C549   C550    1.522   .     S
C549   H650    1.108   .     S
C549   H651    1.111   .     S
C550   H576    1.111   .     S
C550   H653    1.106   .     S
C551   C552    1.526   .     S
C551   H579    1.111   .     S
C551   O598    1.417   .     S
C551   H580    1.118   .     S
C552   H581    1.112   .     S
C552   H582    1.109   .     S
C552   C1237   1.524   .     S
C553   H585    1.109   .     S
C553   H586    1.106   .     S
C553   H584    1.110   .     S
C553   C1920   1.524   1_554 S
C554   C556    1.364   .     S
C554   O605    1.279   .     A
C554   O602    1.280   .     A
C555   O603    1.280   .     A
C555   C557    1.364   .     S
C555   O604    1.279   .     A
C556   C1925   1.165   1_554 S
C557   C1240   1.165   .     S
C558   O606    1.385   .     S
C559   O596    1.384   .     S
C559   C610    1.377   .     S
C560   O597    1.383   .     S
C560   C634    1.377   .     S
H578   C94     1.110   1_565 S
N593   Zn607   2.020   .     S
N594   Zn608   2.020   .     S
O595   Zn607   2.012   .     S
O599   Zn608   2.012   .     S
O600   Zn607   2.009   .     S
O601   Zn608   2.009   .     S
O602   Zn607   1.947   .     S
O603   Zn608   1.947   .     S
O604   Zn607   1.947   .     S
O605   Zn608   1.947   .     S
C609   C612    1.419   .     S
C609   O671    1.286   .     A
C609   O677    1.286   .     A
C610   C612    1.402   .     A
C610   O674    1.385   .     S
C611   C620    1.437   .     S
C611   C635    1.412   .     A
C611   C636    1.411   .     A
C612   C634    1.402   .     A
C613   N670    1.368   .     A
C613   H637    1.082   .     S
C614   H648    1.081   .     S
C614   N669    1.368   .     A
C614   C159    1.420   1_565 S
C615   N670    1.367   .     A
C615   H659    1.080   .     S
C616   N669    1.368   .     A
C616   H663    1.082   .     S
C616   C157    1.420   1_565 S
C617   C618    1.528   .     S
C617   H664    1.111   .     S
C617   O682    1.417   .     S
C617   H665    1.118   .     S
C618   H666    1.110   .     S
C618   H667    1.110   .     S
C618   C1987   1.525   1_554 S
C619   H639    1.106   .     S
C619   H668    1.110   .     S
C619   H638    1.109   .     S
C619   C1302   1.525   .     S
C620   O676    1.290   .     A
C620   O675    1.291   .     A
C621   H641    1.114   .     S
C621   H640    1.109   .     S
C621   C622    1.534   .     S
C621   O672    1.422   .     S
C622   C623    1.523   .     S
C622   H490    1.106   1_655 S
C622   H491    1.110   1_655 S
C623   H644    1.111   .     S
C623   H493    1.106   1_655 S
C623   H190    1.110   1_565 S
C624   O673    1.422   .     S
C624   H647    1.108   .     S
C624   C625    1.537   .     S
C624   H649    1.113   .     S
C625   C626    1.522   .     S
C625   H498    1.108   1_655 S
C625   H499    1.111   1_655 S
C626   H652    1.111   .     S
C626   H501    1.106   1_655 S
C627   C628    1.526   .     S
C627   H655    1.111   .     S
C627   O674    1.417   .     S
C627   H656    1.118   .     S
C628   H657    1.112   .     S
C628   H658    1.109   .     S
C628   C1313   1.524   .     S
C629   H661    1.109   .     S
C629   H662    1.106   .     S
C629   H660    1.110   .     S
C629   C1996   1.524   1_554 S
C630   C632    1.364   .     S
C630   O681    1.279   .     A
C630   O678    1.280   .     A
C631   O679    1.280   .     A
C631   C633    1.364   .     S
C631   O680    1.279   .     A
C632   C2001   1.165   1_554 S
C633   C1316   1.165   .     S
C634   O682    1.385   .     S
C635   O672    1.384   .     S
C635   C458    1.377   1_655 S
C636   O673    1.383   .     S
C636   C482    1.377   1_655 S
H654   C170    1.110   1_565 S
N669   Zn683   2.020   .     S
N670   Zn684   2.020   .     S
O671   Zn683   2.012   .     S
O675   Zn684   2.012   .     S
O676   Zn683   2.009   .     S
O677   Zn684   2.009   .     S
O678   Zn683   1.947   .     S
O679   Zn684   1.947   .     S
O680   Zn683   1.947   .     S
O681   Zn684   1.947   .     S
C685   C688    1.419   .     S
C685   O747    1.286   .     A
C685   O753    1.286   .     A
C686   C688    1.402   .     A
C686   O750    1.385   .     S
C686   C863    1.377   1_455 S
C687   C696    1.437   .     S
C687   C711    1.412   .     A
C687   C712    1.411   .     A
C688   C710    1.402   .     A
C689   N746    1.368   .     A
C689   H713    1.082   .     S
C689   C1148   1.420   1_545 S
C690   H724    1.081   .     S
C690   N745    1.368   .     A
C690   C919    1.420   .     S
C691   N746    1.367   .     A
C691   H735    1.080   .     S
C691   C1146   1.420   1_545 S
C692   N745    1.368   .     A
C692   H739    1.082   .     S
C692   C917    1.420   .     S
C693   C694    1.528   .     S
C693   H740    1.111   .     S
C693   O758    1.417   .     S
C693   H741    1.118   .     S
C694   H742    1.110   .     S
C694   H743    1.110   .     S
C695   H715    1.106   .     S
C695   H744    1.110   .     S
C695   H714    1.109   .     S
C695   C1378   1.525   .     S
C696   O752    1.290   .     A
C696   O751    1.291   .     A
C697   H717    1.114   .     S
C697   H716    1.109   .     S
C697   C698    1.534   .     S
C697   O748    1.422   .     S
C698   C699    1.523   .     S
C698   H794    1.106   .     S
C698   H795    1.110   .     S
C699   H720    1.111   .     S
C699   H797    1.106   .     S
C699   H950    1.110   .     S
C700   O749    1.422   .     S
C700   H723    1.108   .     S
C700   C701    1.537   .     S
C700   H725    1.113   .     S
C701   C702    1.522   .     S
C701   H802    1.108   .     S
C701   H803    1.111   .     S
C702   H728    1.111   .     S
C702   H805    1.106   .     S
C702   H1186   1.110   1_545 S
C703   C704    1.526   .     S
C703   H731    1.111   .     S
C703   O750    1.417   .     S
C703   H732    1.118   .     S
C704   H733    1.112   .     S
C704   H734    1.109   .     S
C704   C1389   1.524   .     S
C705   H737    1.109   .     S
C705   H738    1.106   .     S
C705   H736    1.110   .     S
C706   C708    1.364   .     S
C706   O757    1.279   .     A
C706   O754    1.280   .     A
C707   O755    1.280   .     A
C707   C709    1.364   .     S
C707   O756    1.279   .     A
C709   C1392   1.165   .     S
C710   O758    1.385   .     S
C710   C864    1.377   1_455 S
C711   O748    1.384   .     S
C711   C762    1.377   .     S
C712   O749    1.383   .     S
C712   C786    1.377   .     S
H718   C850    1.106   1_455 S
H719   C850    1.110   1_455 S
H721   C851    1.106   1_455 S
H722   C1155   1.110   1_545 S
H726   C853    1.108   1_455 S
H727   C853    1.111   1_455 S
H729   C854    1.106   1_455 S
H730   C930    1.110   .     S
N745   Zn759   2.020   .     S
N746   Zn760   2.020   .     S
O747   Zn759   2.012   .     S
O751   Zn760   2.012   .     S
O752   Zn759   2.009   .     S
O753   Zn760   2.009   .     S
O754   Zn759   1.947   .     S
O755   Zn760   1.947   .     S
O756   Zn759   1.947   .     S
O757   Zn760   1.947   .     S
C761   C764    1.419   .     S
C761   O823    1.286   .     A
C761   O829    1.286   .     A
C762   C764    1.402   .     A
C762   O826    1.385   .     S
C763   C772    1.437   .     S
C763   C787    1.412   .     A
C763   C788    1.411   .     A
C764   C786    1.402   .     A
C765   N822    1.368   .     A
C765   H789    1.082   .     S
C765   C1224   1.420   1_545 S
C766   H800    1.081   .     S
C766   N821    1.368   .     A
C766   C995    1.420   .     S
C767   N822    1.367   .     A
C767   H811    1.080   .     S
C767   C1222   1.420   1_545 S
C768   N821    1.368   .     A
C768   H815    1.082   .     S
C768   C993    1.420   .     S
C769   C770    1.528   .     S
C769   H816    1.111   .     S
C769   O834    1.417   .     S
C769   H817    1.118   .     S
C770   H818    1.110   .     S
C770   H819    1.110   .     S
C771   H791    1.106   .     S
C771   H820    1.110   .     S
C771   H790    1.109   .     S
C771   C1454   1.525   .     S
C772   O828    1.290   .     A
C772   O827    1.291   .     A
C773   H793    1.114   .     S
C773   H792    1.109   .     S
C773   C774    1.534   .     S
C773   O824    1.422   .     S
C774   C775    1.523   .     S
C774   H870    1.106   .     S
C774   H871    1.110   .     S
C775   H796    1.111   .     S
C775   H873    1.106   .     S
C775   H1026   1.110   .     S
C776   O825    1.422   .     S
C776   H799    1.108   .     S
C776   C777    1.537   .     S
C776   H801    1.113   .     S
C777   C778    1.522   .     S
C777   H878    1.108   .     S
C777   H879    1.111   .     S
C778   H804    1.111   .     S
C778   H881    1.106   .     S
C778   H1262   1.110   1_545 S
C779   C780    1.526   .     S
C779   H807    1.111   .     S
C779   O826    1.417   .     S
C779   H808    1.118   .     S
C780   H809    1.112   .     S
C780   H810    1.109   .     S
C780   C1465   1.524   .     S
C781   H813    1.109   .     S
C781   H814    1.106   .     S
C781   H812    1.110   .     S
C782   C784    1.364   .     S
C782   O833    1.279   .     A
C782   O830    1.280   .     A
C783   O831    1.280   .     A
C783   C785    1.364   .     S
C783   O832    1.279   .     A
C785   C1468   1.165   .     S
C786   O834    1.385   .     S
C787   O824    1.384   .     S
C787   C838    1.377   .     S
C788   O825    1.383   .     S
C788   C862    1.377   .     S
H798   C1231   1.110   1_545 S
H806   C1006   1.110   .     S
N821   Zn835   2.020   .     S
N822   Zn836   2.020   .     S
O823   Zn835   2.012   .     S
O827   Zn836   2.012   .     S
O828   Zn835   2.009   .     S
O829   Zn836   2.009   .     S
O830   Zn835   1.947   .     S
O831   Zn836   1.947   .     S
O832   Zn835   1.947   .     S
O833   Zn836   1.947   .     S
C837   C840    1.419   .     S
C837   O899    1.286   .     A
C837   O905    1.286   .     A
C838   C840    1.402   .     A
C838   O902    1.385   .     S
C839   C848    1.437   .     S
C839   C863    1.412   .     A
C839   C864    1.411   .     A
C840   C862    1.402   .     A
C841   N898    1.368   .     A
C841   H865    1.082   .     S
C841   C1300   1.420   1_545 S
C842   H876    1.081   .     S
C842   N897    1.368   .     A
C842   C1071   1.420   .     S
C843   N898    1.367   .     A
C843   H887    1.080   .     S
C843   C1298   1.420   1_545 S
C844   N897    1.368   .     A
C844   H891    1.082   .     S
C844   C1069   1.420   .     S
C845   C846    1.528   .     S
C845   H892    1.111   .     S
C845   O910    1.417   .     S
C845   H893    1.118   .     S
C846   H894    1.110   .     S
C846   H895    1.110   .     S
C847   H867    1.106   .     S
C847   H896    1.110   .     S
C847   H866    1.109   .     S
C847   C1530   1.525   .     S
C848   O904    1.290   .     A
C848   O903    1.291   .     A
C849   H869    1.114   .     S
C849   H868    1.109   .     S
C849   C850    1.534   .     S
C849   O900    1.422   .     S
C850   C851    1.523   .     S
C850   H718    1.106   1_655 S
C850   H719    1.110   1_655 S
C851   H872    1.111   .     S
C851   H721    1.106   1_655 S
C851   H1102   1.110   .     S
C852   O901    1.422   .     S
C852   H875    1.108   .     S
C852   C853    1.537   .     S
C852   H877    1.113   .     S
C853   C854    1.522   .     S
C853   H726    1.108   1_655 S
C853   H727    1.111   1_655 S
C854   H880    1.111   .     S
C854   H729    1.106   1_655 S
C854   H1338   1.110   1_545 S
C855   C856    1.526   .     S
C855   H883    1.111   .     S
C855   O902    1.417   .     S
C855   H884    1.118   .     S
C856   H885    1.112   .     S
C856   H886    1.109   .     S
C856   C1541   1.524   .     S
C857   H889    1.109   .     S
C857   H890    1.106   .     S
C857   H888    1.110   .     S
C858   C860    1.364   .     S
C858   O909    1.279   .     A
C858   O906    1.280   .     A
C859   O907    1.280   .     A
C859   C861    1.364   .     S
C859   O908    1.279   .     A
C861   C1544   1.165   .     S
C862   O910    1.385   .     S
C863   O900    1.384   .     S
C863   C686    1.377   1_655 S
C864   O901    1.383   .     S
C864   C710    1.377   1_655 S
H874   C1307   1.110   1_545 S
H882   C1082   1.110   .     S
N897   Zn911   2.020   .     S
N898   Zn912   2.020   .     S
O899   Zn911   2.012   .     S
O903   Zn912   2.012   .     S
O904   Zn911   2.009   .     S
O905   Zn912   2.009   .     S
O906   Zn911   1.947   .     S
O907   Zn912   1.947   .     S
O908   Zn911   1.947   .     S
O909   Zn912   1.947   .     S
C913   C916    1.419   .     S
C913   O975    1.286   .     A
C913   O981    1.286   .     A
C914   C916    1.402   .     A
C914   O978    1.385   .     S
C914   C1091   1.377   1_455 S
C915   C924    1.437   .     S
C915   C939    1.412   .     A
C915   C940    1.411   .     A
C916   C938    1.402   .     A
C917   N974    1.368   .     A
C917   H941    1.082   .     S
C918   H952    1.081   .     S
C918   N973    1.368   .     A
C918   C1147   1.420   .     S
C919   N974    1.367   .     A
C919   H963    1.080   .     S
C920   N973    1.368   .     A
C920   H967    1.082   .     S
C920   C1145   1.420   .     S
C921   C922    1.528   .     S
C921   H968    1.111   .     S
C921   O986    1.417   .     S
C921   H969    1.118   .     S
C922   H970    1.110   .     S
C922   H971    1.110   .     S
C923   H943    1.106   .     S
C923   H972    1.110   .     S
C923   H942    1.109   .     S
C923   C1606   1.525   .     S
C924   O980    1.290   .     A
C924   O979    1.291   .     A
C925   H945    1.114   .     S
C925   H944    1.109   .     S
C925   C926    1.534   .     S
C925   O976    1.422   .     S
C926   C927    1.523   .     S
C926   H1022   1.106   .     S
C926   H1023   1.110   .     S
C927   H948    1.111   .     S
C927   H1025   1.106   .     S
C927   H1178   1.110   .     S
C928   O977    1.422   .     S
C928   H951    1.108   .     S
C928   C929    1.537   .     S
C928   H953    1.113   .     S
C929   C930    1.522   .     S
C929   H1030   1.108   .     S
C929   H1031   1.111   .     S
C930   H956    1.111   .     S
C930   H1033   1.106   .     S
C931   C932    1.526   .     S
C931   H959    1.111   .     S
C931   O978    1.417   .     S
C931   H960    1.118   .     S
C932   H961    1.112   .     S
C932   H962    1.109   .     S
C932   C1617   1.524   .     S
C933   H965    1.109   .     S
C933   H966    1.106   .     S
C933   H964    1.110   .     S
C934   C936    1.364   .     S
C934   O985    1.279   .     A
C934   O982    1.280   .     A
C935   O983    1.280   .     A
C935   C937    1.364   .     S
C935   O984    1.279   .     A
C937   C1620   1.165   .     S
C938   O986    1.385   .     S
C938   C1092   1.377   1_455 S
C939   O976    1.384   .     S
C939   C990    1.377   .     S
C940   O977    1.383   .     S
C940   C1014   1.377   .     S
H946   C1078   1.106   1_455 S
H947   C1078   1.110   1_455 S
H949   C1079   1.106   1_455 S
H954   C1081   1.108   1_455 S
H955   C1081   1.111   1_455 S
H957   C1082   1.106   1_455 S
H958   C1158   1.110   .     S
N973   Zn987   2.020   .     S
N974   Zn988   2.020   .     S
O975   Zn987   2.012   .     S
O979   Zn988   2.012   .     S
O980   Zn987   2.009   .     S
O981   Zn988   2.009   .     S
O982   Zn987   1.947   .     S
O983   Zn988   1.947   .     S
O984   Zn987   1.947   .     S
O985   Zn988   1.947   .     S
C989   C992    1.419   .     S
C989   O1051   1.286   .     A
C989   O1057   1.286   .     A
C990   C992    1.402   .     A
C990   O1054   1.385   .     S
C991   C1000   1.437   .     S
C991   C1015   1.412   .     A
C991   C1016   1.411   .     A
C992   C1014   1.402   .     A
C993   N1050   1.368   .     A
C993   H1017   1.082   .     S
C994   H1028   1.081   .     S
C994   N1049   1.368   .     A
C994   C1223   1.420   .     S
C995   N1050   1.367   .     A
C995   H1039   1.080   .     S
C996   N1049   1.368   .     A
C996   H1043   1.082   .     S
C996   C1221   1.420   .     S
C997   C998    1.528   .     S
C997   H1044   1.111   .     S
C997   O1062   1.417   .     S
C997   H1045   1.118   .     S
C998   H1046   1.110   .     S
C998   H1047   1.110   .     S
C999   H1019   1.106   .     S
C999   H1048   1.110   .     S
C999   H1018   1.109   .     S
C999   C1682   1.525   .     S
C1000  O1056   1.290   .     A
C1000  O1055   1.291   .     A
C1001  H1021   1.114   .     S
C1001  H1020   1.109   .     S
C1001  C1002   1.534   .     S
C1001  O1052   1.422   .     S
C1002  C1003   1.523   .     S
C1002  H1098   1.106   .     S
C1002  H1099   1.110   .     S
C1003  H1024   1.111   .     S
C1003  H1101   1.106   .     S
C1003  H1254   1.110   .     S
C1004  O1053   1.422   .     S
C1004  H1027   1.108   .     S
C1004  C1005   1.537   .     S
C1004  H1029   1.113   .     S
C1005  C1006   1.522   .     S
C1005  H1106   1.108   .     S
C1005  H1107   1.111   .     S
C1006  H1032   1.111   .     S
C1006  H1109   1.106   .     S
C1007  C1008   1.526   .     S
C1007  H1035   1.111   .     S
C1007  O1054   1.417   .     S
C1007  H1036   1.118   .     S
C1008  H1037   1.112   .     S
C1008  H1038   1.109   .     S
C1008  C1693   1.524   .     S
C1009  H1041   1.109   .     S
C1009  H1042   1.106   .     S
C1009  H1040   1.110   .     S
C1010  C1012   1.364   .     S
C1010  O1061   1.279   .     A
C1010  O1058   1.280   .     A
C1011  O1059   1.280   .     A
C1011  C1013   1.364   .     S
C1011  O1060   1.279   .     A
C1013  C1696   1.165   .     S
C1014  O1062   1.385   .     S
C1015  O1052   1.384   .     S
C1015  C1066   1.377   .     S
C1016  O1053   1.383   .     S
C1016  C1090   1.377   .     S
H1034  C1234   1.110   .     S
N1049  Zn1063  2.020   .     S
N1050  Zn1064  2.020   .     S
O1051  Zn1063  2.012   .     S
O1055  Zn1064  2.012   .     S
O1056  Zn1063  2.009   .     S
O1057  Zn1064  2.009   .     S
O1058  Zn1063  1.947   .     S
O1059  Zn1064  1.947   .     S
O1060  Zn1063  1.947   .     S
O1061  Zn1064  1.947   .     S
C1065  C1068   1.419   .     S
C1065  O1127   1.286   .     A
C1065  O1133   1.286   .     A
C1066  C1068   1.402   .     A
C1066  O1130   1.385   .     S
C1067  C1076   1.437   .     S
C1067  C1091   1.412   .     A
C1067  C1092   1.411   .     A
C1068  C1090   1.402   .     A
C1069  N1126   1.368   .     A
C1069  H1093   1.082   .     S
C1070  H1104   1.081   .     S
C1070  N1125   1.368   .     A
C1070  C1299   1.420   .     S
C1071  N1126   1.367   .     A
C1071  H1115   1.080   .     S
C1072  N1125   1.368   .     A
C1072  H1119   1.082   .     S
C1072  C1297   1.420   .     S
C1073  C1074   1.528   .     S
C1073  H1120   1.111   .     S
C1073  O1138   1.417   .     S
C1073  H1121   1.118   .     S
C1074  H1122   1.110   .     S
C1074  H1123   1.110   .     S
C1075  H1095   1.106   .     S
C1075  H1124   1.110   .     S
C1075  H1094   1.109   .     S
C1075  C1758   1.525   .     S
C1076  O1132   1.290   .     A
C1076  O1131   1.291   .     A
C1077  H1097   1.114   .     S
C1077  H1096   1.109   .     S
C1077  C1078   1.534   .     S
C1077  O1128   1.422   .     S
C1078  C1079   1.523   .     S
C1078  H946    1.106   1_655 S
C1078  H947    1.110   1_655 S
C1079  H1100   1.111   .     S
C1079  H949    1.106   1_655 S
C1079  H1330   1.110   .     S
C1080  O1129   1.422   .     S
C1080  H1103   1.108   .     S
C1080  C1081   1.537   .     S
C1080  H1105   1.113   .     S
C1081  C1082   1.522   .     S
C1081  H954    1.108   1_655 S
C1081  H955    1.111   1_655 S
C1082  H1108   1.111   .     S
C1082  H957    1.106   1_655 S
C1083  C1084   1.526   .     S
C1083  H1111   1.111   .     S
C1083  O1130   1.417   .     S
C1083  H1112   1.118   .     S
C1084  H1113   1.112   .     S
C1084  H1114   1.109   .     S
C1084  C1769   1.524   .     S
C1085  H1117   1.109   .     S
C1085  H1118   1.106   .     S
C1085  H1116   1.110   .     S
C1086  C1088   1.364   .     S
C1086  O1137   1.279   .     A
C1086  O1134   1.280   .     A
C1087  O1135   1.280   .     A
C1087  C1089   1.364   .     S
C1087  O1136   1.279   .     A
C1089  C1772   1.165   .     S
C1090  O1138   1.385   .     S
C1091  O1128   1.384   .     S
C1091  C914    1.377   1_655 S
C1092  O1129   1.383   .     S
C1092  C938    1.377   1_655 S
H1110  C1310   1.110   .     S
N1125  Zn1139  2.020   .     S
N1126  Zn1140  2.020   .     S
O1127  Zn1139  2.012   .     S
O1131  Zn1140  2.012   .     S
O1132  Zn1139  2.009   .     S
O1133  Zn1140  2.009   .     S
O1134  Zn1139  1.947   .     S
O1135  Zn1140  1.947   .     S
O1136  Zn1139  1.947   .     S
O1137  Zn1140  1.947   .     S
C1141  C1144   1.419   .     S
C1141  O1203   1.286   .     A
C1141  O1209   1.286   .     A
C1142  C1144   1.402   .     A
C1142  O1206   1.385   .     S
C1142  C1319   1.377   1_455 S
C1143  C1152   1.437   .     S
C1143  C1167   1.412   .     A
C1143  C1168   1.411   .     A
C1144  C1166   1.402   .     A
C1145  N1202   1.368   .     A
C1145  H1169   1.082   .     S
C1146  H1180   1.081   .     S
C1146  N1201   1.368   .     A
C1146  C691    1.420   1_565 S
C1147  N1202   1.367   .     A
C1147  H1191   1.080   .     S
C1148  N1201   1.368   .     A
C1148  H1195   1.082   .     S
C1148  C689    1.420   1_565 S
C1149  C1150   1.528   .     S
C1149  H1196   1.111   .     S
C1149  O1214   1.417   .     S
C1149  H1197   1.118   .     S
C1150  H1198   1.110   .     S
C1150  H1199   1.110   .     S
C1151  H1171   1.106   .     S
C1151  H1200   1.110   .     S
C1151  H1170   1.109   .     S
C1151  C1834   1.525   .     S
C1152  O1208   1.290   .     A
C1152  O1207   1.291   .     A
C1153  H1173   1.114   .     S
C1153  H1172   1.109   .     S
C1153  C1154   1.534   .     S
C1153  O1204   1.422   .     S
C1154  C1155   1.523   .     S
C1154  H1250   1.106   .     S
C1154  H1251   1.110   .     S
C1155  H1176   1.111   .     S
C1155  H1253   1.106   .     S
C1155  H722    1.110   1_565 S
C1156  O1205   1.422   .     S
C1156  H1179   1.108   .     S
C1156  C1157   1.537   .     S
C1156  H1181   1.113   .     S
C1157  C1158   1.522   .     S
C1157  H1258   1.108   .     S
C1157  H1259   1.111   .     S
C1158  H1184   1.111   .     S
C1158  H1261   1.106   .     S
C1159  C1160   1.526   .     S
C1159  H1187   1.111   .     S
C1159  O1206   1.417   .     S
C1159  H1188   1.118   .     S
C1160  H1189   1.112   .     S
C1160  H1190   1.109   .     S
C1160  C1845   1.524   .     S
C1161  H1193   1.109   .     S
C1161  H1194   1.106   .     S
C1161  H1192   1.110   .     S
C1162  C1164   1.364   .     S
C1162  O1213   1.279   .     A
C1162  O1210   1.280   .     A
C1163  O1211   1.280   .     A
C1163  C1165   1.364   .     S
C1163  O1212   1.279   .     A
C1165  C1848   1.165   .     S
C1166  O1214   1.385   .     S
C1166  C1320   1.377   1_455 S
C1167  O1204   1.384   .     S
C1167  C1218   1.377   .     S
C1168  O1205   1.383   .     S
C1168  C1242   1.377   .     S
H1174  C1306   1.106   1_455 S
H1175  C1306   1.110   1_455 S
H1177  C1307   1.106   1_455 S
H1182  C1309   1.108   1_455 S
H1183  C1309   1.111   1_455 S
H1185  C1310   1.106   1_455 S
H1186  C702    1.110   1_565 S
N1201  Zn1215  2.020   .     S
N1202  Zn1216  2.020   .     S
O1203  Zn1215  2.012   .     S
O1207  Zn1216  2.012   .     S
O1208  Zn1215  2.009   .     S
O1209  Zn1216  2.009   .     S
O1210  Zn1215  1.947   .     S
O1211  Zn1216  1.947   .     S
O1212  Zn1215  1.947   .     S
O1213  Zn1216  1.947   .     S
C1217  C1220   1.419   .     S
C1217  O1279   1.286   .     A
C1217  O1285   1.286   .     A
C1218  C1220   1.402   .     A
C1218  O1282   1.385   .     S
C1219  C1228   1.437   .     S
C1219  C1243   1.412   .     A
C1219  C1244   1.411   .     A
C1220  C1242   1.402   .     A
C1221  N1278   1.368   .     A
C1221  H1245   1.082   .     S
C1222  H1256   1.081   .     S
C1222  N1277   1.368   .     A
C1222  C767    1.420   1_565 S
C1223  N1278   1.367   .     A
C1223  H1267   1.080   .     S
C1224  N1277   1.368   .     A
C1224  H1271   1.082   .     S
C1224  C765    1.420   1_565 S
C1225  C1226   1.528   .     S
C1225  H1272   1.111   .     S
C1225  O1290   1.417   .     S
C1225  H1273   1.118   .     S
C1226  H1274   1.110   .     S
C1226  H1275   1.110   .     S
C1227  H1247   1.106   .     S
C1227  H1276   1.110   .     S
C1227  H1246   1.109   .     S
C1227  C1910   1.525   .     S
C1228  O1284   1.290   .     A
C1228  O1283   1.291   .     A
C1229  H1249   1.114   .     S
C1229  H1248   1.109   .     S
C1229  C1230   1.534   .     S
C1229  O1280   1.422   .     S
C1230  C1231   1.523   .     S
C1230  H1326   1.106   .     S
C1230  H1327   1.110   .     S
C1231  H1252   1.111   .     S
C1231  H1329   1.106   .     S
C1231  H798    1.110   1_565 S
C1232  O1281   1.422   .     S
C1232  H1255   1.108   .     S
C1232  C1233   1.537   .     S
C1232  H1257   1.113   .     S
C1233  C1234   1.522   .     S
C1233  H1334   1.108   .     S
C1233  H1335   1.111   .     S
C1234  H1260   1.111   .     S
C1234  H1337   1.106   .     S
C1235  C1236   1.526   .     S
C1235  H1263   1.111   .     S
C1235  O1282   1.417   .     S
C1235  H1264   1.118   .     S
C1236  H1265   1.112   .     S
C1236  H1266   1.109   .     S
C1236  C1921   1.524   .     S
C1237  H1269   1.109   .     S
C1237  H1270   1.106   .     S
C1237  H1268   1.110   .     S
C1238  C1240   1.364   .     S
C1238  O1289   1.279   .     A
C1238  O1286   1.280   .     A
C1239  O1287   1.280   .     A
C1239  C1241   1.364   .     S
C1239  O1288   1.279   .     A
C1241  C1924   1.165   .     S
C1242  O1290   1.385   .     S
C1243  O1280   1.384   .     S
C1243  C1294   1.377   .     S
C1244  O1281   1.383   .     S
C1244  C1318   1.377   .     S
H1262  C778    1.110   1_565 S
N1277  Zn1291  2.020   .     S
N1278  Zn1292  2.020   .     S
O1279  Zn1291  2.012   .     S
O1283  Zn1292  2.012   .     S
O1284  Zn1291  2.009   .     S
O1285  Zn1292  2.009   .     S
O1286  Zn1291  1.947   .     S
O1287  Zn1292  1.947   .     S
O1288  Zn1291  1.947   .     S
O1289  Zn1292  1.947   .     S
C1293  C1296   1.419   .     S
C1293  O1355   1.286   .     A
C1293  O1361   1.286   .     A
C1294  C1296   1.402   .     A
C1294  O1358   1.385   .     S
C1295  C1304   1.437   .     S
C1295  C1319   1.412   .     A
C1295  C1320   1.411   .     A
C1296  C1318   1.402   .     A
C1297  N1354   1.368   .     A
C1297  H1321   1.082   .     S
C1298  H1332   1.081   .     S
C1298  N1353   1.368   .     A
C1298  C843    1.420   1_565 S
C1299  N1354   1.367   .     A
C1299  H1343   1.080   .     S
C1300  N1353   1.368   .     A
C1300  H1347   1.082   .     S
C1300  C841    1.420   1_565 S
C1301  C1302   1.528   .     S
C1301  H1348   1.111   .     S
C1301  O1366   1.417   .     S
C1301  H1349   1.118   .     S
C1302  H1350   1.110   .     S
C1302  H1351   1.110   .     S
C1303  H1323   1.106   .     S
C1303  H1352   1.110   .     S
C1303  H1322   1.109   .     S
C1303  C1986   1.525   .     S
C1304  O1360   1.290   .     A
C1304  O1359   1.291   .     A
C1305  H1325   1.114   .     S
C1305  H1324   1.109   .     S
C1305  C1306   1.534   .     S
C1305  O1356   1.422   .     S
C1306  C1307   1.523   .     S
C1306  H1174   1.106   1_655 S
C1306  H1175   1.110   1_655 S
C1307  H1328   1.111   .     S
C1307  H1177   1.106   1_655 S
C1307  H874    1.110   1_565 S
C1308  O1357   1.422   .     S
C1308  H1331   1.108   .     S
C1308  C1309   1.537   .     S
C1308  H1333   1.113   .     S
C1309  C1310   1.522   .     S
C1309  H1182   1.108   1_655 S
C1309  H1183   1.111   1_655 S
C1310  H1336   1.111   .     S
C1310  H1185   1.106   1_655 S
C1311  C1312   1.526   .     S
C1311  H1339   1.111   .     S
C1311  O1358   1.417   .     S
C1311  H1340   1.118   .     S
C1312  H1341   1.112   .     S
C1312  H1342   1.109   .     S
C1312  C1997   1.524   .     S
C1313  H1345   1.109   .     S
C1313  H1346   1.106   .     S
C1313  H1344   1.110   .     S
C1314  C1316   1.364   .     S
C1314  O1365   1.279   .     A
C1314  O1362   1.280   .     A
C1315  O1363   1.280   .     A
C1315  C1317   1.364   .     S
C1315  O1364   1.279   .     A
C1317  C2000   1.165   .     S
C1318  O1366   1.385   .     S
C1319  O1356   1.384   .     S
C1319  C1142   1.377   1_655 S
C1320  O1357   1.383   .     S
C1320  C1166   1.377   1_655 S
H1338  C854    1.110   1_565 S
N1353  Zn1367  2.020   .     S
N1354  Zn1368  2.020   .     S
O1355  Zn1367  2.012   .     S
O1359  Zn1368  2.012   .     S
O1360  Zn1367  2.009   .     S
O1361  Zn1368  2.009   .     S
O1362  Zn1367  1.947   .     S
O1363  Zn1368  1.947   .     S
O1364  Zn1367  1.947   .     S
O1365  Zn1368  1.947   .     S
C1369  C1372   1.419   .     S
C1369  O1431   1.286   .     A
C1369  O1437   1.286   .     A
C1370  C1372   1.402   .     A
C1370  O1434   1.385   .     S
C1370  C1547   1.377   1_455 S
C1371  C1380   1.437   .     S
C1371  C1395   1.412   .     A
C1371  C1396   1.411   .     A
C1372  C1394   1.402   .     A
C1373  N1430   1.368   .     A
C1373  H1397   1.082   .     S
C1373  C1832   1.420   1_545 S
C1374  H1408   1.081   .     S
C1374  N1429   1.368   .     A
C1374  C1603   1.420   .     S
C1375  N1430   1.367   .     A
C1375  H1419   1.080   .     S
C1375  C1830   1.420   1_545 S
C1376  N1429   1.368   .     A
C1376  H1423   1.082   .     S
C1376  C1601   1.420   .     S
C1377  C1378   1.528   .     S
C1377  H1424   1.111   .     S
C1377  O1442   1.417   .     S
C1377  H1425   1.118   .     S
C1378  H1426   1.110   .     S
C1378  H1427   1.110   .     S
C1379  H1399   1.106   .     S
C1379  H1428   1.110   .     S
C1379  H1398   1.109   .     S
C1379  C10     1.525   1_556 S
C1380  O1436   1.290   .     A
C1380  O1435   1.291   .     A
C1381  H1401   1.114   .     S
C1381  H1400   1.109   .     S
C1381  C1382   1.534   .     S
C1381  O1432   1.422   .     S
C1382  C1383   1.523   .     S
C1382  H1478   1.106   .     S
C1382  H1479   1.110   .     S
C1383  H1404   1.111   .     S
C1383  H1481   1.106   .     S
C1383  H1634   1.110   .     S
C1384  O1433   1.422   .     S
C1384  H1407   1.108   .     S
C1384  C1385   1.537   .     S
C1384  H1409   1.113   .     S
C1385  C1386   1.522   .     S
C1385  H1486   1.108   .     S
C1385  H1487   1.111   .     S
C1386  H1412   1.111   .     S
C1386  H1489   1.106   .     S
C1386  H1870   1.110   1_545 S
C1387  C1388   1.526   .     S
C1387  H1415   1.111   .     S
C1387  O1434   1.417   .     S
C1387  H1416   1.118   .     S
C1388  H1417   1.112   .     S
C1388  H1418   1.109   .     S
C1388  C21     1.524   1_556 S
C1389  H1421   1.109   .     S
C1389  H1422   1.106   .     S
C1389  H1420   1.110   .     S
C1390  C1392   1.364   .     S
C1390  O1441   1.279   .     A
C1390  O1438   1.280   .     A
C1391  O1439   1.280   .     A
C1391  C1393   1.364   .     S
C1391  O1440   1.279   .     A
C1393  C24     1.165   1_556 S
C1394  O1442   1.385   .     S
C1394  C1548   1.377   1_455 S
C1395  O1432   1.384   .     S
C1395  C1446   1.377   .     S
C1396  O1433   1.383   .     S
C1396  C1470   1.377   .     S
H1402  C1534   1.106   1_455 S
H1403  C1534   1.110   1_455 S
H1405  C1535   1.106   1_455 S
H1406  C1839   1.110   1_545 S
H1410  C1537   1.108   1_455 S
H1411  C1537   1.111   1_455 S
H1413  C1538   1.106   1_455 S
H1414  C1614   1.110   .     S
N1429  Zn1443  2.020   .     S
N1430  Zn1444  2.020   .     S
O1431  Zn1443  2.012   .     S
O1435  Zn1444  2.012   .     S
O1436  Zn1443  2.009   .     S
O1437  Zn1444  2.009   .     S
O1438  Zn1443  1.947   .     S
O1439  Zn1444  1.947   .     S
O1440  Zn1443  1.947   .     S
O1441  Zn1444  1.947   .     S
C1445  C1448   1.419   .     S
C1445  O1507   1.286   .     A
C1445  O1513   1.286   .     A
C1446  C1448   1.402   .     A
C1446  O1510   1.385   .     S
C1447  C1456   1.437   .     S
C1447  C1471   1.412   .     A
C1447  C1472   1.411   .     A
C1448  C1470   1.402   .     A
C1449  N1506   1.368   .     A
C1449  H1473   1.082   .     S
C1449  C1908   1.420   1_545 S
C1450  H1484   1.081   .     S
C1450  N1505   1.368   .     A
C1450  C1679   1.420   .     S
C1451  N1506   1.367   .     A
C1451  H1495   1.080   .     S
C1451  C1906   1.420   1_545 S
C1452  N1505   1.368   .     A
C1452  H1499   1.082   .     S
C1452  C1677   1.420   .     S
C1453  C1454   1.528   .     S
C1453  H1500   1.111   .     S
C1453  O1518   1.417   .     S
C1453  H1501   1.118   .     S
C1454  H1502   1.110   .     S
C1454  H1503   1.110   .     S
C1455  H1475   1.106   .     S
C1455  H1504   1.110   .     S
C1455  H1474   1.109   .     S
C1455  C86     1.525   1_556 S
C1456  O1512   1.290   .     A
C1456  O1511   1.291   .     A
C1457  H1477   1.114   .     S
C1457  H1476   1.109   .     S
C1457  C1458   1.534   .     S
C1457  O1508   1.422   .     S
C1458  C1459   1.523   .     S
C1458  H1554   1.106   .     S
C1458  H1555   1.110   .     S
C1459  H1480   1.111   .     S
C1459  H1557   1.106   .     S
C1459  H1710   1.110   .     S
C1460  O1509   1.422   .     S
C1460  H1483   1.108   .     S
C1460  C1461   1.537   .     S
C1460  H1485   1.113   .     S
C1461  C1462   1.522   .     S
C1461  H1562   1.108   .     S
C1461  H1563   1.111   .     S
C1462  H1488   1.111   .     S
C1462  H1565   1.106   .     S
C1462  H1946   1.110   1_545 S
C1463  C1464   1.526   .     S
C1463  H1491   1.111   .     S
C1463  O1510   1.417   .     S
C1463  H1492   1.118   .     S
C1464  H1493   1.112   .     S
C1464  H1494   1.109   .     S
C1464  C97     1.524   1_556 S
C1465  H1497   1.109   .     S
C1465  H1498   1.106   .     S
C1465  H1496   1.110   .     S
C1466  C1468   1.364   .     S
C1466  O1517   1.279   .     A
C1466  O1514   1.280   .     A
C1467  O1515   1.280   .     A
C1467  C1469   1.364   .     S
C1467  O1516   1.279   .     A
C1469  C100    1.165   1_556 S
C1470  O1518   1.385   .     S
C1471  O1508   1.384   .     S
C1471  C1522   1.377   .     S
C1472  O1509   1.383   .     S
C1472  C1546   1.377   .     S
H1482  C1915   1.110   1_545 S
H1490  C1690   1.110   .     S
N1505  Zn1519  2.020   .     S
N1506  Zn1520  2.020   .     S
O1507  Zn1519  2.012   .     S
O1511  Zn1520  2.012   .     S
O1512  Zn1519  2.009   .     S
O1513  Zn1520  2.009   .     S
O1514  Zn1519  1.947   .     S
O1515  Zn1520  1.947   .     S
O1516  Zn1519  1.947   .     S
O1517  Zn1520  1.947   .     S
C1521  C1524   1.419   .     S
C1521  O1583   1.286   .     A
C1521  O1589   1.286   .     A
C1522  C1524   1.402   .     A
C1522  O1586   1.385   .     S
C1523  C1532   1.437   .     S
C1523  C1547   1.412   .     A
C1523  C1548   1.411   .     A
C1524  C1546   1.402   .     A
C1525  N1582   1.368   .     A
C1525  H1549   1.082   .     S
C1525  C1984   1.420   1_545 S
C1526  H1560   1.081   .     S
C1526  N1581   1.368   .     A
C1526  C1755   1.420   .     S
C1527  N1582   1.367   .     A
C1527  H1571   1.080   .     S
C1527  C1982   1.420   1_545 S
C1528  N1581   1.368   .     A
C1528  H1575   1.082   .     S
C1528  C1753   1.420   .     S
C1529  C1530   1.528   .     S
C1529  H1576   1.111   .     S
C1529  O1594   1.417   .     S
C1529  H1577   1.118   .     S
C1530  H1578   1.110   .     S
C1530  H1579   1.110   .     S
C1531  H1551   1.106   .     S
C1531  H1580   1.110   .     S
C1531  H1550   1.109   .     S
C1531  C162    1.525   1_556 S
C1532  O1588   1.290   .     A
C1532  O1587   1.291   .     A
C1533  H1553   1.114   .     S
C1533  H1552   1.109   .     S
C1533  C1534   1.534   .     S
C1533  O1584   1.422   .     S
C1534  C1535   1.523   .     S
C1534  H1402   1.106   1_655 S
C1534  H1403   1.110   1_655 S
C1535  H1556   1.111   .     S
C1535  H1405   1.106   1_655 S
C1535  H1786   1.110   .     S
C1536  O1585   1.422   .     S
C1536  H1559   1.108   .     S
C1536  C1537   1.537   .     S
C1536  H1561   1.113   .     S
C1537  C1538   1.522   .     S
C1537  H1410   1.108   1_655 S
C1537  H1411   1.111   1_655 S
C1538  H1564   1.111   .     S
C1538  H1413   1.106   1_655 S
C1538  H2022   1.110   1_545 S
C1539  C1540   1.526   .     S
C1539  H1567   1.111   .     S
C1539  O1586   1.417   .     S
C1539  H1568   1.118   .     S
C1540  H1569   1.112   .     S
C1540  H1570   1.109   .     S
C1540  C173    1.524   1_556 S
C1541  H1573   1.109   .     S
C1541  H1574   1.106   .     S
C1541  H1572   1.110   .     S
C1542  C1544   1.364   .     S
C1542  O1593   1.279   .     A
C1542  O1590   1.280   .     A
C1543  O1591   1.280   .     A
C1543  C1545   1.364   .     S
C1543  O1592   1.279   .     A
C1545  C176    1.165   1_556 S
C1546  O1594   1.385   .     S
C1547  O1584   1.384   .     S
C1547  C1370   1.377   1_655 S
C1548  O1585   1.383   .     S
C1548  C1394   1.377   1_655 S
H1558  C1991   1.110   1_545 S
H1566  C1766   1.110   .     S
N1581  Zn1595  2.020   .     S
N1582  Zn1596  2.020   .     S
O1583  Zn1595  2.012   .     S
O1587  Zn1596  2.012   .     S
O1588  Zn1595  2.009   .     S
O1589  Zn1596  2.009   .     S
O1590  Zn1595  1.947   .     S
O1591  Zn1596  1.947   .     S
O1592  Zn1595  1.947   .     S
O1593  Zn1596  1.947   .     S
C1597  C1600   1.419   .     S
C1597  O1659   1.286   .     A
C1597  O1665   1.286   .     A
C1598  C1600   1.402   .     A
C1598  O1662   1.385   .     S
C1598  C1775   1.377   1_455 S
C1599  C1608   1.437   .     S
C1599  C1623   1.412   .     A
C1599  C1624   1.411   .     A
C1600  C1622   1.402   .     A
C1601  N1658   1.368   .     A
C1601  H1625   1.082   .     S
C1602  H1636   1.081   .     S
C1602  N1657   1.368   .     A
C1602  C1831   1.420   .     S
C1603  N1658   1.367   .     A
C1603  H1647   1.080   .     S
C1604  N1657   1.368   .     A
C1604  H1651   1.082   .     S
C1604  C1829   1.420   .     S
C1605  C1606   1.528   .     S
C1605  H1652   1.111   .     S
C1605  O1670   1.417   .     S
C1605  H1653   1.118   .     S
C1606  H1654   1.110   .     S
C1606  H1655   1.110   .     S
C1607  H1627   1.106   .     S
C1607  H1656   1.110   .     S
C1607  H1626   1.109   .     S
C1607  C238    1.525   1_556 S
C1608  O1664   1.290   .     A
C1608  O1663   1.291   .     A
C1609  H1629   1.114   .     S
C1609  H1628   1.109   .     S
C1609  C1610   1.534   .     S
C1609  O1660   1.422   .     S
C1610  C1611   1.523   .     S
C1610  H1706   1.106   .     S
C1610  H1707   1.110   .     S
C1611  H1632   1.111   .     S
C1611  H1709   1.106   .     S
C1611  H1862   1.110   .     S
C1612  O1661   1.422   .     S
C1612  H1635   1.108   .     S
C1612  C1613   1.537   .     S
C1612  H1637   1.113   .     S
C1613  C1614   1.522   .     S
C1613  H1714   1.108   .     S
C1613  H1715   1.111   .     S
C1614  H1640   1.111   .     S
C1614  H1717   1.106   .     S
C1615  C1616   1.526   .     S
C1615  H1643   1.111   .     S
C1615  O1662   1.417   .     S
C1615  H1644   1.118   .     S
C1616  H1645   1.112   .     S
C1616  H1646   1.109   .     S
C1616  C249    1.524   1_556 S
C1617  H1649   1.109   .     S
C1617  H1650   1.106   .     S
C1617  H1648   1.110   .     S
C1618  C1620   1.364   .     S
C1618  O1669   1.279   .     A
C1618  O1666   1.280   .     A
C1619  O1667   1.280   .     A
C1619  C1621   1.364   .     S
C1619  O1668   1.279   .     A
C1621  C252    1.165   1_556 S
C1622  O1670   1.385   .     S
C1622  C1776   1.377   1_455 S
C1623  O1660   1.384   .     S
C1623  C1674   1.377   .     S
C1624  O1661   1.383   .     S
C1624  C1698   1.377   .     S
H1630  C1762   1.106   1_455 S
H1631  C1762   1.110   1_455 S
H1633  C1763   1.106   1_455 S
H1638  C1765   1.108   1_455 S
H1639  C1765   1.111   1_455 S
H1641  C1766   1.106   1_455 S
H1642  C1842   1.110   .     S
N1657  Zn1671  2.020   .     S
N1658  Zn1672  2.020   .     S
O1659  Zn1671  2.012   .     S
O1663  Zn1672  2.012   .     S
O1664  Zn1671  2.009   .     S
O1665  Zn1672  2.009   .     S
O1666  Zn1671  1.947   .     S
O1667  Zn1672  1.947   .     S
O1668  Zn1671  1.947   .     S
O1669  Zn1672  1.947   .     S
C1673  C1676   1.419   .     S
C1673  O1735   1.286   .     A
C1673  O1741   1.286   .     A
C1674  C1676   1.402   .     A
C1674  O1738   1.385   .     S
C1675  C1684   1.437   .     S
C1675  C1699   1.412   .     A
C1675  C1700   1.411   .     A
C1676  C1698   1.402   .     A
C1677  N1734   1.368   .     A
C1677  H1701   1.082   .     S
C1678  H1712   1.081   .     S
C1678  N1733   1.368   .     A
C1678  C1907   1.420   .     S
C1679  N1734   1.367   .     A
C1679  H1723   1.080   .     S
C1680  N1733   1.368   .     A
C1680  H1727   1.082   .     S
C1680  C1905   1.420   .     S
C1681  C1682   1.528   .     S
C1681  H1728   1.111   .     S
C1681  O1746   1.417   .     S
C1681  H1729   1.118   .     S
C1682  H1730   1.110   .     S
C1682  H1731   1.110   .     S
C1683  H1703   1.106   .     S
C1683  H1732   1.110   .     S
C1683  H1702   1.109   .     S
C1683  C314    1.525   1_556 S
C1684  O1740   1.290   .     A
C1684  O1739   1.291   .     A
C1685  H1705   1.114   .     S
C1685  H1704   1.109   .     S
C1685  C1686   1.534   .     S
C1685  O1736   1.422   .     S
C1686  C1687   1.523   .     S
C1686  H1782   1.106   .     S
C1686  H1783   1.110   .     S
C1687  H1708   1.111   .     S
C1687  H1785   1.106   .     S
C1687  H1938   1.110   .     S
C1688  O1737   1.422   .     S
C1688  H1711   1.108   .     S
C1688  C1689   1.537   .     S
C1688  H1713   1.113   .     S
C1689  C1690   1.522   .     S
C1689  H1790   1.108   .     S
C1689  H1791   1.111   .     S
C1690  H1716   1.111   .     S
C1690  H1793   1.106   .     S
C1691  C1692   1.526   .     S
C1691  H1719   1.111   .     S
C1691  O1738   1.417   .     S
C1691  H1720   1.118   .     S
C1692  H1721   1.112   .     S
C1692  H1722   1.109   .     S
C1692  C325    1.524   1_556 S
C1693  H1725   1.109   .     S
C1693  H1726   1.106   .     S
C1693  H1724   1.110   .     S
C1694  C1696   1.364   .     S
C1694  O1745   1.279   .     A
C1694  O1742   1.280   .     A
C1695  O1743   1.280   .     A
C1695  C1697   1.364   .     S
C1695  O1744   1.279   .     A
C1697  C328    1.165   1_556 S
C1698  O1746   1.385   .     S
C1699  O1736   1.384   .     S
C1699  C1750   1.377   .     S
C1700  O1737   1.383   .     S
C1700  C1774   1.377   .     S
H1718  C1918   1.110   .     S
N1733  Zn1747  2.020   .     S
N1734  Zn1748  2.020   .     S
O1735  Zn1747  2.012   .     S
O1739  Zn1748  2.012   .     S
O1740  Zn1747  2.009   .     S
O1741  Zn1748  2.009   .     S
O1742  Zn1747  1.947   .     S
O1743  Zn1748  1.947   .     S
O1744  Zn1747  1.947   .     S
O1745  Zn1748  1.947   .     S
C1749  C1752   1.419   .     S
C1749  O1811   1.286   .     A
C1749  O1817   1.286   .     A
C1750  C1752   1.402   .     A
C1750  O1814   1.385   .     S
C1751  C1760   1.437   .     S
C1751  C1775   1.412   .     A
C1751  C1776   1.411   .     A
C1752  C1774   1.402   .     A
C1753  N1810   1.368   .     A
C1753  H1777   1.082   .     S
C1754  H1788   1.081   .     S
C1754  N1809   1.368   .     A
C1754  C1983   1.420   .     S
C1755  N1810   1.367   .     A
C1755  H1799   1.080   .     S
C1756  N1809   1.368   .     A
C1756  H1803   1.082   .     S
C1756  C1981   1.420   .     S
C1757  C1758   1.528   .     S
C1757  H1804   1.111   .     S
C1757  O1822   1.417   .     S
C1757  H1805   1.118   .     S
C1758  H1806   1.110   .     S
C1758  H1807   1.110   .     S
C1759  H1779   1.106   .     S
C1759  H1808   1.110   .     S
C1759  H1778   1.109   .     S
C1759  C390    1.525   1_556 S
C1760  O1816   1.290   .     A
C1760  O1815   1.291   .     A
C1761  H1781   1.114   .     S
C1761  H1780   1.109   .     S
C1761  C1762   1.534   .     S
C1761  O1812   1.422   .     S
C1762  C1763   1.523   .     S
C1762  H1630   1.106   1_655 S
C1762  H1631   1.110   1_655 S
C1763  H1784   1.111   .     S
C1763  H1633   1.106   1_655 S
C1763  H2014   1.110   .     S
C1764  O1813   1.422   .     S
C1764  H1787   1.108   .     S
C1764  C1765   1.537   .     S
C1764  H1789   1.113   .     S
C1765  C1766   1.522   .     S
C1765  H1638   1.108   1_655 S
C1765  H1639   1.111   1_655 S
C1766  H1792   1.111   .     S
C1766  H1641   1.106   1_655 S
C1767  C1768   1.526   .     S
C1767  H1795   1.111   .     S
C1767  O1814   1.417   .     S
C1767  H1796   1.118   .     S
C1768  H1797   1.112   .     S
C1768  H1798   1.109   .     S
C1768  C401    1.524   1_556 S
C1769  H1801   1.109   .     S
C1769  H1802   1.106   .     S
C1769  H1800   1.110   .     S
C1770  C1772   1.364   .     S
C1770  O1821   1.279   .     A
C1770  O1818   1.280   .     A
C1771  O1819   1.280   .     A
C1771  C1773   1.364   .     S
C1771  O1820   1.279   .     A
C1773  C404    1.165   1_556 S
C1774  O1822   1.385   .     S
C1775  O1812   1.384   .     S
C1775  C1598   1.377   1_655 S
C1776  O1813   1.383   .     S
C1776  C1622   1.377   1_655 S
H1794  C1994   1.110   .     S
N1809  Zn1823  2.020   .     S
N1810  Zn1824  2.020   .     S
O1811  Zn1823  2.012   .     S
O1815  Zn1824  2.012   .     S
O1816  Zn1823  2.009   .     S
O1817  Zn1824  2.009   .     S
O1818  Zn1823  1.947   .     S
O1819  Zn1824  1.947   .     S
O1820  Zn1823  1.947   .     S
O1821  Zn1824  1.947   .     S
C1825  C1828   1.419   .     S
C1825  O1887   1.286   .     A
C1825  O1893   1.286   .     A
C1826  C1828   1.402   .     A
C1826  O1890   1.385   .     S
C1826  C2003   1.377   1_455 S
C1827  C1836   1.437   .     S
C1827  C1851   1.412   .     A
C1827  C1852   1.411   .     A
C1828  C1850   1.402   .     A
C1829  N1886   1.368   .     A
C1829  H1853   1.082   .     S
C1830  H1864   1.081   .     S
C1830  N1885   1.368   .     A
C1830  C1375   1.420   1_565 S
C1831  N1886   1.367   .     A
C1831  H1875   1.080   .     S
C1832  N1885   1.368   .     A
C1832  H1879   1.082   .     S
C1832  C1373   1.420   1_565 S
C1833  C1834   1.528   .     S
C1833  H1880   1.111   .     S
C1833  O1898   1.417   .     S
C1833  H1881   1.118   .     S
C1834  H1882   1.110   .     S
C1834  H1883   1.110   .     S
C1835  H1855   1.106   .     S
C1835  H1884   1.110   .     S
C1835  H1854   1.109   .     S
C1835  C466    1.525   1_556 S
C1836  O1892   1.290   .     A
C1836  O1891   1.291   .     A
C1837  H1857   1.114   .     S
C1837  H1856   1.109   .     S
C1837  C1838   1.534   .     S
C1837  O1888   1.422   .     S
C1838  C1839   1.523   .     S
C1838  H1934   1.106   .     S
C1838  H1935   1.110   .     S
C1839  H1860   1.111   .     S
C1839  H1937   1.106   .     S
C1839  H1406   1.110   1_565 S
C1840  O1889   1.422   .     S
C1840  H1863   1.108   .     S
C1840  C1841   1.537   .     S
C1840  H1865   1.113   .     S
C1841  C1842   1.522   .     S
C1841  H1942   1.108   .     S
C1841  H1943   1.111   .     S
C1842  H1868   1.111   .     S
C1842  H1945   1.106   .     S
C1843  C1844   1.526   .     S
C1843  H1871   1.111   .     S
C1843  O1890   1.417   .     S
C1843  H1872   1.118   .     S
C1844  H1873   1.112   .     S
C1844  H1874   1.109   .     S
C1844  C477    1.524   1_556 S
C1845  H1877   1.109   .     S
C1845  H1878   1.106   .     S
C1845  H1876   1.110   .     S
C1846  C1848   1.364   .     S
C1846  O1897   1.279   .     A
C1846  O1894   1.280   .     A
C1847  O1895   1.280   .     A
C1847  C1849   1.364   .     S
C1847  O1896   1.279   .     A
C1849  C480    1.165   1_556 S
C1850  O1898   1.385   .     S
C1850  C2004   1.377   1_455 S
C1851  O1888   1.384   .     S
C1851  C1902   1.377   .     S
C1852  O1889   1.383   .     S
C1852  C1926   1.377   .     S
H1858  C1990   1.106   1_455 S
H1859  C1990   1.110   1_455 S
H1861  C1991   1.106   1_455 S
H1866  C1993   1.108   1_455 S
H1867  C1993   1.111   1_455 S
H1869  C1994   1.106   1_455 S
H1870  C1386   1.110   1_565 S
N1885  Zn1899  2.020   .     S
N1886  Zn1900  2.020   .     S
O1887  Zn1899  2.012   .     S
O1891  Zn1900  2.012   .     S
O1892  Zn1899  2.009   .     S
O1893  Zn1900  2.009   .     S
O1894  Zn1899  1.947   .     S
O1895  Zn1900  1.947   .     S
O1896  Zn1899  1.947   .     S
O1897  Zn1900  1.947   .     S
C1901  C1904   1.419   .     S
C1901  O1963   1.286   .     A
C1901  O1969   1.286   .     A
C1902  C1904   1.402   .     A
C1902  O1966   1.385   .     S
C1903  C1912   1.437   .     S
C1903  C1927   1.412   .     A
C1903  C1928   1.411   .     A
C1904  C1926   1.402   .     A
C1905  N1962   1.368   .     A
C1905  H1929   1.082   .     S
C1906  H1940   1.081   .     S
C1906  N1961   1.368   .     A
C1906  C1451   1.420   1_565 S
C1907  N1962   1.367   .     A
C1907  H1951   1.080   .     S
C1908  N1961   1.368   .     A
C1908  H1955   1.082   .     S
C1908  C1449   1.420   1_565 S
C1909  C1910   1.528   .     S
C1909  H1956   1.111   .     S
C1909  O1974   1.417   .     S
C1909  H1957   1.118   .     S
C1910  H1958   1.110   .     S
C1910  H1959   1.110   .     S
C1911  H1931   1.106   .     S
C1911  H1960   1.110   .     S
C1911  H1930   1.109   .     S
C1911  C542    1.525   1_556 S
C1912  O1968   1.290   .     A
C1912  O1967   1.291   .     A
C1913  H1933   1.114   .     S
C1913  H1932   1.109   .     S
C1913  C1914   1.534   .     S
C1913  O1964   1.422   .     S
C1914  C1915   1.523   .     S
C1914  H2010   1.106   .     S
C1914  H2011   1.110   .     S
C1915  H1936   1.111   .     S
C1915  H2013   1.106   .     S
C1915  H1482   1.110   1_565 S
C1916  O1965   1.422   .     S
C1916  H1939   1.108   .     S
C1916  C1917   1.537   .     S
C1916  H1941   1.113   .     S
C1917  C1918   1.522   .     S
C1917  H2018   1.108   .     S
C1917  H2019   1.111   .     S
C1918  H1944   1.111   .     S
C1918  H2021   1.106   .     S
C1919  C1920   1.526   .     S
C1919  H1947   1.111   .     S
C1919  O1966   1.417   .     S
C1919  H1948   1.118   .     S
C1920  H1949   1.112   .     S
C1920  H1950   1.109   .     S
C1920  C553    1.524   1_556 S
C1921  H1953   1.109   .     S
C1921  H1954   1.106   .     S
C1921  H1952   1.110   .     S
C1922  C1924   1.364   .     S
C1922  O1973   1.279   .     A
C1922  O1970   1.280   .     A
C1923  O1971   1.280   .     A
C1923  C1925   1.364   .     S
C1923  O1972   1.279   .     A
C1925  C556    1.165   1_556 S
C1926  O1974   1.385   .     S
C1927  O1964   1.384   .     S
C1927  C1978   1.377   .     S
C1928  O1965   1.383   .     S
C1928  C2002   1.377   .     S
H1946  C1462   1.110   1_565 S
N1961  Zn1975  2.020   .     S
N1962  Zn1976  2.020   .     S
O1963  Zn1975  2.012   .     S
O1967  Zn1976  2.012   .     S
O1968  Zn1975  2.009   .     S
O1969  Zn1976  2.009   .     S
O1970  Zn1975  1.947   .     S
O1971  Zn1976  1.947   .     S
O1972  Zn1975  1.947   .     S
O1973  Zn1976  1.947   .     S
C1977  C1980   1.419   .     S
C1977  O2039   1.286   .     A
C1977  O2045   1.286   .     A
C1978  C1980   1.402   .     A
C1978  O2042   1.385   .     S
C1979  C1988   1.437   .     S
C1979  C2003   1.412   .     A
C1979  C2004   1.411   .     A
C1980  C2002   1.402   .     A
C1981  N2038   1.368   .     A
C1981  H2005   1.082   .     S
C1982  H2016   1.081   .     S
C1982  N2037   1.368   .     A
C1982  C1527   1.420   1_565 S
C1983  N2038   1.367   .     A
C1983  H2027   1.080   .     S
C1984  N2037   1.368   .     A
C1984  H2031   1.082   .     S
C1984  C1525   1.420   1_565 S
C1985  C1986   1.528   .     S
C1985  H2032   1.111   .     S
C1985  O2050   1.417   .     S
C1985  H2033   1.118   .     S
C1986  H2034   1.110   .     S
C1986  H2035   1.110   .     S
C1987  H2007   1.106   .     S
C1987  H2036   1.110   .     S
C1987  H2006   1.109   .     S
C1987  C618    1.525   1_556 S
C1988  O2044   1.290   .     A
C1988  O2043   1.291   .     A
C1989  H2009   1.114   .     S
C1989  H2008   1.109   .     S
C1989  C1990   1.534   .     S
C1989  O2040   1.422   .     S
C1990  C1991   1.523   .     S
C1990  H1858   1.106   1_655 S
C1990  H1859   1.110   1_655 S
C1991  H2012   1.111   .     S
C1991  H1861   1.106   1_655 S
C1991  H1558   1.110   1_565 S
C1992  O2041   1.422   .     S
C1992  H2015   1.108   .     S
C1992  C1993   1.537   .     S
C1992  H2017   1.113   .     S
C1993  C1994   1.522   .     S
C1993  H1866   1.108   1_655 S
C1993  H1867   1.111   1_655 S
C1994  H2020   1.111   .     S
C1994  H1869   1.106   1_655 S
C1995  C1996   1.526   .     S
C1995  H2023   1.111   .     S
C1995  O2042   1.417   .     S
C1995  H2024   1.118   .     S
C1996  H2025   1.112   .     S
C1996  H2026   1.109   .     S
C1996  C629    1.524   1_556 S
C1997  H2029   1.109   .     S
C1997  H2030   1.106   .     S
C1997  H2028   1.110   .     S
C1998  C2000   1.364   .     S
C1998  O2049   1.279   .     A
C1998  O2046   1.280   .     A
C1999  O2047   1.280   .     A
C1999  C2001   1.364   .     S
C1999  O2048   1.279   .     A
C2001  C632    1.165   1_556 S
C2002  O2050   1.385   .     S
C2003  O2040   1.384   .     S
C2003  C1826   1.377   1_655 S
C2004  O2041   1.383   .     S
C2004  C1850   1.377   1_655 S
H2022  C1538   1.110   1_565 S
N2037  Zn2051  2.020   .     S
N2038  Zn2052  2.020   .     S
O2039  Zn2051  2.012   .     S
O2043  Zn2052  2.012   .     S
O2044  Zn2051  2.009   .     S
O2045  Zn2052  2.009   .     S
O2046  Zn2051  1.947   .     S
O2047  Zn2052  1.947   .     S
O2048  Zn2051  1.947   .     S
O2049  Zn2052  1.947   .     S
