data_str_m3_o1_o1_pcu_sym.9
_audit_creation_date              2020-01-03
_audit_creation_method            'Materials Studio'
_symmetry_space_group_name_H-M    'P1'
_symmetry_Int_Tables_number       1
_symmetry_cell_setting            triclinic
loop_
_symmetry_equiv_pos_as_xyz
  x,y,z
_cell_length_a                    30.1657
_cell_length_b                    30.1262
_cell_length_c                    29.8424
_cell_angle_alpha                 90.0027
_cell_angle_beta                  90.1962
_cell_angle_gamma                 89.9984
loop_
_atom_site_label
_atom_site_type_symbol
_atom_site_fract_x
_atom_site_fract_y
_atom_site_fract_z
_atom_site_U_iso_or_equiv
_atom_site_adp_type
_atom_site_occupancy
C1     C     0.05986   0.19015   0.16665   0.00000  Uiso   1.00
C2     C     0.49985   0.21104   0.30947   0.00000  Uiso   1.00
C3     C     0.00016   0.21104   0.02386   0.00000  Uiso   1.00
C4     C     0.49984   0.28896   0.30948   0.00000  Uiso   1.00
C5     C     0.25015   0.03896   0.02386   0.00000  Uiso   1.00
C6     C     0.24985   0.46104   0.30947   0.00000  Uiso   1.00
C7     C     0.25016   0.46104   0.02386   0.00000  Uiso   1.00
C8     C     0.24984   0.03896   0.30948   0.00000  Uiso   1.00
C9     C     0.41607   0.11664   0.14562   0.00000  Uiso   1.00
C10    C     0.08393   0.38336   0.18773   0.00000  Uiso   1.00
C11    C     0.13264   0.33468   0.14384   0.00000  Uiso   1.00
C12    C     0.44014   0.30984   0.16669   0.00000  Uiso   1.00
C13    C     0.36735   0.16533   0.18948   0.00000  Uiso   1.00
C14    C     0.08391   0.11662   0.18767   0.00000  Uiso   1.00
C15    C     0.41609   0.38337   0.14566   0.00000  Uiso   1.00
C16    C     0.36733   0.33466   0.18944   0.00000  Uiso   1.00
C17    C     0.13267   0.16535   0.14390   0.00000  Uiso   1.00
C18    C     0.16607   0.36664   0.14561   0.00000  Uiso   1.00
C19    C     0.33393   0.13336   0.18771   0.00000  Uiso   1.00
C20    C     0.38265   0.08467   0.14385   0.00000  Uiso   1.00
C21    C     0.11736   0.41532   0.18950   0.00000  Uiso   1.00
C22    C     0.33391   0.36663   0.18767   0.00000  Uiso   1.00
C23    C     0.44014   0.19015   0.16669   0.00000  Uiso   1.00
C24    C     0.16609   0.13337   0.14566   0.00000  Uiso   1.00
C25    C     0.11733   0.08465   0.18944   0.00000  Uiso   1.00
C26    C     0.38267   0.41534   0.14389   0.00000  Uiso   1.00
C27    C     0.09301   0.34302   0.16656   0.00000  Uiso   1.00
C28    C     0.40699   0.15698   0.16678   0.00000  Uiso   1.00
C29    C     0.40699   0.34302   0.16678   0.00000  Uiso   1.00
C30    C     0.09301   0.15698   0.16656   0.00000  Uiso   1.00
C31    C     0.34301   0.09302   0.16656   0.00000  Uiso   1.00
C32    C     0.15699   0.40698   0.16678   0.00000  Uiso   1.00
C33    C     0.15699   0.09302   0.16678   0.00000  Uiso   1.00
C34    C     0.05986   0.30985   0.16665   0.00000  Uiso   1.00
C35    C     0.34301   0.40698   0.16656   0.00000  Uiso   1.00
C36    C     0.30986   0.44015   0.16665   0.00000  Uiso   1.00
C37    C     0.19014   0.05984   0.16669   0.00000  Uiso   1.00
C38    C     0.19014   0.44015   0.16669   0.00000  Uiso   1.00
C39    C     0.30986   0.05985   0.16665   0.00000  Uiso   1.00
C40    C     0.00015   0.28896   0.02386   0.00000  Uiso   1.00
Cl41   Cl    0.00141   0.33984   0.05251   0.00000  Uiso   1.00
Cl42   Cl    0.49858   0.16016   0.28083   0.00000  Uiso   1.00
Cl43   Cl    0.00145   0.16016   0.05250   0.00000  Uiso   1.00
Cl44   Cl    0.49855   0.33984   0.28084   0.00000  Uiso   1.00
Cl45   Cl    0.25141   0.08984   0.05251   0.00000  Uiso   1.00
Cl46   Cl    0.24858   0.41016   0.28083   0.00000  Uiso   1.00
Cl47   Cl    0.25145   0.41016   0.05250   0.00000  Uiso   1.00
Cl48   Cl    0.24855   0.08984   0.28084   0.00000  Uiso   1.00
H49    H     0.46437   0.07656   0.13041   0.00000  Uiso   1.00
H50    H     0.28563   0.17343   0.20292   0.00000  Uiso   1.00
H51    H     0.40805   0.05050   0.09504   0.00000  Uiso   1.00
H52    H     0.09199   0.44946   0.23835   0.00000  Uiso   1.00
H53    H     0.28560   0.32654   0.20283   0.00000  Uiso   1.00
H54    H     0.21440   0.17346   0.13052   0.00000  Uiso   1.00
H55    H     0.09188   0.05043   0.23819   0.00000  Uiso   1.00
H56    H     0.40810   0.44955   0.09513   0.00000  Uiso   1.00
H57    H     0.03565   0.42343   0.20299   0.00000  Uiso   1.00
H58    H     0.15800   0.30054   0.09498   0.00000  Uiso   1.00
H59    H     0.34194   0.19950   0.23829   0.00000  Uiso   1.00
H60    H     0.03560   0.07655   0.20281   0.00000  Uiso   1.00
H61    H     0.46440   0.42346   0.13051   0.00000  Uiso   1.00
H62    H     0.34190   0.30045   0.23821   0.00000  Uiso   1.00
H63    H     0.15812   0.19956   0.09514   0.00000  Uiso   1.00
H64    H     0.21434   0.32657   0.13032   0.00000  Uiso   1.00
N65    N    -0.00000   0.25000   0.28573   0.00000  Uiso   1.00
N66    N    -0.00000   0.25000   0.04760   0.00000  Uiso   1.00
N67    N     0.25000   0.00000   0.28573   0.00000  Uiso   1.00
N68    N     0.25000   0.00000   0.04760   0.00000  Uiso   1.00
O69    O     0.04580   0.20419   0.20487   0.00000  Uiso   1.00
O70    O     0.20419   0.04581   0.12846   0.00000  Uiso   1.00
O71    O     0.20419   0.04581   0.20487   0.00000  Uiso   1.00
O72    O     0.29580   0.45419   0.12846   0.00000  Uiso   1.00
O73    O     0.20419   0.45419   0.12846   0.00000  Uiso   1.00
O74    O     0.29580   0.04581   0.20487   0.00000  Uiso   1.00
O75    O     0.29580   0.04581   0.12846   0.00000  Uiso   1.00
O76    O     0.20419   0.45419   0.20487   0.00000  Uiso   1.00
O77    O     0.45830   0.10886   0.12958   0.00000  Uiso   1.00
O78    O     0.04171   0.39113   0.20378   0.00000  Uiso   1.00
O79    O     0.13729   0.29558   0.12018   0.00000  Uiso   1.00
O80    O     0.45419   0.29581   0.12846   0.00000  Uiso   1.00
O81    O     0.36270   0.20444   0.21312   0.00000  Uiso   1.00
O82    O     0.04167   0.10884   0.20367   0.00000  Uiso   1.00
O83    O     0.45833   0.39116   0.12966   0.00000  Uiso   1.00
O84    O     0.36266   0.29553   0.21304   0.00000  Uiso   1.00
O85    O     0.13734   0.20448   0.12030   0.00000  Uiso   1.00
O86    O     0.20829   0.35887   0.12955   0.00000  Uiso   1.00
O87    O     0.29170   0.14114   0.20376   0.00000  Uiso   1.00
O88    O     0.38730   0.04557   0.12021   0.00000  Uiso   1.00
O89    O     0.11271   0.45442   0.21315   0.00000  Uiso   1.00
O90    O     0.29167   0.35884   0.20367   0.00000  Uiso   1.00
O91    O     0.45419   0.29581   0.20487   0.00000  Uiso   1.00
O92    O     0.20833   0.14116   0.12966   0.00000  Uiso   1.00
O93    O     0.11265   0.04552   0.21304   0.00000  Uiso   1.00
O94    O     0.38734   0.45447   0.12029   0.00000  Uiso   1.00
O95    O     0.04580   0.20419   0.12846   0.00000  Uiso   1.00
O96    O     0.45419   0.20419   0.12846   0.00000  Uiso   1.00
O97    O     0.04580   0.29581   0.20487   0.00000  Uiso   1.00
O98    O     0.04580   0.29581   0.12846   0.00000  Uiso   1.00
O99    O     0.45419   0.20419   0.20487   0.00000  Uiso   1.00
O100   O     0.29580   0.45419   0.20487   0.00000  Uiso   1.00
Zn101  Zn   -0.00000   0.25000   0.21771   0.00000  Uiso   1.00
Zn102  Zn   -0.00000   0.25000   0.11563   0.00000  Uiso   1.00
Zn103  Zn    0.25000   0.00000   0.21771   0.00000  Uiso   1.00
Zn104  Zn    0.25000  -0.00000   0.11563   0.00000  Uiso   1.00
C105   C     0.55986   0.19015   0.16665   0.00000  Uiso   1.00
C106   C     0.99985   0.21104   0.30947   0.00000  Uiso   1.00
C107   C     0.50016   0.21104   0.02386   0.00000  Uiso   1.00
C108   C     0.99984   0.28896   0.30948   0.00000  Uiso   1.00
C109   C     0.75015   0.03896   0.02386   0.00000  Uiso   1.00
C110   C     0.74985   0.46104   0.30947   0.00000  Uiso   1.00
C111   C     0.75016   0.46104   0.02386   0.00000  Uiso   1.00
C112   C     0.74984   0.03896   0.30948   0.00000  Uiso   1.00
C113   C     0.91607   0.11664   0.14562   0.00000  Uiso   1.00
C114   C     0.58393   0.38336   0.18773   0.00000  Uiso   1.00
C115   C     0.63264   0.33468   0.14384   0.00000  Uiso   1.00
C116   C     0.94014   0.30984   0.16669   0.00000  Uiso   1.00
C117   C     0.86735   0.16533   0.18948   0.00000  Uiso   1.00
C118   C     0.58391   0.11662   0.18767   0.00000  Uiso   1.00
C119   C     0.91609   0.38337   0.14566   0.00000  Uiso   1.00
C120   C     0.86733   0.33466   0.18944   0.00000  Uiso   1.00
C121   C     0.63267   0.16535   0.14390   0.00000  Uiso   1.00
C122   C     0.66607   0.36664   0.14561   0.00000  Uiso   1.00
C123   C     0.83393   0.13336   0.18771   0.00000  Uiso   1.00
C124   C     0.88265   0.08467   0.14385   0.00000  Uiso   1.00
C125   C     0.61736   0.41532   0.18950   0.00000  Uiso   1.00
C126   C     0.83391   0.36663   0.18767   0.00000  Uiso   1.00
C127   C     0.94014   0.19015   0.16669   0.00000  Uiso   1.00
C128   C     0.66609   0.13337   0.14566   0.00000  Uiso   1.00
C129   C     0.61733   0.08465   0.18944   0.00000  Uiso   1.00
C130   C     0.88267   0.41534   0.14389   0.00000  Uiso   1.00
C131   C     0.59301   0.34302   0.16656   0.00000  Uiso   1.00
C132   C     0.90699   0.15698   0.16678   0.00000  Uiso   1.00
C133   C     0.90699   0.34302   0.16678   0.00000  Uiso   1.00
C134   C     0.59301   0.15698   0.16656   0.00000  Uiso   1.00
C135   C     0.84301   0.09302   0.16656   0.00000  Uiso   1.00
C136   C     0.65699   0.40698   0.16678   0.00000  Uiso   1.00
C137   C     0.65699   0.09302   0.16678   0.00000  Uiso   1.00
C138   C     0.55986   0.30985   0.16665   0.00000  Uiso   1.00
C139   C     0.84301   0.40698   0.16656   0.00000  Uiso   1.00
C140   C     0.80986   0.44015   0.16665   0.00000  Uiso   1.00
C141   C     0.69014   0.05984   0.16669   0.00000  Uiso   1.00
C142   C     0.69014   0.44015   0.16669   0.00000  Uiso   1.00
C143   C     0.80986   0.05985   0.16665   0.00000  Uiso   1.00
C144   C     0.50015   0.28896   0.02386   0.00000  Uiso   1.00
Cl145  Cl    0.50141   0.33984   0.05251   0.00000  Uiso   1.00
Cl146  Cl    0.99858   0.16016   0.28083   0.00000  Uiso   1.00
Cl147  Cl    0.50145   0.16016   0.05250   0.00000  Uiso   1.00
Cl148  Cl    0.99855   0.33984   0.28084   0.00000  Uiso   1.00
Cl149  Cl    0.75141   0.08984   0.05251   0.00000  Uiso   1.00
Cl150  Cl    0.74858   0.41016   0.28083   0.00000  Uiso   1.00
Cl151  Cl    0.75145   0.41016   0.05250   0.00000  Uiso   1.00
Cl152  Cl    0.74855   0.08984   0.28084   0.00000  Uiso   1.00
H153   H     0.96437   0.07656   0.13041   0.00000  Uiso   1.00
H154   H     0.78563   0.17343   0.20292   0.00000  Uiso   1.00
H155   H     0.90805   0.05050   0.09504   0.00000  Uiso   1.00
H156   H     0.59199   0.44946   0.23835   0.00000  Uiso   1.00
H157   H     0.78560   0.32654   0.20283   0.00000  Uiso   1.00
H158   H     0.71440   0.17346   0.13052   0.00000  Uiso   1.00
H159   H     0.59188   0.05043   0.23819   0.00000  Uiso   1.00
H160   H     0.90810   0.44955   0.09513   0.00000  Uiso   1.00
H161   H     0.53565   0.42343   0.20299   0.00000  Uiso   1.00
H162   H     0.65800   0.30054   0.09498   0.00000  Uiso   1.00
H163   H     0.84194   0.19950   0.23829   0.00000  Uiso   1.00
H164   H     0.53560   0.07655   0.20281   0.00000  Uiso   1.00
H165   H     0.96440   0.42346   0.13051   0.00000  Uiso   1.00
H166   H     0.84190   0.30045   0.23821   0.00000  Uiso   1.00
H167   H     0.65812   0.19956   0.09514   0.00000  Uiso   1.00
H168   H     0.71434   0.32657   0.13032   0.00000  Uiso   1.00
N169   N     0.50000   0.25000   0.28573   0.00000  Uiso   1.00
N170   N     0.50000   0.25000   0.04760   0.00000  Uiso   1.00
N171   N     0.75000   0.00000   0.28573   0.00000  Uiso   1.00
N172   N     0.75000   0.00000   0.04760   0.00000  Uiso   1.00
O173   O     0.54580   0.20419   0.20487   0.00000  Uiso   1.00
O174   O     0.70419   0.04581   0.12846   0.00000  Uiso   1.00
O175   O     0.70419   0.04581   0.20487   0.00000  Uiso   1.00
O176   O     0.79580   0.45419   0.12846   0.00000  Uiso   1.00
O177   O     0.70419   0.45419   0.12846   0.00000  Uiso   1.00
O178   O     0.79580   0.04581   0.20487   0.00000  Uiso   1.00
O179   O     0.79580   0.04581   0.12846   0.00000  Uiso   1.00
O180   O     0.70419   0.45419   0.20487   0.00000  Uiso   1.00
O181   O     0.95830   0.10886   0.12958   0.00000  Uiso   1.00
O182   O     0.54171   0.39113   0.20378   0.00000  Uiso   1.00
O183   O     0.63729   0.29558   0.12018   0.00000  Uiso   1.00
O184   O     0.95419   0.29581   0.12846   0.00000  Uiso   1.00
O185   O     0.86270   0.20444   0.21312   0.00000  Uiso   1.00
O186   O     0.54167   0.10884   0.20367   0.00000  Uiso   1.00
O187   O     0.95833   0.39116   0.12966   0.00000  Uiso   1.00
O188   O     0.86266   0.29553   0.21304   0.00000  Uiso   1.00
O189   O     0.63734   0.20448   0.12030   0.00000  Uiso   1.00
O190   O     0.70829   0.35887   0.12955   0.00000  Uiso   1.00
O191   O     0.79170   0.14114   0.20376   0.00000  Uiso   1.00
O192   O     0.88730   0.04557   0.12021   0.00000  Uiso   1.00
O193   O     0.61271   0.45442   0.21315   0.00000  Uiso   1.00
O194   O     0.79167   0.35884   0.20367   0.00000  Uiso   1.00
O195   O     0.95419   0.29581   0.20487   0.00000  Uiso   1.00
O196   O     0.70833   0.14116   0.12966   0.00000  Uiso   1.00
O197   O     0.61265   0.04552   0.21304   0.00000  Uiso   1.00
O198   O     0.88734   0.45447   0.12029   0.00000  Uiso   1.00
O199   O     0.54580   0.20419   0.12846   0.00000  Uiso   1.00
O200   O     0.95419   0.20419   0.12846   0.00000  Uiso   1.00
O201   O     0.54580   0.29581   0.20487   0.00000  Uiso   1.00
O202   O     0.54580   0.29581   0.12846   0.00000  Uiso   1.00
O203   O     0.95419   0.20419   0.20487   0.00000  Uiso   1.00
O204   O     0.79580   0.45419   0.20487   0.00000  Uiso   1.00
Zn205  Zn    0.50000   0.25000   0.21771   0.00000  Uiso   1.00
Zn206  Zn    0.50000   0.25000   0.11563   0.00000  Uiso   1.00
Zn207  Zn    0.75000   0.00000   0.21771   0.00000  Uiso   1.00
Zn208  Zn    0.75000  -0.00000   0.11563   0.00000  Uiso   1.00
C209   C     0.05986   0.69015   0.16665   0.00000  Uiso   1.00
C210   C     0.49985   0.71104   0.30947   0.00000  Uiso   1.00
C211   C     0.00016   0.71104   0.02386   0.00000  Uiso   1.00
C212   C     0.49984   0.78896   0.30948   0.00000  Uiso   1.00
C213   C     0.25015   0.53896   0.02386   0.00000  Uiso   1.00
C214   C     0.24985   0.96104   0.30947   0.00000  Uiso   1.00
C215   C     0.25016   0.96104   0.02386   0.00000  Uiso   1.00
C216   C     0.24984   0.53896   0.30948   0.00000  Uiso   1.00
C217   C     0.41607   0.61664   0.14562   0.00000  Uiso   1.00
C218   C     0.08393   0.88336   0.18773   0.00000  Uiso   1.00
C219   C     0.13264   0.83468   0.14384   0.00000  Uiso   1.00
C220   C     0.44014   0.80984   0.16669   0.00000  Uiso   1.00
C221   C     0.36735   0.66533   0.18948   0.00000  Uiso   1.00
C222   C     0.08391   0.61662   0.18767   0.00000  Uiso   1.00
C223   C     0.41609   0.88337   0.14566   0.00000  Uiso   1.00
C224   C     0.36733   0.83466   0.18944   0.00000  Uiso   1.00
C225   C     0.13267   0.66535   0.14390   0.00000  Uiso   1.00
C226   C     0.16607   0.86664   0.14561   0.00000  Uiso   1.00
C227   C     0.33393   0.63336   0.18771   0.00000  Uiso   1.00
C228   C     0.38265   0.58467   0.14385   0.00000  Uiso   1.00
C229   C     0.11736   0.91532   0.18950   0.00000  Uiso   1.00
C230   C     0.33391   0.86663   0.18767   0.00000  Uiso   1.00
C231   C     0.44014   0.69015   0.16669   0.00000  Uiso   1.00
C232   C     0.16609   0.63337   0.14566   0.00000  Uiso   1.00
C233   C     0.11733   0.58465   0.18944   0.00000  Uiso   1.00
C234   C     0.38267   0.91534   0.14389   0.00000  Uiso   1.00
C235   C     0.09301   0.84302   0.16656   0.00000  Uiso   1.00
C236   C     0.40699   0.65698   0.16678   0.00000  Uiso   1.00
C237   C     0.40699   0.84302   0.16678   0.00000  Uiso   1.00
C238   C     0.09301   0.65698   0.16656   0.00000  Uiso   1.00
C239   C     0.34301   0.59302   0.16656   0.00000  Uiso   1.00
C240   C     0.15699   0.90698   0.16678   0.00000  Uiso   1.00
C241   C     0.15699   0.59302   0.16678   0.00000  Uiso   1.00
C242   C     0.05986   0.80985   0.16665   0.00000  Uiso   1.00
C243   C     0.34301   0.90698   0.16656   0.00000  Uiso   1.00
C244   C     0.30986   0.94015   0.16665   0.00000  Uiso   1.00
C245   C     0.19014   0.55984   0.16669   0.00000  Uiso   1.00
C246   C     0.19014   0.94015   0.16669   0.00000  Uiso   1.00
C247   C     0.30986   0.55985   0.16665   0.00000  Uiso   1.00
C248   C     0.00015   0.78896   0.02386   0.00000  Uiso   1.00
Cl249  Cl    0.00141   0.83984   0.05251   0.00000  Uiso   1.00
Cl250  Cl    0.49858   0.66016   0.28083   0.00000  Uiso   1.00
Cl251  Cl    0.00145   0.66016   0.05250   0.00000  Uiso   1.00
Cl252  Cl    0.49855   0.83984   0.28084   0.00000  Uiso   1.00
Cl253  Cl    0.25141   0.58984   0.05251   0.00000  Uiso   1.00
Cl254  Cl    0.24858   0.91016   0.28083   0.00000  Uiso   1.00
Cl255  Cl    0.25145   0.91016   0.05250   0.00000  Uiso   1.00
Cl256  Cl    0.24855   0.58984   0.28084   0.00000  Uiso   1.00
H257   H     0.46437   0.57656   0.13041   0.00000  Uiso   1.00
H258   H     0.28563   0.67343   0.20292   0.00000  Uiso   1.00
H259   H     0.40805   0.55050   0.09504   0.00000  Uiso   1.00
H260   H     0.09199   0.94946   0.23835   0.00000  Uiso   1.00
H261   H     0.28560   0.82654   0.20283   0.00000  Uiso   1.00
H262   H     0.21440   0.67346   0.13052   0.00000  Uiso   1.00
H263   H     0.09188   0.55043   0.23819   0.00000  Uiso   1.00
H264   H     0.40810   0.94955   0.09513   0.00000  Uiso   1.00
H265   H     0.03565   0.92343   0.20299   0.00000  Uiso   1.00
H266   H     0.15800   0.80054   0.09498   0.00000  Uiso   1.00
H267   H     0.34194   0.69950   0.23829   0.00000  Uiso   1.00
H268   H     0.03560   0.57655   0.20281   0.00000  Uiso   1.00
H269   H     0.46440   0.92346   0.13051   0.00000  Uiso   1.00
H270   H     0.34190   0.80045   0.23821   0.00000  Uiso   1.00
H271   H     0.15812   0.69956   0.09514   0.00000  Uiso   1.00
H272   H     0.21434   0.82657   0.13032   0.00000  Uiso   1.00
N273   N    -0.00000   0.75000   0.28573   0.00000  Uiso   1.00
N274   N    -0.00000   0.75000   0.04760   0.00000  Uiso   1.00
N275   N     0.25000   0.50000   0.28573   0.00000  Uiso   1.00
N276   N     0.25000   0.50000   0.04760   0.00000  Uiso   1.00
O277   O     0.04580   0.70419   0.20487   0.00000  Uiso   1.00
O278   O     0.20419   0.54581   0.12846   0.00000  Uiso   1.00
O279   O     0.20419   0.54581   0.20487   0.00000  Uiso   1.00
O280   O     0.29580   0.95419   0.12846   0.00000  Uiso   1.00
O281   O     0.20419   0.95419   0.12846   0.00000  Uiso   1.00
O282   O     0.29580   0.54581   0.20487   0.00000  Uiso   1.00
O283   O     0.29580   0.54581   0.12846   0.00000  Uiso   1.00
O284   O     0.20419   0.95419   0.20487   0.00000  Uiso   1.00
O285   O     0.45830   0.60886   0.12958   0.00000  Uiso   1.00
O286   O     0.04171   0.89113   0.20378   0.00000  Uiso   1.00
O287   O     0.13729   0.79558   0.12018   0.00000  Uiso   1.00
O288   O     0.45419   0.79581   0.12846   0.00000  Uiso   1.00
O289   O     0.36270   0.70444   0.21312   0.00000  Uiso   1.00
O290   O     0.04167   0.60884   0.20367   0.00000  Uiso   1.00
O291   O     0.45833   0.89116   0.12966   0.00000  Uiso   1.00
O292   O     0.36266   0.79553   0.21304   0.00000  Uiso   1.00
O293   O     0.13734   0.70448   0.12030   0.00000  Uiso   1.00
O294   O     0.20829   0.85887   0.12955   0.00000  Uiso   1.00
O295   O     0.29170   0.64114   0.20376   0.00000  Uiso   1.00
O296   O     0.38730   0.54557   0.12021   0.00000  Uiso   1.00
O297   O     0.11271   0.95442   0.21315   0.00000  Uiso   1.00
O298   O     0.29167   0.85884   0.20367   0.00000  Uiso   1.00
O299   O     0.45419   0.79581   0.20487   0.00000  Uiso   1.00
O300   O     0.20833   0.64116   0.12966   0.00000  Uiso   1.00
O301   O     0.11265   0.54552   0.21304   0.00000  Uiso   1.00
O302   O     0.38734   0.95447   0.12029   0.00000  Uiso   1.00
O303   O     0.04580   0.70419   0.12846   0.00000  Uiso   1.00
O304   O     0.45419   0.70419   0.12846   0.00000  Uiso   1.00
O305   O     0.04580   0.79581   0.20487   0.00000  Uiso   1.00
O306   O     0.04580   0.79581   0.12846   0.00000  Uiso   1.00
O307   O     0.45419   0.70419   0.20487   0.00000  Uiso   1.00
O308   O     0.29580   0.95419   0.20487   0.00000  Uiso   1.00
Zn309  Zn   -0.00000   0.75000   0.21771   0.00000  Uiso   1.00
Zn310  Zn   -0.00000   0.75000   0.11563   0.00000  Uiso   1.00
Zn311  Zn    0.25000   0.50000   0.21771   0.00000  Uiso   1.00
Zn312  Zn    0.25000   0.50000   0.11563   0.00000  Uiso   1.00
C313   C     0.55986   0.69015   0.16665   0.00000  Uiso   1.00
C314   C     0.99985   0.71104   0.30947   0.00000  Uiso   1.00
C315   C     0.50016   0.71104   0.02386   0.00000  Uiso   1.00
C316   C     0.99984   0.78896   0.30948   0.00000  Uiso   1.00
C317   C     0.75015   0.53896   0.02386   0.00000  Uiso   1.00
C318   C     0.74985   0.96104   0.30947   0.00000  Uiso   1.00
C319   C     0.75016   0.96104   0.02386   0.00000  Uiso   1.00
C320   C     0.74984   0.53896   0.30948   0.00000  Uiso   1.00
C321   C     0.91607   0.61664   0.14562   0.00000  Uiso   1.00
C322   C     0.58393   0.88336   0.18773   0.00000  Uiso   1.00
C323   C     0.63264   0.83468   0.14384   0.00000  Uiso   1.00
C324   C     0.94014   0.80984   0.16669   0.00000  Uiso   1.00
C325   C     0.86735   0.66533   0.18948   0.00000  Uiso   1.00
C326   C     0.58391   0.61662   0.18767   0.00000  Uiso   1.00
C327   C     0.91609   0.88337   0.14566   0.00000  Uiso   1.00
C328   C     0.86733   0.83466   0.18944   0.00000  Uiso   1.00
C329   C     0.63267   0.66535   0.14390   0.00000  Uiso   1.00
C330   C     0.66607   0.86664   0.14561   0.00000  Uiso   1.00
C331   C     0.83393   0.63336   0.18771   0.00000  Uiso   1.00
C332   C     0.88265   0.58467   0.14385   0.00000  Uiso   1.00
C333   C     0.61736   0.91532   0.18950   0.00000  Uiso   1.00
C334   C     0.83391   0.86663   0.18767   0.00000  Uiso   1.00
C335   C     0.94014   0.69015   0.16669   0.00000  Uiso   1.00
C336   C     0.66609   0.63337   0.14566   0.00000  Uiso   1.00
C337   C     0.61733   0.58465   0.18944   0.00000  Uiso   1.00
C338   C     0.88267   0.91534   0.14389   0.00000  Uiso   1.00
C339   C     0.59301   0.84302   0.16656   0.00000  Uiso   1.00
C340   C     0.90699   0.65698   0.16678   0.00000  Uiso   1.00
C341   C     0.90699   0.84302   0.16678   0.00000  Uiso   1.00
C342   C     0.59301   0.65698   0.16656   0.00000  Uiso   1.00
C343   C     0.84301   0.59302   0.16656   0.00000  Uiso   1.00
C344   C     0.65699   0.90698   0.16678   0.00000  Uiso   1.00
C345   C     0.65699   0.59302   0.16678   0.00000  Uiso   1.00
C346   C     0.55986   0.80985   0.16665   0.00000  Uiso   1.00
C347   C     0.84301   0.90698   0.16656   0.00000  Uiso   1.00
C348   C     0.80986   0.94015   0.16665   0.00000  Uiso   1.00
C349   C     0.69014   0.55984   0.16669   0.00000  Uiso   1.00
C350   C     0.69014   0.94015   0.16669   0.00000  Uiso   1.00
C351   C     0.80986   0.55985   0.16665   0.00000  Uiso   1.00
C352   C     0.50015   0.78896   0.02386   0.00000  Uiso   1.00
Cl353  Cl    0.50141   0.83984   0.05251   0.00000  Uiso   1.00
Cl354  Cl    0.99858   0.66016   0.28083   0.00000  Uiso   1.00
Cl355  Cl    0.50145   0.66016   0.05250   0.00000  Uiso   1.00
Cl356  Cl    0.99855   0.83984   0.28084   0.00000  Uiso   1.00
Cl357  Cl    0.75141   0.58984   0.05251   0.00000  Uiso   1.00
Cl358  Cl    0.74858   0.91016   0.28083   0.00000  Uiso   1.00
Cl359  Cl    0.75145   0.91016   0.05250   0.00000  Uiso   1.00
Cl360  Cl    0.74855   0.58984   0.28084   0.00000  Uiso   1.00
H361   H     0.96437   0.57656   0.13041   0.00000  Uiso   1.00
H362   H     0.78563   0.67343   0.20292   0.00000  Uiso   1.00
H363   H     0.90805   0.55050   0.09504   0.00000  Uiso   1.00
H364   H     0.59199   0.94946   0.23835   0.00000  Uiso   1.00
H365   H     0.78560   0.82654   0.20283   0.00000  Uiso   1.00
H366   H     0.71440   0.67346   0.13052   0.00000  Uiso   1.00
H367   H     0.59188   0.55043   0.23819   0.00000  Uiso   1.00
H368   H     0.90810   0.94955   0.09513   0.00000  Uiso   1.00
H369   H     0.53565   0.92343   0.20299   0.00000  Uiso   1.00
H370   H     0.65800   0.80054   0.09498   0.00000  Uiso   1.00
H371   H     0.84194   0.69950   0.23829   0.00000  Uiso   1.00
H372   H     0.53560   0.57655   0.20281   0.00000  Uiso   1.00
H373   H     0.96440   0.92346   0.13051   0.00000  Uiso   1.00
H374   H     0.84190   0.80045   0.23821   0.00000  Uiso   1.00
H375   H     0.65812   0.69956   0.09514   0.00000  Uiso   1.00
H376   H     0.71434   0.82657   0.13032   0.00000  Uiso   1.00
N377   N     0.50000   0.75000   0.28573   0.00000  Uiso   1.00
N378   N     0.50000   0.75000   0.04760   0.00000  Uiso   1.00
N379   N     0.75000   0.50000   0.28573   0.00000  Uiso   1.00
N380   N     0.75000   0.50000   0.04760   0.00000  Uiso   1.00
O381   O     0.54580   0.70419   0.20487   0.00000  Uiso   1.00
O382   O     0.70419   0.54581   0.12846   0.00000  Uiso   1.00
O383   O     0.70419   0.54581   0.20487   0.00000  Uiso   1.00
O384   O     0.79580   0.95419   0.12846   0.00000  Uiso   1.00
O385   O     0.70419   0.95419   0.12846   0.00000  Uiso   1.00
O386   O     0.79580   0.54581   0.20487   0.00000  Uiso   1.00
O387   O     0.79580   0.54581   0.12846   0.00000  Uiso   1.00
O388   O     0.70419   0.95419   0.20487   0.00000  Uiso   1.00
O389   O     0.95830   0.60886   0.12958   0.00000  Uiso   1.00
O390   O     0.54171   0.89113   0.20378   0.00000  Uiso   1.00
O391   O     0.63729   0.79558   0.12018   0.00000  Uiso   1.00
O392   O     0.95419   0.79581   0.12846   0.00000  Uiso   1.00
O393   O     0.86270   0.70444   0.21312   0.00000  Uiso   1.00
O394   O     0.54167   0.60884   0.20367   0.00000  Uiso   1.00
O395   O     0.95833   0.89116   0.12966   0.00000  Uiso   1.00
O396   O     0.86266   0.79553   0.21304   0.00000  Uiso   1.00
O397   O     0.63734   0.70448   0.12030   0.00000  Uiso   1.00
O398   O     0.70829   0.85887   0.12955   0.00000  Uiso   1.00
O399   O     0.79170   0.64114   0.20376   0.00000  Uiso   1.00
O400   O     0.88730   0.54557   0.12021   0.00000  Uiso   1.00
O401   O     0.61271   0.95442   0.21315   0.00000  Uiso   1.00
O402   O     0.79167   0.85884   0.20367   0.00000  Uiso   1.00
O403   O     0.95419   0.79581   0.20487   0.00000  Uiso   1.00
O404   O     0.70833   0.64116   0.12966   0.00000  Uiso   1.00
O405   O     0.61265   0.54552   0.21304   0.00000  Uiso   1.00
O406   O     0.88734   0.95447   0.12029   0.00000  Uiso   1.00
O407   O     0.54580   0.70419   0.12846   0.00000  Uiso   1.00
O408   O     0.95419   0.70419   0.12846   0.00000  Uiso   1.00
O409   O     0.54580   0.79581   0.20487   0.00000  Uiso   1.00
O410   O     0.54580   0.79581   0.12846   0.00000  Uiso   1.00
O411   O     0.95419   0.70419   0.20487   0.00000  Uiso   1.00
O412   O     0.79580   0.95419   0.20487   0.00000  Uiso   1.00
Zn413  Zn    0.50000   0.75000   0.21771   0.00000  Uiso   1.00
Zn414  Zn    0.50000   0.75000   0.11563   0.00000  Uiso   1.00
Zn415  Zn    0.75000   0.50000   0.21771   0.00000  Uiso   1.00
Zn416  Zn    0.75000   0.50000   0.11563   0.00000  Uiso   1.00
C417   C     0.05986   0.19015   0.49998   0.00000  Uiso   1.00
C418   C     0.49985   0.21104   0.64281   0.00000  Uiso   1.00
C419   C     0.00016   0.21104   0.35719   0.00000  Uiso   1.00
C420   C     0.49984   0.28896   0.64281   0.00000  Uiso   1.00
C421   C     0.25015   0.03896   0.35719   0.00000  Uiso   1.00
C422   C     0.24985   0.46104   0.64281   0.00000  Uiso   1.00
C423   C     0.25016   0.46104   0.35719   0.00000  Uiso   1.00
C424   C     0.24984   0.03896   0.64281   0.00000  Uiso   1.00
C425   C     0.41607   0.11664   0.47895   0.00000  Uiso   1.00
C426   C     0.08393   0.38336   0.52106   0.00000  Uiso   1.00
C427   C     0.13264   0.33468   0.47717   0.00000  Uiso   1.00
C428   C     0.44014   0.30984   0.50002   0.00000  Uiso   1.00
C429   C     0.36735   0.16533   0.52281   0.00000  Uiso   1.00
C430   C     0.08391   0.11662   0.52100   0.00000  Uiso   1.00
C431   C     0.41609   0.38337   0.47899   0.00000  Uiso   1.00
C432   C     0.36733   0.33466   0.52277   0.00000  Uiso   1.00
C433   C     0.13267   0.16535   0.47723   0.00000  Uiso   1.00
C434   C     0.16607   0.36664   0.47894   0.00000  Uiso   1.00
C435   C     0.33393   0.13336   0.52105   0.00000  Uiso   1.00
C436   C     0.38265   0.08467   0.47719   0.00000  Uiso   1.00
C437   C     0.11736   0.41532   0.52283   0.00000  Uiso   1.00
C438   C     0.33391   0.36663   0.52101   0.00000  Uiso   1.00
C439   C     0.44014   0.19015   0.50002   0.00000  Uiso   1.00
C440   C     0.16609   0.13337   0.47900   0.00000  Uiso   1.00
C441   C     0.11733   0.08465   0.52277   0.00000  Uiso   1.00
C442   C     0.38267   0.41534   0.47723   0.00000  Uiso   1.00
C443   C     0.09301   0.34302   0.49989   0.00000  Uiso   1.00
C444   C     0.40699   0.15698   0.50011   0.00000  Uiso   1.00
C445   C     0.40699   0.34302   0.50011   0.00000  Uiso   1.00
C446   C     0.09301   0.15698   0.49989   0.00000  Uiso   1.00
C447   C     0.34301   0.09302   0.49989   0.00000  Uiso   1.00
C448   C     0.15699   0.40698   0.50011   0.00000  Uiso   1.00
C449   C     0.15699   0.09302   0.50011   0.00000  Uiso   1.00
C450   C     0.05986   0.30985   0.49998   0.00000  Uiso   1.00
C451   C     0.34301   0.40698   0.49989   0.00000  Uiso   1.00
C452   C     0.30986   0.44015   0.49998   0.00000  Uiso   1.00
C453   C     0.19014   0.05984   0.50002   0.00000  Uiso   1.00
C454   C     0.19014   0.44015   0.50002   0.00000  Uiso   1.00
C455   C     0.30986   0.05985   0.49998   0.00000  Uiso   1.00
C456   C     0.00015   0.28896   0.35719   0.00000  Uiso   1.00
Cl457  Cl    0.00141   0.33984   0.38584   0.00000  Uiso   1.00
Cl458  Cl    0.49858   0.16016   0.61416   0.00000  Uiso   1.00
Cl459  Cl    0.00145   0.16016   0.38583   0.00000  Uiso   1.00
Cl460  Cl    0.49855   0.33984   0.61417   0.00000  Uiso   1.00
Cl461  Cl    0.25141   0.08984   0.38584   0.00000  Uiso   1.00
Cl462  Cl    0.24858   0.41016   0.61416   0.00000  Uiso   1.00
Cl463  Cl    0.25145   0.41016   0.38583   0.00000  Uiso   1.00
Cl464  Cl    0.24855   0.08984   0.61417   0.00000  Uiso   1.00
H465   H     0.46437   0.07656   0.46374   0.00000  Uiso   1.00
H466   H     0.28563   0.17343   0.53625   0.00000  Uiso   1.00
H467   H     0.40805   0.05050   0.42837   0.00000  Uiso   1.00
H468   H     0.09199   0.44946   0.57168   0.00000  Uiso   1.00
H469   H     0.28560   0.32654   0.53616   0.00000  Uiso   1.00
H470   H     0.21440   0.17346   0.46385   0.00000  Uiso   1.00
H471   H     0.09188   0.05043   0.57152   0.00000  Uiso   1.00
H472   H     0.40810   0.44955   0.42846   0.00000  Uiso   1.00
H473   H     0.03565   0.42343   0.53633   0.00000  Uiso   1.00
H474   H     0.15800   0.30054   0.42831   0.00000  Uiso   1.00
H475   H     0.34194   0.19950   0.57162   0.00000  Uiso   1.00
H476   H     0.03560   0.07655   0.53614   0.00000  Uiso   1.00
H477   H     0.46440   0.42346   0.46384   0.00000  Uiso   1.00
H478   H     0.34190   0.30045   0.57154   0.00000  Uiso   1.00
H479   H     0.15812   0.19956   0.42847   0.00000  Uiso   1.00
H480   H     0.21434   0.32657   0.46366   0.00000  Uiso   1.00
N481   N    -0.00000   0.25000   0.61907   0.00000  Uiso   1.00
N482   N    -0.00000   0.25000   0.38093   0.00000  Uiso   1.00
N483   N     0.25000   0.00000   0.61907   0.00000  Uiso   1.00
N484   N     0.25000   0.00000   0.38093   0.00000  Uiso   1.00
O485   O     0.04580   0.20419   0.53821   0.00000  Uiso   1.00
O486   O     0.20419   0.04581   0.46179   0.00000  Uiso   1.00
O487   O     0.20419   0.04581   0.53821   0.00000  Uiso   1.00
O488   O     0.29580   0.45419   0.46179   0.00000  Uiso   1.00
O489   O     0.20419   0.45419   0.46179   0.00000  Uiso   1.00
O490   O     0.29580   0.04581   0.53821   0.00000  Uiso   1.00
O491   O     0.29580   0.04581   0.46179   0.00000  Uiso   1.00
O492   O     0.20419   0.45419   0.53821   0.00000  Uiso   1.00
O493   O     0.45830   0.10886   0.46291   0.00000  Uiso   1.00
O494   O     0.04171   0.39113   0.53711   0.00000  Uiso   1.00
O495   O     0.13729   0.29558   0.45351   0.00000  Uiso   1.00
O496   O     0.45419   0.29581   0.46179   0.00000  Uiso   1.00
O497   O     0.36270   0.20444   0.54646   0.00000  Uiso   1.00
O498   O     0.04167   0.10884   0.53701   0.00000  Uiso   1.00
O499   O     0.45833   0.39116   0.46299   0.00000  Uiso   1.00
O500   O     0.36266   0.29553   0.54638   0.00000  Uiso   1.00
O501   O     0.13734   0.20448   0.45363   0.00000  Uiso   1.00
O502   O     0.20829   0.35887   0.46289   0.00000  Uiso   1.00
O503   O     0.29170   0.14114   0.53709   0.00000  Uiso   1.00
O504   O     0.38730   0.04557   0.45354   0.00000  Uiso   1.00
O505   O     0.11271   0.45442   0.54649   0.00000  Uiso   1.00
O506   O     0.29167   0.35884   0.53701   0.00000  Uiso   1.00
O507   O     0.45419   0.29581   0.53821   0.00000  Uiso   1.00
O508   O     0.20833   0.14116   0.46299   0.00000  Uiso   1.00
O509   O     0.11265   0.04552   0.54637   0.00000  Uiso   1.00
O510   O     0.38734   0.45447   0.45362   0.00000  Uiso   1.00
O511   O     0.04580   0.20419   0.46179   0.00000  Uiso   1.00
O512   O     0.45419   0.20419   0.46179   0.00000  Uiso   1.00
O513   O     0.04580   0.29581   0.53821   0.00000  Uiso   1.00
O514   O     0.04580   0.29581   0.46179   0.00000  Uiso   1.00
O515   O     0.45419   0.20419   0.53821   0.00000  Uiso   1.00
O516   O     0.29580   0.45419   0.53821   0.00000  Uiso   1.00
Zn517  Zn   -0.00000   0.25000   0.55104   0.00000  Uiso   1.00
Zn518  Zn   -0.00000   0.25000   0.44896   0.00000  Uiso   1.00
Zn519  Zn    0.25000   0.00000   0.55104   0.00000  Uiso   1.00
Zn520  Zn    0.25000  -0.00000   0.44896   0.00000  Uiso   1.00
C521   C     0.55986   0.19015   0.49998   0.00000  Uiso   1.00
C522   C     0.99985   0.21104   0.64281   0.00000  Uiso   1.00
C523   C     0.50016   0.21104   0.35719   0.00000  Uiso   1.00
C524   C     0.99984   0.28896   0.64281   0.00000  Uiso   1.00
C525   C     0.75015   0.03896   0.35719   0.00000  Uiso   1.00
C526   C     0.74985   0.46104   0.64281   0.00000  Uiso   1.00
C527   C     0.75016   0.46104   0.35719   0.00000  Uiso   1.00
C528   C     0.74984   0.03896   0.64281   0.00000  Uiso   1.00
C529   C     0.91607   0.11664   0.47895   0.00000  Uiso   1.00
C530   C     0.58393   0.38336   0.52106   0.00000  Uiso   1.00
C531   C     0.63264   0.33468   0.47717   0.00000  Uiso   1.00
C532   C     0.94014   0.30984   0.50002   0.00000  Uiso   1.00
C533   C     0.86735   0.16533   0.52281   0.00000  Uiso   1.00
C534   C     0.58391   0.11662   0.52100   0.00000  Uiso   1.00
C535   C     0.91609   0.38337   0.47899   0.00000  Uiso   1.00
C536   C     0.86733   0.33466   0.52277   0.00000  Uiso   1.00
C537   C     0.63267   0.16535   0.47723   0.00000  Uiso   1.00
C538   C     0.66607   0.36664   0.47894   0.00000  Uiso   1.00
C539   C     0.83393   0.13336   0.52105   0.00000  Uiso   1.00
C540   C     0.88265   0.08467   0.47719   0.00000  Uiso   1.00
C541   C     0.61736   0.41532   0.52283   0.00000  Uiso   1.00
C542   C     0.83391   0.36663   0.52101   0.00000  Uiso   1.00
C543   C     0.94014   0.19015   0.50002   0.00000  Uiso   1.00
C544   C     0.66609   0.13337   0.47900   0.00000  Uiso   1.00
C545   C     0.61733   0.08465   0.52277   0.00000  Uiso   1.00
C546   C     0.88267   0.41534   0.47723   0.00000  Uiso   1.00
C547   C     0.59301   0.34302   0.49989   0.00000  Uiso   1.00
C548   C     0.90699   0.15698   0.50011   0.00000  Uiso   1.00
C549   C     0.90699   0.34302   0.50011   0.00000  Uiso   1.00
C550   C     0.59301   0.15698   0.49989   0.00000  Uiso   1.00
C551   C     0.84301   0.09302   0.49989   0.00000  Uiso   1.00
C552   C     0.65699   0.40698   0.50011   0.00000  Uiso   1.00
C553   C     0.65699   0.09302   0.50011   0.00000  Uiso   1.00
C554   C     0.55986   0.30985   0.49998   0.00000  Uiso   1.00
C555   C     0.84301   0.40698   0.49989   0.00000  Uiso   1.00
C556   C     0.80986   0.44015   0.49998   0.00000  Uiso   1.00
C557   C     0.69014   0.05984   0.50002   0.00000  Uiso   1.00
C558   C     0.69014   0.44015   0.50002   0.00000  Uiso   1.00
C559   C     0.80986   0.05985   0.49998   0.00000  Uiso   1.00
C560   C     0.50015   0.28896   0.35719   0.00000  Uiso   1.00
Cl561  Cl    0.50141   0.33984   0.38584   0.00000  Uiso   1.00
Cl562  Cl    0.99858   0.16016   0.61416   0.00000  Uiso   1.00
Cl563  Cl    0.50145   0.16016   0.38583   0.00000  Uiso   1.00
Cl564  Cl    0.99855   0.33984   0.61417   0.00000  Uiso   1.00
Cl565  Cl    0.75141   0.08984   0.38584   0.00000  Uiso   1.00
Cl566  Cl    0.74858   0.41016   0.61416   0.00000  Uiso   1.00
Cl567  Cl    0.75145   0.41016   0.38583   0.00000  Uiso   1.00
Cl568  Cl    0.74855   0.08984   0.61417   0.00000  Uiso   1.00
H569   H     0.96437   0.07656   0.46374   0.00000  Uiso   1.00
H570   H     0.78563   0.17343   0.53625   0.00000  Uiso   1.00
H571   H     0.90805   0.05050   0.42837   0.00000  Uiso   1.00
H572   H     0.59199   0.44946   0.57168   0.00000  Uiso   1.00
H573   H     0.78560   0.32654   0.53616   0.00000  Uiso   1.00
H574   H     0.71440   0.17346   0.46385   0.00000  Uiso   1.00
H575   H     0.59188   0.05043   0.57152   0.00000  Uiso   1.00
H576   H     0.90810   0.44955   0.42846   0.00000  Uiso   1.00
H577   H     0.53565   0.42343   0.53633   0.00000  Uiso   1.00
H578   H     0.65800   0.30054   0.42831   0.00000  Uiso   1.00
H579   H     0.84194   0.19950   0.57162   0.00000  Uiso   1.00
H580   H     0.53560   0.07655   0.53614   0.00000  Uiso   1.00
H581   H     0.96440   0.42346   0.46384   0.00000  Uiso   1.00
H582   H     0.84190   0.30045   0.57154   0.00000  Uiso   1.00
H583   H     0.65812   0.19956   0.42847   0.00000  Uiso   1.00
H584   H     0.71434   0.32657   0.46366   0.00000  Uiso   1.00
N585   N     0.50000   0.25000   0.61907   0.00000  Uiso   1.00
N586   N     0.50000   0.25000   0.38093   0.00000  Uiso   1.00
N587   N     0.75000   0.00000   0.61907   0.00000  Uiso   1.00
N588   N     0.75000   0.00000   0.38093   0.00000  Uiso   1.00
O589   O     0.54580   0.20419   0.53821   0.00000  Uiso   1.00
O590   O     0.70419   0.04581   0.46179   0.00000  Uiso   1.00
O591   O     0.70419   0.04581   0.53821   0.00000  Uiso   1.00
O592   O     0.79580   0.45419   0.46179   0.00000  Uiso   1.00
O593   O     0.70419   0.45419   0.46179   0.00000  Uiso   1.00
O594   O     0.79580   0.04581   0.53821   0.00000  Uiso   1.00
O595   O     0.79580   0.04581   0.46179   0.00000  Uiso   1.00
O596   O     0.70419   0.45419   0.53821   0.00000  Uiso   1.00
O597   O     0.95830   0.10886   0.46291   0.00000  Uiso   1.00
O598   O     0.54171   0.39113   0.53711   0.00000  Uiso   1.00
O599   O     0.63729   0.29558   0.45351   0.00000  Uiso   1.00
O600   O     0.95419   0.29581   0.46179   0.00000  Uiso   1.00
O601   O     0.86270   0.20444   0.54646   0.00000  Uiso   1.00
O602   O     0.54167   0.10884   0.53701   0.00000  Uiso   1.00
O603   O     0.95833   0.39116   0.46299   0.00000  Uiso   1.00
O604   O     0.86266   0.29553   0.54638   0.00000  Uiso   1.00
O605   O     0.63734   0.20448   0.45363   0.00000  Uiso   1.00
O606   O     0.70829   0.35887   0.46289   0.00000  Uiso   1.00
O607   O     0.79170   0.14114   0.53709   0.00000  Uiso   1.00
O608   O     0.88730   0.04557   0.45354   0.00000  Uiso   1.00
O609   O     0.61271   0.45442   0.54649   0.00000  Uiso   1.00
O610   O     0.79167   0.35884   0.53701   0.00000  Uiso   1.00
O611   O     0.95419   0.29581   0.53821   0.00000  Uiso   1.00
O612   O     0.70833   0.14116   0.46299   0.00000  Uiso   1.00
O613   O     0.61265   0.04552   0.54637   0.00000  Uiso   1.00
O614   O     0.88734   0.45447   0.45362   0.00000  Uiso   1.00
O615   O     0.54580   0.20419   0.46179   0.00000  Uiso   1.00
O616   O     0.95419   0.20419   0.46179   0.00000  Uiso   1.00
O617   O     0.54580   0.29581   0.53821   0.00000  Uiso   1.00
O618   O     0.54580   0.29581   0.46179   0.00000  Uiso   1.00
O619   O     0.95419   0.20419   0.53821   0.00000  Uiso   1.00
O620   O     0.79580   0.45419   0.53821   0.00000  Uiso   1.00
Zn621  Zn    0.50000   0.25000   0.55104   0.00000  Uiso   1.00
Zn622  Zn    0.50000   0.25000   0.44896   0.00000  Uiso   1.00
Zn623  Zn    0.75000   0.00000   0.55104   0.00000  Uiso   1.00
Zn624  Zn    0.75000  -0.00000   0.44896   0.00000  Uiso   1.00
C625   C     0.05986   0.69015   0.49998   0.00000  Uiso   1.00
C626   C     0.49985   0.71104   0.64281   0.00000  Uiso   1.00
C627   C     0.00016   0.71104   0.35719   0.00000  Uiso   1.00
C628   C     0.49984   0.78896   0.64281   0.00000  Uiso   1.00
C629   C     0.25015   0.53896   0.35719   0.00000  Uiso   1.00
C630   C     0.24985   0.96104   0.64281   0.00000  Uiso   1.00
C631   C     0.25016   0.96104   0.35719   0.00000  Uiso   1.00
C632   C     0.24984   0.53896   0.64281   0.00000  Uiso   1.00
C633   C     0.41607   0.61664   0.47895   0.00000  Uiso   1.00
C634   C     0.08393   0.88336   0.52106   0.00000  Uiso   1.00
C635   C     0.13264   0.83468   0.47717   0.00000  Uiso   1.00
C636   C     0.44014   0.80984   0.50002   0.00000  Uiso   1.00
C637   C     0.36735   0.66533   0.52281   0.00000  Uiso   1.00
C638   C     0.08391   0.61662   0.52100   0.00000  Uiso   1.00
C639   C     0.41609   0.88337   0.47899   0.00000  Uiso   1.00
C640   C     0.36733   0.83466   0.52277   0.00000  Uiso   1.00
C641   C     0.13267   0.66535   0.47723   0.00000  Uiso   1.00
C642   C     0.16607   0.86664   0.47894   0.00000  Uiso   1.00
C643   C     0.33393   0.63336   0.52105   0.00000  Uiso   1.00
C644   C     0.38265   0.58467   0.47719   0.00000  Uiso   1.00
C645   C     0.11736   0.91532   0.52283   0.00000  Uiso   1.00
C646   C     0.33391   0.86663   0.52101   0.00000  Uiso   1.00
C647   C     0.44014   0.69015   0.50002   0.00000  Uiso   1.00
C648   C     0.16609   0.63337   0.47900   0.00000  Uiso   1.00
C649   C     0.11733   0.58465   0.52277   0.00000  Uiso   1.00
C650   C     0.38267   0.91534   0.47723   0.00000  Uiso   1.00
C651   C     0.09301   0.84302   0.49989   0.00000  Uiso   1.00
C652   C     0.40699   0.65698   0.50011   0.00000  Uiso   1.00
C653   C     0.40699   0.84302   0.50011   0.00000  Uiso   1.00
C654   C     0.09301   0.65698   0.49989   0.00000  Uiso   1.00
C655   C     0.34301   0.59302   0.49989   0.00000  Uiso   1.00
C656   C     0.15699   0.90698   0.50011   0.00000  Uiso   1.00
C657   C     0.15699   0.59302   0.50011   0.00000  Uiso   1.00
C658   C     0.05986   0.80985   0.49998   0.00000  Uiso   1.00
C659   C     0.34301   0.90698   0.49989   0.00000  Uiso   1.00
C660   C     0.30986   0.94015   0.49998   0.00000  Uiso   1.00
C661   C     0.19014   0.55984   0.50002   0.00000  Uiso   1.00
C662   C     0.19014   0.94015   0.50002   0.00000  Uiso   1.00
C663   C     0.30986   0.55985   0.49998   0.00000  Uiso   1.00
C664   C     0.00015   0.78896   0.35719   0.00000  Uiso   1.00
Cl665  Cl    0.00141   0.83984   0.38584   0.00000  Uiso   1.00
Cl666  Cl    0.49858   0.66016   0.61416   0.00000  Uiso   1.00
Cl667  Cl    0.00145   0.66016   0.38583   0.00000  Uiso   1.00
Cl668  Cl    0.49855   0.83984   0.61417   0.00000  Uiso   1.00
Cl669  Cl    0.25141   0.58984   0.38584   0.00000  Uiso   1.00
Cl670  Cl    0.24858   0.91016   0.61416   0.00000  Uiso   1.00
Cl671  Cl    0.25145   0.91016   0.38583   0.00000  Uiso   1.00
Cl672  Cl    0.24855   0.58984   0.61417   0.00000  Uiso   1.00
H673   H     0.46437   0.57656   0.46374   0.00000  Uiso   1.00
H674   H     0.28563   0.67343   0.53625   0.00000  Uiso   1.00
H675   H     0.40805   0.55050   0.42837   0.00000  Uiso   1.00
H676   H     0.09199   0.94946   0.57168   0.00000  Uiso   1.00
H677   H     0.28560   0.82654   0.53616   0.00000  Uiso   1.00
H678   H     0.21440   0.67346   0.46385   0.00000  Uiso   1.00
H679   H     0.09188   0.55043   0.57152   0.00000  Uiso   1.00
H680   H     0.40810   0.94955   0.42846   0.00000  Uiso   1.00
H681   H     0.03565   0.92343   0.53633   0.00000  Uiso   1.00
H682   H     0.15800   0.80054   0.42831   0.00000  Uiso   1.00
H683   H     0.34194   0.69950   0.57162   0.00000  Uiso   1.00
H684   H     0.03560   0.57655   0.53614   0.00000  Uiso   1.00
H685   H     0.46440   0.92346   0.46384   0.00000  Uiso   1.00
H686   H     0.34190   0.80045   0.57154   0.00000  Uiso   1.00
H687   H     0.15812   0.69956   0.42847   0.00000  Uiso   1.00
H688   H     0.21434   0.82657   0.46366   0.00000  Uiso   1.00
N689   N    -0.00000   0.75000   0.61907   0.00000  Uiso   1.00
N690   N    -0.00000   0.75000   0.38093   0.00000  Uiso   1.00
N691   N     0.25000   0.50000   0.61907   0.00000  Uiso   1.00
N692   N     0.25000   0.50000   0.38093   0.00000  Uiso   1.00
O693   O     0.04580   0.70419   0.53821   0.00000  Uiso   1.00
O694   O     0.20419   0.54581   0.46179   0.00000  Uiso   1.00
O695   O     0.20419   0.54581   0.53821   0.00000  Uiso   1.00
O696   O     0.29580   0.95419   0.46179   0.00000  Uiso   1.00
O697   O     0.20419   0.95419   0.46179   0.00000  Uiso   1.00
O698   O     0.29580   0.54581   0.53821   0.00000  Uiso   1.00
O699   O     0.29580   0.54581   0.46179   0.00000  Uiso   1.00
O700   O     0.20419   0.95419   0.53821   0.00000  Uiso   1.00
O701   O     0.45830   0.60886   0.46291   0.00000  Uiso   1.00
O702   O     0.04171   0.89113   0.53711   0.00000  Uiso   1.00
O703   O     0.13729   0.79558   0.45351   0.00000  Uiso   1.00
O704   O     0.45419   0.79581   0.46179   0.00000  Uiso   1.00
O705   O     0.36270   0.70444   0.54646   0.00000  Uiso   1.00
O706   O     0.04167   0.60884   0.53701   0.00000  Uiso   1.00
O707   O     0.45833   0.89116   0.46299   0.00000  Uiso   1.00
O708   O     0.36266   0.79553   0.54638   0.00000  Uiso   1.00
O709   O     0.13734   0.70448   0.45363   0.00000  Uiso   1.00
O710   O     0.20829   0.85887   0.46289   0.00000  Uiso   1.00
O711   O     0.29170   0.64114   0.53709   0.00000  Uiso   1.00
O712   O     0.38730   0.54557   0.45354   0.00000  Uiso   1.00
O713   O     0.11271   0.95442   0.54649   0.00000  Uiso   1.00
O714   O     0.29167   0.85884   0.53701   0.00000  Uiso   1.00
O715   O     0.45419   0.79581   0.53821   0.00000  Uiso   1.00
O716   O     0.20833   0.64116   0.46299   0.00000  Uiso   1.00
O717   O     0.11265   0.54552   0.54637   0.00000  Uiso   1.00
O718   O     0.38734   0.95447   0.45362   0.00000  Uiso   1.00
O719   O     0.04580   0.70419   0.46179   0.00000  Uiso   1.00
O720   O     0.45419   0.70419   0.46179   0.00000  Uiso   1.00
O721   O     0.04580   0.79581   0.53821   0.00000  Uiso   1.00
O722   O     0.04580   0.79581   0.46179   0.00000  Uiso   1.00
O723   O     0.45419   0.70419   0.53821   0.00000  Uiso   1.00
O724   O     0.29580   0.95419   0.53821   0.00000  Uiso   1.00
Zn725  Zn   -0.00000   0.75000   0.55104   0.00000  Uiso   1.00
Zn726  Zn   -0.00000   0.75000   0.44896   0.00000  Uiso   1.00
Zn727  Zn    0.25000   0.50000   0.55104   0.00000  Uiso   1.00
Zn728  Zn    0.25000   0.50000   0.44896   0.00000  Uiso   1.00
C729   C     0.55986   0.69015   0.49998   0.00000  Uiso   1.00
C730   C     0.99985   0.71104   0.64281   0.00000  Uiso   1.00
C731   C     0.50016   0.71104   0.35719   0.00000  Uiso   1.00
C732   C     0.99984   0.78896   0.64281   0.00000  Uiso   1.00
C733   C     0.75015   0.53896   0.35719   0.00000  Uiso   1.00
C734   C     0.74985   0.96104   0.64281   0.00000  Uiso   1.00
C735   C     0.75016   0.96104   0.35719   0.00000  Uiso   1.00
C736   C     0.74984   0.53896   0.64281   0.00000  Uiso   1.00
C737   C     0.91607   0.61664   0.47895   0.00000  Uiso   1.00
C738   C     0.58393   0.88336   0.52106   0.00000  Uiso   1.00
C739   C     0.63264   0.83468   0.47717   0.00000  Uiso   1.00
C740   C     0.94014   0.80984   0.50002   0.00000  Uiso   1.00
C741   C     0.86735   0.66533   0.52281   0.00000  Uiso   1.00
C742   C     0.58391   0.61662   0.52100   0.00000  Uiso   1.00
C743   C     0.91609   0.88337   0.47899   0.00000  Uiso   1.00
C744   C     0.86733   0.83466   0.52277   0.00000  Uiso   1.00
C745   C     0.63267   0.66535   0.47723   0.00000  Uiso   1.00
C746   C     0.66607   0.86664   0.47894   0.00000  Uiso   1.00
C747   C     0.83393   0.63336   0.52105   0.00000  Uiso   1.00
C748   C     0.88265   0.58467   0.47719   0.00000  Uiso   1.00
C749   C     0.61736   0.91532   0.52283   0.00000  Uiso   1.00
C750   C     0.83391   0.86663   0.52101   0.00000  Uiso   1.00
C751   C     0.94014   0.69015   0.50002   0.00000  Uiso   1.00
C752   C     0.66609   0.63337   0.47900   0.00000  Uiso   1.00
C753   C     0.61733   0.58465   0.52277   0.00000  Uiso   1.00
C754   C     0.88267   0.91534   0.47723   0.00000  Uiso   1.00
C755   C     0.59301   0.84302   0.49989   0.00000  Uiso   1.00
C756   C     0.90699   0.65698   0.50011   0.00000  Uiso   1.00
C757   C     0.90699   0.84302   0.50011   0.00000  Uiso   1.00
C758   C     0.59301   0.65698   0.49989   0.00000  Uiso   1.00
C759   C     0.84301   0.59302   0.49989   0.00000  Uiso   1.00
C760   C     0.65699   0.90698   0.50011   0.00000  Uiso   1.00
C761   C     0.65699   0.59302   0.50011   0.00000  Uiso   1.00
C762   C     0.55986   0.80985   0.49998   0.00000  Uiso   1.00
C763   C     0.84301   0.90698   0.49989   0.00000  Uiso   1.00
C764   C     0.80986   0.94015   0.49998   0.00000  Uiso   1.00
C765   C     0.69014   0.55984   0.50002   0.00000  Uiso   1.00
C766   C     0.69014   0.94015   0.50002   0.00000  Uiso   1.00
C767   C     0.80986   0.55985   0.49998   0.00000  Uiso   1.00
C768   C     0.50015   0.78896   0.35719   0.00000  Uiso   1.00
Cl769  Cl    0.50141   0.83984   0.38584   0.00000  Uiso   1.00
Cl770  Cl    0.99858   0.66016   0.61416   0.00000  Uiso   1.00
Cl771  Cl    0.50145   0.66016   0.38583   0.00000  Uiso   1.00
Cl772  Cl    0.99855   0.83984   0.61417   0.00000  Uiso   1.00
Cl773  Cl    0.75141   0.58984   0.38584   0.00000  Uiso   1.00
Cl774  Cl    0.74858   0.91016   0.61416   0.00000  Uiso   1.00
Cl775  Cl    0.75145   0.91016   0.38583   0.00000  Uiso   1.00
Cl776  Cl    0.74855   0.58984   0.61417   0.00000  Uiso   1.00
H777   H     0.96437   0.57656   0.46374   0.00000  Uiso   1.00
H778   H     0.78563   0.67343   0.53625   0.00000  Uiso   1.00
H779   H     0.90805   0.55050   0.42837   0.00000  Uiso   1.00
H780   H     0.59199   0.94946   0.57168   0.00000  Uiso   1.00
H781   H     0.78560   0.82654   0.53616   0.00000  Uiso   1.00
H782   H     0.71440   0.67346   0.46385   0.00000  Uiso   1.00
H783   H     0.59188   0.55043   0.57152   0.00000  Uiso   1.00
H784   H     0.90810   0.94955   0.42846   0.00000  Uiso   1.00
H785   H     0.53565   0.92343   0.53633   0.00000  Uiso   1.00
H786   H     0.65800   0.80054   0.42831   0.00000  Uiso   1.00
H787   H     0.84194   0.69950   0.57162   0.00000  Uiso   1.00
H788   H     0.53560   0.57655   0.53614   0.00000  Uiso   1.00
H789   H     0.96440   0.92346   0.46384   0.00000  Uiso   1.00
H790   H     0.84190   0.80045   0.57154   0.00000  Uiso   1.00
H791   H     0.65812   0.69956   0.42847   0.00000  Uiso   1.00
H792   H     0.71434   0.82657   0.46366   0.00000  Uiso   1.00
N793   N     0.50000   0.75000   0.61907   0.00000  Uiso   1.00
N794   N     0.50000   0.75000   0.38093   0.00000  Uiso   1.00
N795   N     0.75000   0.50000   0.61907   0.00000  Uiso   1.00
N796   N     0.75000   0.50000   0.38093   0.00000  Uiso   1.00
O797   O     0.54580   0.70419   0.53821   0.00000  Uiso   1.00
O798   O     0.70419   0.54581   0.46179   0.00000  Uiso   1.00
O799   O     0.70419   0.54581   0.53821   0.00000  Uiso   1.00
O800   O     0.79580   0.95419   0.46179   0.00000  Uiso   1.00
O801   O     0.70419   0.95419   0.46179   0.00000  Uiso   1.00
O802   O     0.79580   0.54581   0.53821   0.00000  Uiso   1.00
O803   O     0.79580   0.54581   0.46179   0.00000  Uiso   1.00
O804   O     0.70419   0.95419   0.53821   0.00000  Uiso   1.00
O805   O     0.95830   0.60886   0.46291   0.00000  Uiso   1.00
O806   O     0.54171   0.89113   0.53711   0.00000  Uiso   1.00
O807   O     0.63729   0.79558   0.45351   0.00000  Uiso   1.00
O808   O     0.95419   0.79581   0.46179   0.00000  Uiso   1.00
O809   O     0.86270   0.70444   0.54646   0.00000  Uiso   1.00
O810   O     0.54167   0.60884   0.53701   0.00000  Uiso   1.00
O811   O     0.95833   0.89116   0.46299   0.00000  Uiso   1.00
O812   O     0.86266   0.79553   0.54638   0.00000  Uiso   1.00
O813   O     0.63734   0.70448   0.45363   0.00000  Uiso   1.00
O814   O     0.70829   0.85887   0.46289   0.00000  Uiso   1.00
O815   O     0.79170   0.64114   0.53709   0.00000  Uiso   1.00
O816   O     0.88730   0.54557   0.45354   0.00000  Uiso   1.00
O817   O     0.61271   0.95442   0.54649   0.00000  Uiso   1.00
O818   O     0.79167   0.85884   0.53701   0.00000  Uiso   1.00
O819   O     0.95419   0.79581   0.53821   0.00000  Uiso   1.00
O820   O     0.70833   0.64116   0.46299   0.00000  Uiso   1.00
O821   O     0.61265   0.54552   0.54637   0.00000  Uiso   1.00
O822   O     0.88734   0.95447   0.45362   0.00000  Uiso   1.00
O823   O     0.54580   0.70419   0.46179   0.00000  Uiso   1.00
O824   O     0.95419   0.70419   0.46179   0.00000  Uiso   1.00
O825   O     0.54580   0.79581   0.53821   0.00000  Uiso   1.00
O826   O     0.54580   0.79581   0.46179   0.00000  Uiso   1.00
O827   O     0.95419   0.70419   0.53821   0.00000  Uiso   1.00
O828   O     0.79580   0.95419   0.53821   0.00000  Uiso   1.00
Zn829  Zn    0.50000   0.75000   0.55104   0.00000  Uiso   1.00
Zn830  Zn    0.50000   0.75000   0.44896   0.00000  Uiso   1.00
Zn831  Zn    0.75000   0.50000   0.55104   0.00000  Uiso   1.00
Zn832  Zn    0.75000   0.50000   0.44896   0.00000  Uiso   1.00
C833   C     0.05986   0.19015   0.83331   0.00000  Uiso   1.00
C834   C     0.49985   0.21104   0.97614   0.00000  Uiso   1.00
C835   C     0.00016   0.21104   0.69052   0.00000  Uiso   1.00
C836   C     0.49984   0.28896   0.97614   0.00000  Uiso   1.00
C837   C     0.25015   0.03896   0.69053   0.00000  Uiso   1.00
C838   C     0.24985   0.46104   0.97614   0.00000  Uiso   1.00
C839   C     0.25016   0.46104   0.69052   0.00000  Uiso   1.00
C840   C     0.24984   0.03896   0.97614   0.00000  Uiso   1.00
C841   C     0.41607   0.11664   0.81229   0.00000  Uiso   1.00
C842   C     0.08393   0.38336   0.85439   0.00000  Uiso   1.00
C843   C     0.13264   0.33468   0.81050   0.00000  Uiso   1.00
C844   C     0.44014   0.30984   0.83335   0.00000  Uiso   1.00
C845   C     0.36735   0.16533   0.85615   0.00000  Uiso   1.00
C846   C     0.08391   0.11662   0.85434   0.00000  Uiso   1.00
C847   C     0.41609   0.38337   0.81233   0.00000  Uiso   1.00
C848   C     0.36733   0.33466   0.85611   0.00000  Uiso   1.00
C849   C     0.13267   0.16535   0.81056   0.00000  Uiso   1.00
C850   C     0.16607   0.36664   0.81227   0.00000  Uiso   1.00
C851   C     0.33393   0.13336   0.85438   0.00000  Uiso   1.00
C852   C     0.38265   0.08467   0.81052   0.00000  Uiso   1.00
C853   C     0.11736   0.41532   0.85616   0.00000  Uiso   1.00
C854   C     0.33391   0.36663   0.85434   0.00000  Uiso   1.00
C855   C     0.44014   0.19015   0.83335   0.00000  Uiso   1.00
C856   C     0.16609   0.13337   0.81233   0.00000  Uiso   1.00
C857   C     0.11733   0.08465   0.85610   0.00000  Uiso   1.00
C858   C     0.38267   0.41534   0.81056   0.00000  Uiso   1.00
C859   C     0.09301   0.34302   0.83322   0.00000  Uiso   1.00
C860   C     0.40699   0.15698   0.83344   0.00000  Uiso   1.00
C861   C     0.40699   0.34302   0.83344   0.00000  Uiso   1.00
C862   C     0.09301   0.15698   0.83322   0.00000  Uiso   1.00
C863   C     0.34301   0.09302   0.83322   0.00000  Uiso   1.00
C864   C     0.15699   0.40698   0.83344   0.00000  Uiso   1.00
C865   C     0.15699   0.09302   0.83344   0.00000  Uiso   1.00
C866   C     0.05986   0.30985   0.83331   0.00000  Uiso   1.00
C867   C     0.34301   0.40698   0.83322   0.00000  Uiso   1.00
C868   C     0.30986   0.44015   0.83331   0.00000  Uiso   1.00
C869   C     0.19014   0.05984   0.83335   0.00000  Uiso   1.00
C870   C     0.19014   0.44015   0.83335   0.00000  Uiso   1.00
C871   C     0.30986   0.05985   0.83331   0.00000  Uiso   1.00
C872   C     0.00015   0.28896   0.69053   0.00000  Uiso   1.00
Cl873  Cl    0.00141   0.33984   0.71917   0.00000  Uiso   1.00
Cl874  Cl    0.49858   0.16016   0.94749   0.00000  Uiso   1.00
Cl875  Cl    0.00145   0.16016   0.71916   0.00000  Uiso   1.00
Cl876  Cl    0.49855   0.33984   0.94750   0.00000  Uiso   1.00
Cl877  Cl    0.25141   0.08984   0.71917   0.00000  Uiso   1.00
Cl878  Cl    0.24858   0.41016   0.94749   0.00000  Uiso   1.00
Cl879  Cl    0.25145   0.41016   0.71916   0.00000  Uiso   1.00
Cl880  Cl    0.24855   0.08984   0.94750   0.00000  Uiso   1.00
H881   H     0.46437   0.07656   0.79708   0.00000  Uiso   1.00
H882   H     0.28563   0.17343   0.86958   0.00000  Uiso   1.00
H883   H     0.40805   0.05050   0.76171   0.00000  Uiso   1.00
H884   H     0.09199   0.44946   0.90501   0.00000  Uiso   1.00
H885   H     0.28560   0.32654   0.86950   0.00000  Uiso   1.00
H886   H     0.21440   0.17346   0.79719   0.00000  Uiso   1.00
H887   H     0.09188   0.05043   0.90486   0.00000  Uiso   1.00
H888   H     0.40810   0.44955   0.76179   0.00000  Uiso   1.00
H889   H     0.03565   0.42343   0.86966   0.00000  Uiso   1.00
H890   H     0.15800   0.30054   0.76164   0.00000  Uiso   1.00
H891   H     0.34194   0.19950   0.90495   0.00000  Uiso   1.00
H892   H     0.03560   0.07655   0.86948   0.00000  Uiso   1.00
H893   H     0.46440   0.42346   0.79717   0.00000  Uiso   1.00
H894   H     0.34190   0.30045   0.90487   0.00000  Uiso   1.00
H895   H     0.15812   0.19956   0.76181   0.00000  Uiso   1.00
H896   H     0.21434   0.32657   0.79699   0.00000  Uiso   1.00
N897   N    -0.00000   0.25000   0.95240   0.00000  Uiso   1.00
N898   N    -0.00000   0.25000   0.71427   0.00000  Uiso   1.00
N899   N     0.25000   0.00000   0.95240   0.00000  Uiso   1.00
N900   N     0.25000   0.00000   0.71427   0.00000  Uiso   1.00
O901   O     0.04580   0.20419   0.87154   0.00000  Uiso   1.00
O902   O     0.20419   0.04581   0.79513   0.00000  Uiso   1.00
O903   O     0.20419   0.04581   0.87154   0.00000  Uiso   1.00
O904   O     0.29580   0.45419   0.79513   0.00000  Uiso   1.00
O905   O     0.20419   0.45419   0.79513   0.00000  Uiso   1.00
O906   O     0.29580   0.04581   0.87154   0.00000  Uiso   1.00
O907   O     0.29580   0.04581   0.79513   0.00000  Uiso   1.00
O908   O     0.20419   0.45419   0.87154   0.00000  Uiso   1.00
O909   O     0.45830   0.10886   0.79624   0.00000  Uiso   1.00
O910   O     0.04171   0.39113   0.87044   0.00000  Uiso   1.00
O911   O     0.13729   0.29558   0.78684   0.00000  Uiso   1.00
O912   O     0.45419   0.29581   0.79513   0.00000  Uiso   1.00
O913   O     0.36270   0.20444   0.87979   0.00000  Uiso   1.00
O914   O     0.04167   0.10884   0.87034   0.00000  Uiso   1.00
O915   O     0.45833   0.39116   0.79632   0.00000  Uiso   1.00
O916   O     0.36266   0.29553   0.87971   0.00000  Uiso   1.00
O917   O     0.13734   0.20448   0.78696   0.00000  Uiso   1.00
O918   O     0.20829   0.35887   0.79622   0.00000  Uiso   1.00
O919   O     0.29170   0.14114   0.87042   0.00000  Uiso   1.00
O920   O     0.38730   0.04557   0.78687   0.00000  Uiso   1.00
O921   O     0.11271   0.45442   0.87982   0.00000  Uiso   1.00
O922   O     0.29167   0.35884   0.87034   0.00000  Uiso   1.00
O923   O     0.45419   0.29581   0.87154   0.00000  Uiso   1.00
O924   O     0.20833   0.14116   0.79633   0.00000  Uiso   1.00
O925   O     0.11265   0.04552   0.87970   0.00000  Uiso   1.00
O926   O     0.38734   0.45447   0.78696   0.00000  Uiso   1.00
O927   O     0.04580   0.20419   0.79513   0.00000  Uiso   1.00
O928   O     0.45419   0.20419   0.79513   0.00000  Uiso   1.00
O929   O     0.04580   0.29581   0.87154   0.00000  Uiso   1.00
O930   O     0.04580   0.29581   0.79513   0.00000  Uiso   1.00
O931   O     0.45419   0.20419   0.87154   0.00000  Uiso   1.00
O932   O     0.29580   0.45419   0.87154   0.00000  Uiso   1.00
Zn933  Zn   -0.00000   0.25000   0.88437   0.00000  Uiso   1.00
Zn934  Zn   -0.00000   0.25000   0.78229   0.00000  Uiso   1.00
Zn935  Zn    0.25000   0.00000   0.88437   0.00000  Uiso   1.00
Zn936  Zn    0.25000  -0.00000   0.78229   0.00000  Uiso   1.00
C937   C     0.55986   0.19015   0.83331   0.00000  Uiso   1.00
C938   C     0.99985   0.21104   0.97614   0.00000  Uiso   1.00
C939   C     0.50016   0.21104   0.69052   0.00000  Uiso   1.00
C940   C     0.99984   0.28896   0.97614   0.00000  Uiso   1.00
C941   C     0.75015   0.03896   0.69053   0.00000  Uiso   1.00
C942   C     0.74985   0.46104   0.97614   0.00000  Uiso   1.00
C943   C     0.75016   0.46104   0.69052   0.00000  Uiso   1.00
C944   C     0.74984   0.03896   0.97614   0.00000  Uiso   1.00
C945   C     0.91607   0.11664   0.81229   0.00000  Uiso   1.00
C946   C     0.58393   0.38336   0.85439   0.00000  Uiso   1.00
C947   C     0.63264   0.33468   0.81050   0.00000  Uiso   1.00
C948   C     0.94014   0.30984   0.83335   0.00000  Uiso   1.00
C949   C     0.86735   0.16533   0.85615   0.00000  Uiso   1.00
C950   C     0.58391   0.11662   0.85434   0.00000  Uiso   1.00
C951   C     0.91609   0.38337   0.81233   0.00000  Uiso   1.00
C952   C     0.86733   0.33466   0.85611   0.00000  Uiso   1.00
C953   C     0.63267   0.16535   0.81056   0.00000  Uiso   1.00
C954   C     0.66607   0.36664   0.81227   0.00000  Uiso   1.00
C955   C     0.83393   0.13336   0.85438   0.00000  Uiso   1.00
C956   C     0.88265   0.08467   0.81052   0.00000  Uiso   1.00
C957   C     0.61736   0.41532   0.85616   0.00000  Uiso   1.00
C958   C     0.83391   0.36663   0.85434   0.00000  Uiso   1.00
C959   C     0.94014   0.19015   0.83335   0.00000  Uiso   1.00
C960   C     0.66609   0.13337   0.81233   0.00000  Uiso   1.00
C961   C     0.61733   0.08465   0.85610   0.00000  Uiso   1.00
C962   C     0.88267   0.41534   0.81056   0.00000  Uiso   1.00
C963   C     0.59301   0.34302   0.83322   0.00000  Uiso   1.00
C964   C     0.90699   0.15698   0.83344   0.00000  Uiso   1.00
C965   C     0.90699   0.34302   0.83344   0.00000  Uiso   1.00
C966   C     0.59301   0.15698   0.83322   0.00000  Uiso   1.00
C967   C     0.84301   0.09302   0.83322   0.00000  Uiso   1.00
C968   C     0.65699   0.40698   0.83344   0.00000  Uiso   1.00
C969   C     0.65699   0.09302   0.83344   0.00000  Uiso   1.00
C970   C     0.55986   0.30985   0.83331   0.00000  Uiso   1.00
C971   C     0.84301   0.40698   0.83322   0.00000  Uiso   1.00
C972   C     0.80986   0.44015   0.83331   0.00000  Uiso   1.00
C973   C     0.69014   0.05984   0.83335   0.00000  Uiso   1.00
C974   C     0.69014   0.44015   0.83335   0.00000  Uiso   1.00
C975   C     0.80986   0.05985   0.83331   0.00000  Uiso   1.00
C976   C     0.50015   0.28896   0.69053   0.00000  Uiso   1.00
Cl977  Cl    0.50141   0.33984   0.71917   0.00000  Uiso   1.00
Cl978  Cl    0.99858   0.16016   0.94749   0.00000  Uiso   1.00
Cl979  Cl    0.50145   0.16016   0.71916   0.00000  Uiso   1.00
Cl980  Cl    0.99855   0.33984   0.94750   0.00000  Uiso   1.00
Cl981  Cl    0.75141   0.08984   0.71917   0.00000  Uiso   1.00
Cl982  Cl    0.74858   0.41016   0.94749   0.00000  Uiso   1.00
Cl983  Cl    0.75145   0.41016   0.71916   0.00000  Uiso   1.00
Cl984  Cl    0.74855   0.08984   0.94750   0.00000  Uiso   1.00
H985   H     0.96437   0.07656   0.79708   0.00000  Uiso   1.00
H986   H     0.78563   0.17343   0.86958   0.00000  Uiso   1.00
H987   H     0.90805   0.05050   0.76171   0.00000  Uiso   1.00
H988   H     0.59199   0.44946   0.90501   0.00000  Uiso   1.00
H989   H     0.78560   0.32654   0.86950   0.00000  Uiso   1.00
H990   H     0.71440   0.17346   0.79719   0.00000  Uiso   1.00
H991   H     0.59188   0.05043   0.90486   0.00000  Uiso   1.00
H992   H     0.90810   0.44955   0.76179   0.00000  Uiso   1.00
H993   H     0.53565   0.42343   0.86966   0.00000  Uiso   1.00
H994   H     0.65800   0.30054   0.76164   0.00000  Uiso   1.00
H995   H     0.84194   0.19950   0.90495   0.00000  Uiso   1.00
H996   H     0.53560   0.07655   0.86948   0.00000  Uiso   1.00
H997   H     0.96440   0.42346   0.79717   0.00000  Uiso   1.00
H998   H     0.84190   0.30045   0.90487   0.00000  Uiso   1.00
H999   H     0.65812   0.19956   0.76181   0.00000  Uiso   1.00
H1000  H     0.71434   0.32657   0.79699   0.00000  Uiso   1.00
N1001  N     0.50000   0.25000   0.95240   0.00000  Uiso   1.00
N1002  N     0.50000   0.25000   0.71427   0.00000  Uiso   1.00
N1003  N     0.75000   0.00000   0.95240   0.00000  Uiso   1.00
N1004  N     0.75000   0.00000   0.71427   0.00000  Uiso   1.00
O1005  O     0.54580   0.20419   0.87154   0.00000  Uiso   1.00
O1006  O     0.70419   0.04581   0.79513   0.00000  Uiso   1.00
O1007  O     0.70419   0.04581   0.87154   0.00000  Uiso   1.00
O1008  O     0.79580   0.45419   0.79513   0.00000  Uiso   1.00
O1009  O     0.70419   0.45419   0.79513   0.00000  Uiso   1.00
O1010  O     0.79580   0.04581   0.87154   0.00000  Uiso   1.00
O1011  O     0.79580   0.04581   0.79513   0.00000  Uiso   1.00
O1012  O     0.70419   0.45419   0.87154   0.00000  Uiso   1.00
O1013  O     0.95830   0.10886   0.79624   0.00000  Uiso   1.00
O1014  O     0.54171   0.39113   0.87044   0.00000  Uiso   1.00
O1015  O     0.63729   0.29558   0.78684   0.00000  Uiso   1.00
O1016  O     0.95419   0.29581   0.79513   0.00000  Uiso   1.00
O1017  O     0.86270   0.20444   0.87979   0.00000  Uiso   1.00
O1018  O     0.54167   0.10884   0.87034   0.00000  Uiso   1.00
O1019  O     0.95833   0.39116   0.79632   0.00000  Uiso   1.00
O1020  O     0.86266   0.29553   0.87971   0.00000  Uiso   1.00
O1021  O     0.63734   0.20448   0.78696   0.00000  Uiso   1.00
O1022  O     0.70829   0.35887   0.79622   0.00000  Uiso   1.00
O1023  O     0.79170   0.14114   0.87042   0.00000  Uiso   1.00
O1024  O     0.88730   0.04557   0.78687   0.00000  Uiso   1.00
O1025  O     0.61271   0.45442   0.87982   0.00000  Uiso   1.00
O1026  O     0.79167   0.35884   0.87034   0.00000  Uiso   1.00
O1027  O     0.95419   0.29581   0.87154   0.00000  Uiso   1.00
O1028  O     0.70833   0.14116   0.79633   0.00000  Uiso   1.00
O1029  O     0.61265   0.04552   0.87970   0.00000  Uiso   1.00
O1030  O     0.88734   0.45447   0.78696   0.00000  Uiso   1.00
O1031  O     0.54580   0.20419   0.79513   0.00000  Uiso   1.00
O1032  O     0.95419   0.20419   0.79513   0.00000  Uiso   1.00
O1033  O     0.54580   0.29581   0.87154   0.00000  Uiso   1.00
O1034  O     0.54580   0.29581   0.79513   0.00000  Uiso   1.00
O1035  O     0.95419   0.20419   0.87154   0.00000  Uiso   1.00
O1036  O     0.79580   0.45419   0.87154   0.00000  Uiso   1.00
Zn1037 Zn    0.50000   0.25000   0.88437   0.00000  Uiso   1.00
Zn1038 Zn    0.50000   0.25000   0.78229   0.00000  Uiso   1.00
Zn1039 Zn    0.75000   0.00000   0.88437   0.00000  Uiso   1.00
Zn1040 Zn    0.75000  -0.00000   0.78229   0.00000  Uiso   1.00
C1041  C     0.05986   0.69015   0.83331   0.00000  Uiso   1.00
C1042  C     0.49985   0.71104   0.97614   0.00000  Uiso   1.00
C1043  C     0.00016   0.71104   0.69052   0.00000  Uiso   1.00
C1044  C     0.49984   0.78896   0.97614   0.00000  Uiso   1.00
C1045  C     0.25015   0.53896   0.69053   0.00000  Uiso   1.00
C1046  C     0.24985   0.96104   0.97614   0.00000  Uiso   1.00
C1047  C     0.25016   0.96104   0.69052   0.00000  Uiso   1.00
C1048  C     0.24984   0.53896   0.97614   0.00000  Uiso   1.00
C1049  C     0.41607   0.61664   0.81229   0.00000  Uiso   1.00
C1050  C     0.08393   0.88336   0.85439   0.00000  Uiso   1.00
C1051  C     0.13264   0.83468   0.81050   0.00000  Uiso   1.00
C1052  C     0.44014   0.80984   0.83335   0.00000  Uiso   1.00
C1053  C     0.36735   0.66533   0.85615   0.00000  Uiso   1.00
C1054  C     0.08391   0.61662   0.85434   0.00000  Uiso   1.00
C1055  C     0.41609   0.88337   0.81233   0.00000  Uiso   1.00
C1056  C     0.36733   0.83466   0.85611   0.00000  Uiso   1.00
C1057  C     0.13267   0.66535   0.81056   0.00000  Uiso   1.00
C1058  C     0.16607   0.86664   0.81227   0.00000  Uiso   1.00
C1059  C     0.33393   0.63336   0.85438   0.00000  Uiso   1.00
C1060  C     0.38265   0.58467   0.81052   0.00000  Uiso   1.00
C1061  C     0.11736   0.91532   0.85616   0.00000  Uiso   1.00
C1062  C     0.33391   0.86663   0.85434   0.00000  Uiso   1.00
C1063  C     0.44014   0.69015   0.83335   0.00000  Uiso   1.00
C1064  C     0.16609   0.63337   0.81233   0.00000  Uiso   1.00
C1065  C     0.11733   0.58465   0.85610   0.00000  Uiso   1.00
C1066  C     0.38267   0.91534   0.81056   0.00000  Uiso   1.00
C1067  C     0.09301   0.84302   0.83322   0.00000  Uiso   1.00
C1068  C     0.40699   0.65698   0.83344   0.00000  Uiso   1.00
C1069  C     0.40699   0.84302   0.83344   0.00000  Uiso   1.00
C1070  C     0.09301   0.65698   0.83322   0.00000  Uiso   1.00
C1071  C     0.34301   0.59302   0.83322   0.00000  Uiso   1.00
C1072  C     0.15699   0.90698   0.83344   0.00000  Uiso   1.00
C1073  C     0.15699   0.59302   0.83344   0.00000  Uiso   1.00
C1074  C     0.05986   0.80985   0.83331   0.00000  Uiso   1.00
C1075  C     0.34301   0.90698   0.83322   0.00000  Uiso   1.00
C1076  C     0.30986   0.94015   0.83331   0.00000  Uiso   1.00
C1077  C     0.19014   0.55984   0.83335   0.00000  Uiso   1.00
C1078  C     0.19014   0.94015   0.83335   0.00000  Uiso   1.00
C1079  C     0.30986   0.55985   0.83331   0.00000  Uiso   1.00
C1080  C     0.00015   0.78896   0.69053   0.00000  Uiso   1.00
Cl1081 Cl    0.00141   0.83984   0.71917   0.00000  Uiso   1.00
Cl1082 Cl    0.49858   0.66016   0.94749   0.00000  Uiso   1.00
Cl1083 Cl    0.00145   0.66016   0.71916   0.00000  Uiso   1.00
Cl1084 Cl    0.49855   0.83984   0.94750   0.00000  Uiso   1.00
Cl1085 Cl    0.25141   0.58984   0.71917   0.00000  Uiso   1.00
Cl1086 Cl    0.24858   0.91016   0.94749   0.00000  Uiso   1.00
Cl1087 Cl    0.25145   0.91016   0.71916   0.00000  Uiso   1.00
Cl1088 Cl    0.24855   0.58984   0.94750   0.00000  Uiso   1.00
H1089  H     0.46437   0.57656   0.79708   0.00000  Uiso   1.00
H1090  H     0.28563   0.67343   0.86958   0.00000  Uiso   1.00
H1091  H     0.40805   0.55050   0.76171   0.00000  Uiso   1.00
H1092  H     0.09199   0.94946   0.90501   0.00000  Uiso   1.00
H1093  H     0.28560   0.82654   0.86950   0.00000  Uiso   1.00
H1094  H     0.21440   0.67346   0.79719   0.00000  Uiso   1.00
H1095  H     0.09188   0.55043   0.90486   0.00000  Uiso   1.00
H1096  H     0.40810   0.94955   0.76179   0.00000  Uiso   1.00
H1097  H     0.03565   0.92343   0.86966   0.00000  Uiso   1.00
H1098  H     0.15800   0.80054   0.76164   0.00000  Uiso   1.00
H1099  H     0.34194   0.69950   0.90495   0.00000  Uiso   1.00
H1100  H     0.03560   0.57655   0.86948   0.00000  Uiso   1.00
H1101  H     0.46440   0.92346   0.79717   0.00000  Uiso   1.00
H1102  H     0.34190   0.80045   0.90487   0.00000  Uiso   1.00
H1103  H     0.15812   0.69956   0.76181   0.00000  Uiso   1.00
H1104  H     0.21434   0.82657   0.79699   0.00000  Uiso   1.00
N1105  N    -0.00000   0.75000   0.95240   0.00000  Uiso   1.00
N1106  N    -0.00000   0.75000   0.71427   0.00000  Uiso   1.00
N1107  N     0.25000   0.50000   0.95240   0.00000  Uiso   1.00
N1108  N     0.25000   0.50000   0.71427   0.00000  Uiso   1.00
O1109  O     0.04580   0.70419   0.87154   0.00000  Uiso   1.00
O1110  O     0.20419   0.54581   0.79513   0.00000  Uiso   1.00
O1111  O     0.20419   0.54581   0.87154   0.00000  Uiso   1.00
O1112  O     0.29580   0.95419   0.79513   0.00000  Uiso   1.00
O1113  O     0.20419   0.95419   0.79513   0.00000  Uiso   1.00
O1114  O     0.29580   0.54581   0.87154   0.00000  Uiso   1.00
O1115  O     0.29580   0.54581   0.79513   0.00000  Uiso   1.00
O1116  O     0.20419   0.95419   0.87154   0.00000  Uiso   1.00
O1117  O     0.45830   0.60886   0.79624   0.00000  Uiso   1.00
O1118  O     0.04171   0.89113   0.87044   0.00000  Uiso   1.00
O1119  O     0.13729   0.79558   0.78684   0.00000  Uiso   1.00
O1120  O     0.45419   0.79581   0.79513   0.00000  Uiso   1.00
O1121  O     0.36270   0.70444   0.87979   0.00000  Uiso   1.00
O1122  O     0.04167   0.60884   0.87034   0.00000  Uiso   1.00
O1123  O     0.45833   0.89116   0.79632   0.00000  Uiso   1.00
O1124  O     0.36266   0.79553   0.87971   0.00000  Uiso   1.00
O1125  O     0.13734   0.70448   0.78696   0.00000  Uiso   1.00
O1126  O     0.20829   0.85887   0.79622   0.00000  Uiso   1.00
O1127  O     0.29170   0.64114   0.87042   0.00000  Uiso   1.00
O1128  O     0.38730   0.54557   0.78687   0.00000  Uiso   1.00
O1129  O     0.11271   0.95442   0.87982   0.00000  Uiso   1.00
O1130  O     0.29167   0.85884   0.87034   0.00000  Uiso   1.00
O1131  O     0.45419   0.79581   0.87154   0.00000  Uiso   1.00
O1132  O     0.20833   0.64116   0.79633   0.00000  Uiso   1.00
O1133  O     0.11265   0.54552   0.87970   0.00000  Uiso   1.00
O1134  O     0.38734   0.95447   0.78696   0.00000  Uiso   1.00
O1135  O     0.04580   0.70419   0.79513   0.00000  Uiso   1.00
O1136  O     0.45419   0.70419   0.79513   0.00000  Uiso   1.00
O1137  O     0.04580   0.79581   0.87154   0.00000  Uiso   1.00
O1138  O     0.04580   0.79581   0.79513   0.00000  Uiso   1.00
O1139  O     0.45419   0.70419   0.87154   0.00000  Uiso   1.00
O1140  O     0.29580   0.95419   0.87154   0.00000  Uiso   1.00
Zn1141 Zn   -0.00000   0.75000   0.88437   0.00000  Uiso   1.00
Zn1142 Zn   -0.00000   0.75000   0.78229   0.00000  Uiso   1.00
Zn1143 Zn    0.25000   0.50000   0.88437   0.00000  Uiso   1.00
Zn1144 Zn    0.25000   0.50000   0.78229   0.00000  Uiso   1.00
C1145  C     0.55986   0.69015   0.83331   0.00000  Uiso   1.00
C1146  C     0.99985   0.71104   0.97614   0.00000  Uiso   1.00
C1147  C     0.50016   0.71104   0.69052   0.00000  Uiso   1.00
C1148  C     0.99984   0.78896   0.97614   0.00000  Uiso   1.00
C1149  C     0.75015   0.53896   0.69053   0.00000  Uiso   1.00
C1150  C     0.74985   0.96104   0.97614   0.00000  Uiso   1.00
C1151  C     0.75016   0.96104   0.69052   0.00000  Uiso   1.00
C1152  C     0.74984   0.53896   0.97614   0.00000  Uiso   1.00
C1153  C     0.91607   0.61664   0.81229   0.00000  Uiso   1.00
C1154  C     0.58393   0.88336   0.85439   0.00000  Uiso   1.00
C1155  C     0.63264   0.83468   0.81050   0.00000  Uiso   1.00
C1156  C     0.94014   0.80984   0.83335   0.00000  Uiso   1.00
C1157  C     0.86735   0.66533   0.85615   0.00000  Uiso   1.00
C1158  C     0.58391   0.61662   0.85434   0.00000  Uiso   1.00
C1159  C     0.91609   0.88337   0.81233   0.00000  Uiso   1.00
C1160  C     0.86733   0.83466   0.85611   0.00000  Uiso   1.00
C1161  C     0.63267   0.66535   0.81056   0.00000  Uiso   1.00
C1162  C     0.66607   0.86664   0.81227   0.00000  Uiso   1.00
C1163  C     0.83393   0.63336   0.85438   0.00000  Uiso   1.00
C1164  C     0.88265   0.58467   0.81052   0.00000  Uiso   1.00
C1165  C     0.61736   0.91532   0.85616   0.00000  Uiso   1.00
C1166  C     0.83391   0.86663   0.85434   0.00000  Uiso   1.00
C1167  C     0.94014   0.69015   0.83335   0.00000  Uiso   1.00
C1168  C     0.66609   0.63337   0.81233   0.00000  Uiso   1.00
C1169  C     0.61733   0.58465   0.85610   0.00000  Uiso   1.00
C1170  C     0.88267   0.91534   0.81056   0.00000  Uiso   1.00
C1171  C     0.59301   0.84302   0.83322   0.00000  Uiso   1.00
C1172  C     0.90699   0.65698   0.83344   0.00000  Uiso   1.00
C1173  C     0.90699   0.84302   0.83344   0.00000  Uiso   1.00
C1174  C     0.59301   0.65698   0.83322   0.00000  Uiso   1.00
C1175  C     0.84301   0.59302   0.83322   0.00000  Uiso   1.00
C1176  C     0.65699   0.90698   0.83344   0.00000  Uiso   1.00
C1177  C     0.65699   0.59302   0.83344   0.00000  Uiso   1.00
C1178  C     0.55986   0.80985   0.83331   0.00000  Uiso   1.00
C1179  C     0.84301   0.90698   0.83322   0.00000  Uiso   1.00
C1180  C     0.80986   0.94015   0.83331   0.00000  Uiso   1.00
C1181  C     0.69014   0.55984   0.83335   0.00000  Uiso   1.00
C1182  C     0.69014   0.94015   0.83335   0.00000  Uiso   1.00
C1183  C     0.80986   0.55985   0.83331   0.00000  Uiso   1.00
C1184  C     0.50015   0.78896   0.69053   0.00000  Uiso   1.00
Cl1185 Cl    0.50141   0.83984   0.71917   0.00000  Uiso   1.00
Cl1186 Cl    0.99858   0.66016   0.94749   0.00000  Uiso   1.00
Cl1187 Cl    0.50145   0.66016   0.71916   0.00000  Uiso   1.00
Cl1188 Cl    0.99855   0.83984   0.94750   0.00000  Uiso   1.00
Cl1189 Cl    0.75141   0.58984   0.71917   0.00000  Uiso   1.00
Cl1190 Cl    0.74858   0.91016   0.94749   0.00000  Uiso   1.00
Cl1191 Cl    0.75145   0.91016   0.71916   0.00000  Uiso   1.00
Cl1192 Cl    0.74855   0.58984   0.94750   0.00000  Uiso   1.00
H1193  H     0.96437   0.57656   0.79708   0.00000  Uiso   1.00
H1194  H     0.78563   0.67343   0.86958   0.00000  Uiso   1.00
H1195  H     0.90805   0.55050   0.76171   0.00000  Uiso   1.00
H1196  H     0.59199   0.94946   0.90501   0.00000  Uiso   1.00
H1197  H     0.78560   0.82654   0.86950   0.00000  Uiso   1.00
H1198  H     0.71440   0.67346   0.79719   0.00000  Uiso   1.00
H1199  H     0.59188   0.55043   0.90486   0.00000  Uiso   1.00
H1200  H     0.90810   0.94955   0.76179   0.00000  Uiso   1.00
H1201  H     0.53565   0.92343   0.86966   0.00000  Uiso   1.00
H1202  H     0.65800   0.80054   0.76164   0.00000  Uiso   1.00
H1203  H     0.84194   0.69950   0.90495   0.00000  Uiso   1.00
H1204  H     0.53560   0.57655   0.86948   0.00000  Uiso   1.00
H1205  H     0.96440   0.92346   0.79717   0.00000  Uiso   1.00
H1206  H     0.84190   0.80045   0.90487   0.00000  Uiso   1.00
H1207  H     0.65812   0.69956   0.76181   0.00000  Uiso   1.00
H1208  H     0.71434   0.82657   0.79699   0.00000  Uiso   1.00
N1209  N     0.50000   0.75000   0.95240   0.00000  Uiso   1.00
N1210  N     0.50000   0.75000   0.71427   0.00000  Uiso   1.00
N1211  N     0.75000   0.50000   0.95240   0.00000  Uiso   1.00
N1212  N     0.75000   0.50000   0.71427   0.00000  Uiso   1.00
O1213  O     0.54580   0.70419   0.87154   0.00000  Uiso   1.00
O1214  O     0.70419   0.54581   0.79513   0.00000  Uiso   1.00
O1215  O     0.70419   0.54581   0.87154   0.00000  Uiso   1.00
O1216  O     0.79580   0.95419   0.79513   0.00000  Uiso   1.00
O1217  O     0.70419   0.95419   0.79513   0.00000  Uiso   1.00
O1218  O     0.79580   0.54581   0.87154   0.00000  Uiso   1.00
O1219  O     0.79580   0.54581   0.79513   0.00000  Uiso   1.00
O1220  O     0.70419   0.95419   0.87154   0.00000  Uiso   1.00
O1221  O     0.95830   0.60886   0.79624   0.00000  Uiso   1.00
O1222  O     0.54171   0.89113   0.87044   0.00000  Uiso   1.00
O1223  O     0.63729   0.79558   0.78684   0.00000  Uiso   1.00
O1224  O     0.95419   0.79581   0.79513   0.00000  Uiso   1.00
O1225  O     0.86270   0.70444   0.87979   0.00000  Uiso   1.00
O1226  O     0.54167   0.60884   0.87034   0.00000  Uiso   1.00
O1227  O     0.95833   0.89116   0.79632   0.00000  Uiso   1.00
O1228  O     0.86266   0.79553   0.87971   0.00000  Uiso   1.00
O1229  O     0.63734   0.70448   0.78696   0.00000  Uiso   1.00
O1230  O     0.70829   0.85887   0.79622   0.00000  Uiso   1.00
O1231  O     0.79170   0.64114   0.87042   0.00000  Uiso   1.00
O1232  O     0.88730   0.54557   0.78687   0.00000  Uiso   1.00
O1233  O     0.61271   0.95442   0.87982   0.00000  Uiso   1.00
O1234  O     0.79167   0.85884   0.87034   0.00000  Uiso   1.00
O1235  O     0.95419   0.79581   0.87154   0.00000  Uiso   1.00
O1236  O     0.70833   0.64116   0.79633   0.00000  Uiso   1.00
O1237  O     0.61265   0.54552   0.87970   0.00000  Uiso   1.00
O1238  O     0.88734   0.95447   0.78696   0.00000  Uiso   1.00
O1239  O     0.54580   0.70419   0.79513   0.00000  Uiso   1.00
O1240  O     0.95419   0.70419   0.79513   0.00000  Uiso   1.00
O1241  O     0.54580   0.79581   0.87154   0.00000  Uiso   1.00
O1242  O     0.54580   0.79581   0.79513   0.00000  Uiso   1.00
O1243  O     0.95419   0.70419   0.87154   0.00000  Uiso   1.00
O1244  O     0.79580   0.95419   0.87154   0.00000  Uiso   1.00
Zn1245 Zn    0.50000   0.75000   0.88437   0.00000  Uiso   1.00
Zn1246 Zn    0.50000   0.75000   0.78229   0.00000  Uiso   1.00
Zn1247 Zn    0.75000   0.50000   0.88437   0.00000  Uiso   1.00
Zn1248 Zn    0.75000   0.50000   0.78229   0.00000  Uiso   1.00
loop_
_geom_bond_atom_site_label_1
_geom_bond_atom_site_label_2
_geom_bond_distance
_geom_bond_site_symmetry_2
_ccdc_geom_bond_type
C1     O69     1.290   .     A
C1     O95     1.286   .     A
C1     C30     1.414   .     S
C2     N169    1.371   .     A
C2     Cl42    1.756   .     S
C2     C523    1.424   .     S
C3     Cl43    1.756   .     S
C3     C938    1.424   1_454 S
C3     N66     1.371   .     S
C4     N169    1.371   .     A
C4     Cl44    1.756   .     S
C4     C560    1.424   .     S
C5     N68     1.371   .     A
C5     Cl45    1.756   .     S
C5     C840    1.424   1_554 S
C6     Cl46    1.756   .     S
C6     C423    1.424   .     S
C6     N275    1.371   .     S
C7     Cl47    1.756   .     S
C7     C838    1.424   1_554 S
C7     N276    1.371   .     S
C8     Cl48    1.756   .     S
C8     N67     1.371   .     A
C8     C421    1.424   .     S
C9     C20     1.395   .     A
C9     O77     1.382   .     S
C9     C28     1.397   .     A
C10    C27     1.397   .     A
C10    O78     1.382   .     S
C10    C21     1.395   .     A
C11    C18     1.395   .     A
C11    C27     1.399   .     A
C11    O79     1.381   .     S
C12    C29     1.414   .     S
C12    O91     1.286   .     A
C12    O80     1.290   .     A
C13    O81     1.381   .     S
C13    C28     1.399   .     A
C13    C19     1.395   .     A
C14    C30     1.397   .     A
C14    O82     1.382   .     S
C14    C25     1.395   .     A
C15    C29     1.397   .     A
C15    C26     1.395   .     A
C15    O83     1.382   .     S
C16    O84     1.381   .     S
C16    C29     1.399   .     A
C16    C22     1.395   .     A
C17    O85     1.381   .     S
C17    C30     1.399   .     A
C17    C24     1.395   .     A
C18    O86     1.382   .     S
C18    C32     1.397   .     A
C19    C31     1.397   .     A
C19    O87     1.382   .     S
C20    O88     1.381   .     S
C20    C31     1.399   .     A
C21    C32     1.399   .     A
C21    O89     1.381   .     S
C22    C35     1.397   .     A
C22    O90     1.382   .     S
C23    O99     1.286   .     A
C23    O96     1.290   .     A
C23    C28     1.414   .     S
C24    O92     1.382   .     S
C24    C33     1.397   .     A
C25    O93     1.381   .     S
C25    C33     1.399   .     A
C26    O94     1.381   .     S
C26    C35     1.399   .     A
C27    C34     1.414   .     S
C31    C39     1.414   .     S
C32    C38     1.414   .     S
C33    C37     1.414   .     S
C34    O97     1.290   .     A
C34    O98     1.286   .     A
C35    C36     1.414   .     S
C36    O100    1.290   .     A
C36    O72     1.286   .     A
C37    O70     1.290   .     A
C37    O71     1.286   .     A
C38    O76     1.286   .     A
C38    O73     1.290   .     A
C39    O74     1.290   .     A
C39    O75     1.286   .     A
C40    Cl41    1.756   .     S
C40    C940    1.424   1_454 S
C40    N66     1.371   .     S
H49    O77     0.990   .     S
H50    O87     0.990   .     S
H51    O88     0.991   .     S
H52    O89     0.991   .     S
H53    O90     0.990   .     S
H54    O92     0.990   .     S
H55    O93     0.991   .     S
H56    O94     0.991   .     S
H57    O78     0.990   .     S
H58    O79     0.991   .     S
H59    O81     0.991   .     S
H60    O82     0.990   .     S
H61    O83     0.990   .     S
H62    O84     0.991   .     S
H63    O85     0.991   .     S
H64    O86     0.990   .     S
N65    Zn101   2.030   .     S
N65    C106    1.371   1_455 A
N65    C108    1.371   1_455 A
N66    Zn102   2.030   .     S
N67    Zn103   2.030   .     S
N67    C214    1.371   1_545 S
N68    C215    1.371   1_545 S
N68    Zn104   2.030   .     S
O69    Zn101   1.991   .     S
O70    Zn104   1.991   .     S
O71    Zn103   1.989   .     S
O72    Zn312   1.989   .     S
O73    Zn312   1.991   .     S
O74    Zn103   1.991   .     S
O75    Zn104   1.989   .     S
O76    Zn311   1.989   .     S
O80    Zn206   1.991   .     S
O91    Zn205   1.989   .     S
O95    Zn102   1.989   .     S
O96    Zn206   1.991   .     S
O97    Zn101   1.991   .     S
O98    Zn102   1.989   .     S
O99    Zn205   1.989   .     S
O100   Zn311   1.991   .     S
Zn101  O195    1.989   1_455 S
Zn101  O203    1.989   1_455 S
Zn102  O200    1.991   1_455 S
Zn102  O184    1.991   1_455 S
Zn103  O284    1.989   1_545 S
Zn103  O308    1.991   1_545 S
Zn104  O281    1.991   1_545 S
Zn104  O280    1.989   1_545 S
C105   O173    1.290   .     A
C105   O199    1.286   .     A
C105   C134    1.414   .     S
C106   N65     1.371   1_655 A
C106   Cl146   1.756   .     S
C106   C419    1.424   1_655 S
C107   Cl147   1.756   .     S
C107   C834    1.424   1_554 S
C107   N170    1.371   .     S
C108   N65     1.371   1_655 A
C108   Cl148   1.756   .     S
C108   C456    1.424   1_655 S
C109   N172    1.371   .     A
C109   Cl149   1.756   .     S
C109   C944    1.424   1_554 S
C110   Cl150   1.756   .     S
C110   C527    1.424   .     S
C110   N379    1.371   .     S
C111   Cl151   1.756   .     S
C111   C942    1.424   1_554 S
C111   N380    1.371   .     S
C112   Cl152   1.756   .     S
C112   N171    1.371   .     A
C112   C525    1.424   .     S
C113   C124    1.395   .     A
C113   O181    1.382   .     S
C113   C132    1.397   .     A
C114   C131    1.397   .     A
C114   O182    1.382   .     S
C114   C125    1.395   .     A
C115   C122    1.395   .     A
C115   C131    1.399   .     A
C115   O183    1.381   .     S
C116   C133    1.414   .     S
C116   O195    1.286   .     A
C116   O184    1.290   .     A
C117   O185    1.381   .     S
C117   C132    1.399   .     A
C117   C123    1.395   .     A
C118   C134    1.397   .     A
C118   O186    1.382   .     S
C118   C129    1.395   .     A
C119   C133    1.397   .     A
C119   C130    1.395   .     A
C119   O187    1.382   .     S
C120   O188    1.381   .     S
C120   C133    1.399   .     A
C120   C126    1.395   .     A
C121   O189    1.381   .     S
C121   C134    1.399   .     A
C121   C128    1.395   .     A
C122   O190    1.382   .     S
C122   C136    1.397   .     A
C123   C135    1.397   .     A
C123   O191    1.382   .     S
C124   O192    1.381   .     S
C124   C135    1.399   .     A
C125   C136    1.399   .     A
C125   O193    1.381   .     S
C126   C139    1.397   .     A
C126   O194    1.382   .     S
C127   O203    1.286   .     A
C127   O200    1.290   .     A
C127   C132    1.414   .     S
C128   O196    1.382   .     S
C128   C137    1.397   .     A
C129   O197    1.381   .     S
C129   C137    1.399   .     A
C130   O198    1.381   .     S
C130   C139    1.399   .     A
C131   C138    1.414   .     S
C135   C143    1.414   .     S
C136   C142    1.414   .     S
C137   C141    1.414   .     S
C138   O201    1.290   .     A
C138   O202    1.286   .     A
C139   C140    1.414   .     S
C140   O204    1.290   .     A
C140   O176    1.286   .     A
C141   O174    1.290   .     A
C141   O175    1.286   .     A
C142   O180    1.286   .     A
C142   O177    1.290   .     A
C143   O178    1.290   .     A
C143   O179    1.286   .     A
C144   Cl145   1.756   .     S
C144   C836    1.424   1_554 S
C144   N170    1.371   .     S
H153   O181    0.990   .     S
H154   O191    0.990   .     S
H155   O192    0.991   .     S
H156   O193    0.991   .     S
H157   O194    0.990   .     S
H158   O196    0.990   .     S
H159   O197    0.991   .     S
H160   O198    0.991   .     S
H161   O182    0.990   .     S
H162   O183    0.991   .     S
H163   O185    0.991   .     S
H164   O186    0.990   .     S
H165   O187    0.990   .     S
H166   O188    0.991   .     S
H167   O189    0.991   .     S
H168   O190    0.990   .     S
N169   Zn205   2.030   .     S
N170   Zn206   2.030   .     S
N171   Zn207   2.030   .     S
N171   C318    1.371   1_545 S
N172   C319    1.371   1_545 S
N172   Zn208   2.030   .     S
O173   Zn205   1.991   .     S
O174   Zn208   1.991   .     S
O175   Zn207   1.989   .     S
O176   Zn416   1.989   .     S
O177   Zn416   1.991   .     S
O178   Zn207   1.991   .     S
O179   Zn208   1.989   .     S
O180   Zn415   1.989   .     S
O184   Zn102   1.991   1_655 S
O195   Zn101   1.989   1_655 S
O199   Zn206   1.989   .     S
O200   Zn102   1.991   1_655 S
O201   Zn205   1.991   .     S
O202   Zn206   1.989   .     S
O203   Zn101   1.989   1_655 S
O204   Zn415   1.991   .     S
Zn207  O388    1.989   1_545 S
Zn207  O412    1.991   1_545 S
Zn208  O385    1.991   1_545 S
Zn208  O384    1.989   1_545 S
C209   O277    1.290   .     A
C209   O303    1.286   .     A
C209   C238    1.414   .     S
C210   N377    1.371   .     A
C210   Cl250   1.756   .     S
C210   C731    1.424   .     S
C211   Cl251   1.756   .     S
C211   C1146   1.424   1_454 S
C211   N274    1.371   .     S
C212   N377    1.371   .     A
C212   Cl252   1.756   .     S
C212   C768    1.424   .     S
C213   N276    1.371   .     A
C213   Cl253   1.756   .     S
C213   C1048   1.424   1_554 S
C214   Cl254   1.756   .     S
C214   C631    1.424   .     S
C214   N67     1.371   1_565 S
C215   Cl255   1.756   .     S
C215   C1046   1.424   1_554 S
C215   N68     1.371   1_565 S
C216   Cl256   1.756   .     S
C216   N275    1.371   .     A
C216   C629    1.424   .     S
C217   C228    1.395   .     A
C217   O285    1.382   .     S
C217   C236    1.397   .     A
C218   C235    1.397   .     A
C218   O286    1.382   .     S
C218   C229    1.395   .     A
C219   C226    1.395   .     A
C219   C235    1.399   .     A
C219   O287    1.381   .     S
C220   C237    1.414   .     S
C220   O299    1.286   .     A
C220   O288    1.290   .     A
C221   O289    1.381   .     S
C221   C236    1.399   .     A
C221   C227    1.395   .     A
C222   C238    1.397   .     A
C222   O290    1.382   .     S
C222   C233    1.395   .     A
C223   C237    1.397   .     A
C223   C234    1.395   .     A
C223   O291    1.382   .     S
C224   O292    1.381   .     S
C224   C237    1.399   .     A
C224   C230    1.395   .     A
C225   O293    1.381   .     S
C225   C238    1.399   .     A
C225   C232    1.395   .     A
C226   O294    1.382   .     S
C226   C240    1.397   .     A
C227   C239    1.397   .     A
C227   O295    1.382   .     S
C228   O296    1.381   .     S
C228   C239    1.399   .     A
C229   C240    1.399   .     A
C229   O297    1.381   .     S
C230   C243    1.397   .     A
C230   O298    1.382   .     S
C231   O307    1.286   .     A
C231   O304    1.290   .     A
C231   C236    1.414   .     S
C232   O300    1.382   .     S
C232   C241    1.397   .     A
C233   O301    1.381   .     S
C233   C241    1.399   .     A
C234   O302    1.381   .     S
C234   C243    1.399   .     A
C235   C242    1.414   .     S
C239   C247    1.414   .     S
C240   C246    1.414   .     S
C241   C245    1.414   .     S
C242   O305    1.290   .     A
C242   O306    1.286   .     A
C243   C244    1.414   .     S
C244   O308    1.290   .     A
C244   O280    1.286   .     A
C245   O278    1.290   .     A
C245   O279    1.286   .     A
C246   O284    1.286   .     A
C246   O281    1.290   .     A
C247   O282    1.290   .     A
C247   O283    1.286   .     A
C248   Cl249   1.756   .     S
C248   C1148   1.424   1_454 S
C248   N274    1.371   .     S
H257   O285    0.990   .     S
H258   O295    0.990   .     S
H259   O296    0.991   .     S
H260   O297    0.991   .     S
H261   O298    0.990   .     S
H262   O300    0.990   .     S
H263   O301    0.991   .     S
H264   O302    0.991   .     S
H265   O286    0.990   .     S
H266   O287    0.991   .     S
H267   O289    0.991   .     S
H268   O290    0.990   .     S
H269   O291    0.990   .     S
H270   O292    0.991   .     S
H271   O293    0.991   .     S
H272   O294    0.990   .     S
N273   Zn309   2.030   .     S
N273   C314    1.371   1_455 A
N273   C316    1.371   1_455 A
N274   Zn310   2.030   .     S
N275   Zn311   2.030   .     S
N276   Zn312   2.030   .     S
O277   Zn309   1.991   .     S
O278   Zn312   1.991   .     S
O279   Zn311   1.989   .     S
O280   Zn104   1.989   1_565 S
O281   Zn104   1.991   1_565 S
O282   Zn311   1.991   .     S
O283   Zn312   1.989   .     S
O284   Zn103   1.989   1_565 S
O288   Zn414   1.991   .     S
O299   Zn413   1.989   .     S
O303   Zn310   1.989   .     S
O304   Zn414   1.991   .     S
O305   Zn309   1.991   .     S
O306   Zn310   1.989   .     S
O307   Zn413   1.989   .     S
O308   Zn103   1.991   1_565 S
Zn309  O403    1.989   1_455 S
Zn309  O411    1.989   1_455 S
Zn310  O408    1.991   1_455 S
Zn310  O392    1.991   1_455 S
C313   O381    1.290   .     A
C313   O407    1.286   .     A
C313   C342    1.414   .     S
C314   N273    1.371   1_655 A
C314   Cl354   1.756   .     S
C314   C627    1.424   1_655 S
C315   Cl355   1.756   .     S
C315   C1042   1.424   1_554 S
C315   N378    1.371   .     S
C316   N273    1.371   1_655 A
C316   Cl356   1.756   .     S
C316   C664    1.424   1_655 S
C317   N380    1.371   .     A
C317   Cl357   1.756   .     S
C317   C1152   1.424   1_554 S
C318   Cl358   1.756   .     S
C318   C735    1.424   .     S
C318   N171    1.371   1_565 S
C319   Cl359   1.756   .     S
C319   C1150   1.424   1_554 S
C319   N172    1.371   1_565 S
C320   Cl360   1.756   .     S
C320   N379    1.371   .     A
C320   C733    1.424   .     S
C321   C332    1.395   .     A
C321   O389    1.382   .     S
C321   C340    1.397   .     A
C322   C339    1.397   .     A
C322   O390    1.382   .     S
C322   C333    1.395   .     A
C323   C330    1.395   .     A
C323   C339    1.399   .     A
C323   O391    1.381   .     S
C324   C341    1.414   .     S
C324   O403    1.286   .     A
C324   O392    1.290   .     A
C325   O393    1.381   .     S
C325   C340    1.399   .     A
C325   C331    1.395   .     A
C326   C342    1.397   .     A
C326   O394    1.382   .     S
C326   C337    1.395   .     A
C327   C341    1.397   .     A
C327   C338    1.395   .     A
C327   O395    1.382   .     S
C328   O396    1.381   .     S
C328   C341    1.399   .     A
C328   C334    1.395   .     A
C329   O397    1.381   .     S
C329   C342    1.399   .     A
C329   C336    1.395   .     A
C330   O398    1.382   .     S
C330   C344    1.397   .     A
C331   C343    1.397   .     A
C331   O399    1.382   .     S
C332   O400    1.381   .     S
C332   C343    1.399   .     A
C333   C344    1.399   .     A
C333   O401    1.381   .     S
C334   C347    1.397   .     A
C334   O402    1.382   .     S
C335   O411    1.286   .     A
C335   O408    1.290   .     A
C335   C340    1.414   .     S
C336   O404    1.382   .     S
C336   C345    1.397   .     A
C337   O405    1.381   .     S
C337   C345    1.399   .     A
C338   O406    1.381   .     S
C338   C347    1.399   .     A
C339   C346    1.414   .     S
C343   C351    1.414   .     S
C344   C350    1.414   .     S
C345   C349    1.414   .     S
C346   O409    1.290   .     A
C346   O410    1.286   .     A
C347   C348    1.414   .     S
C348   O412    1.290   .     A
C348   O384    1.286   .     A
C349   O382    1.290   .     A
C349   O383    1.286   .     A
C350   O388    1.286   .     A
C350   O385    1.290   .     A
C351   O386    1.290   .     A
C351   O387    1.286   .     A
C352   Cl353   1.756   .     S
C352   C1044   1.424   1_554 S
C352   N378    1.371   .     S
H361   O389    0.990   .     S
H362   O399    0.990   .     S
H363   O400    0.991   .     S
H364   O401    0.991   .     S
H365   O402    0.990   .     S
H366   O404    0.990   .     S
H367   O405    0.991   .     S
H368   O406    0.991   .     S
H369   O390    0.990   .     S
H370   O391    0.991   .     S
H371   O393    0.991   .     S
H372   O394    0.990   .     S
H373   O395    0.990   .     S
H374   O396    0.991   .     S
H375   O397    0.991   .     S
H376   O398    0.990   .     S
N377   Zn413   2.030   .     S
N378   Zn414   2.030   .     S
N379   Zn415   2.030   .     S
N380   Zn416   2.030   .     S
O381   Zn413   1.991   .     S
O382   Zn416   1.991   .     S
O383   Zn415   1.989   .     S
O384   Zn208   1.989   1_565 S
O385   Zn208   1.991   1_565 S
O386   Zn415   1.991   .     S
O387   Zn416   1.989   .     S
O388   Zn207   1.989   1_565 S
O392   Zn310   1.991   1_655 S
O403   Zn309   1.989   1_655 S
O407   Zn414   1.989   .     S
O408   Zn310   1.991   1_655 S
O409   Zn413   1.991   .     S
O410   Zn414   1.989   .     S
O411   Zn309   1.989   1_655 S
O412   Zn207   1.991   1_565 S
C417   O485    1.290   .     A
C417   O511    1.286   .     A
C417   C446    1.414   .     S
C418   N585    1.371   .     A
C418   Cl458   1.756   .     S
C418   C939    1.424   .     S
C419   Cl459   1.756   .     S
C419   C106    1.424   1_455 S
C419   N482    1.371   .     S
C420   N585    1.371   .     A
C420   Cl460   1.756   .     S
C420   C976    1.424   .     S
C421   N484    1.371   .     A
C421   Cl461   1.756   .     S
C422   Cl462   1.756   .     S
C422   C839    1.424   .     S
C422   N691    1.371   .     S
C423   Cl463   1.756   .     S
C423   N692    1.371   .     S
C424   Cl464   1.756   .     S
C424   N483    1.371   .     A
C424   C837    1.424   .     S
C425   C436    1.395   .     A
C425   O493    1.382   .     S
C425   C444    1.397   .     A
C426   C443    1.397   .     A
C426   O494    1.382   .     S
C426   C437    1.395   .     A
C427   C434    1.395   .     A
C427   C443    1.399   .     A
C427   O495    1.381   .     S
C428   C445    1.414   .     S
C428   O507    1.286   .     A
C428   O496    1.290   .     A
C429   O497    1.381   .     S
C429   C444    1.399   .     A
C429   C435    1.395   .     A
C430   C446    1.397   .     A
C430   O498    1.382   .     S
C430   C441    1.395   .     A
C431   C445    1.397   .     A
C431   C442    1.395   .     A
C431   O499    1.382   .     S
C432   O500    1.381   .     S
C432   C445    1.399   .     A
C432   C438    1.395   .     A
C433   O501    1.381   .     S
C433   C446    1.399   .     A
C433   C440    1.395   .     A
C434   O502    1.382   .     S
C434   C448    1.397   .     A
C435   C447    1.397   .     A
C435   O503    1.382   .     S
C436   O504    1.381   .     S
C436   C447    1.399   .     A
C437   C448    1.399   .     A
C437   O505    1.381   .     S
C438   C451    1.397   .     A
C438   O506    1.382   .     S
C439   O515    1.286   .     A
C439   O512    1.290   .     A
C439   C444    1.414   .     S
C440   O508    1.382   .     S
C440   C449    1.397   .     A
C441   O509    1.381   .     S
C441   C449    1.399   .     A
C442   O510    1.381   .     S
C442   C451    1.399   .     A
C443   C450    1.414   .     S
C447   C455    1.414   .     S
C448   C454    1.414   .     S
C449   C453    1.414   .     S
C450   O513    1.290   .     A
C450   O514    1.286   .     A
C451   C452    1.414   .     S
C452   O516    1.290   .     A
C452   O488    1.286   .     A
C453   O486    1.290   .     A
C453   O487    1.286   .     A
C454   O492    1.286   .     A
C454   O489    1.290   .     A
C455   O490    1.290   .     A
C455   O491    1.286   .     A
C456   Cl457   1.756   .     S
C456   C108    1.424   1_455 S
C456   N482    1.371   .     S
H465   O493    0.990   .     S
H466   O503    0.990   .     S
H467   O504    0.991   .     S
H468   O505    0.991   .     S
H469   O506    0.990   .     S
H470   O508    0.990   .     S
H471   O509    0.991   .     S
H472   O510    0.991   .     S
H473   O494    0.990   .     S
H474   O495    0.991   .     S
H475   O497    0.991   .     S
H476   O498    0.990   .     S
H477   O499    0.990   .     S
H478   O500    0.991   .     S
H479   O501    0.991   .     S
H480   O502    0.990   .     S
N481   Zn517   2.030   .     S
N481   C522    1.371   1_455 A
N481   C524    1.371   1_455 A
N482   Zn518   2.030   .     S
N483   Zn519   2.030   .     S
N483   C630    1.371   1_545 S
N484   C631    1.371   1_545 S
N484   Zn520   2.030   .     S
O485   Zn517   1.991   .     S
O486   Zn520   1.991   .     S
O487   Zn519   1.989   .     S
O488   Zn728   1.989   .     S
O489   Zn728   1.991   .     S
O490   Zn519   1.991   .     S
O491   Zn520   1.989   .     S
O492   Zn727   1.989   .     S
O496   Zn622   1.991   .     S
O507   Zn621   1.989   .     S
O511   Zn518   1.989   .     S
O512   Zn622   1.991   .     S
O513   Zn517   1.991   .     S
O514   Zn518   1.989   .     S
O515   Zn621   1.989   .     S
O516   Zn727   1.991   .     S
Zn517  O611    1.989   1_455 S
Zn517  O619    1.989   1_455 S
Zn518  O616    1.991   1_455 S
Zn518  O600    1.991   1_455 S
Zn519  O700    1.989   1_545 S
Zn519  O724    1.991   1_545 S
Zn520  O697    1.991   1_545 S
Zn520  O696    1.989   1_545 S
C521   O589    1.290   .     A
C521   O615    1.286   .     A
C521   C550    1.414   .     S
C522   N481    1.371   1_655 A
C522   Cl562   1.756   .     S
C522   C835    1.424   1_655 S
C523   Cl563   1.756   .     S
C523   N586    1.371   .     S
C524   N481    1.371   1_655 A
C524   Cl564   1.756   .     S
C524   C872    1.424   1_655 S
C525   N588    1.371   .     A
C525   Cl565   1.756   .     S
C526   Cl566   1.756   .     S
C526   C943    1.424   .     S
C526   N795    1.371   .     S
C527   Cl567   1.756   .     S
C527   N796    1.371   .     S
C528   Cl568   1.756   .     S
C528   N587    1.371   .     A
C528   C941    1.424   .     S
C529   C540    1.395   .     A
C529   O597    1.382   .     S
C529   C548    1.397   .     A
C530   C547    1.397   .     A
C530   O598    1.382   .     S
C530   C541    1.395   .     A
C531   C538    1.395   .     A
C531   C547    1.399   .     A
C531   O599    1.381   .     S
C532   C549    1.414   .     S
C532   O611    1.286   .     A
C532   O600    1.290   .     A
C533   O601    1.381   .     S
C533   C548    1.399   .     A
C533   C539    1.395   .     A
C534   C550    1.397   .     A
C534   O602    1.382   .     S
C534   C545    1.395   .     A
C535   C549    1.397   .     A
C535   C546    1.395   .     A
C535   O603    1.382   .     S
C536   O604    1.381   .     S
C536   C549    1.399   .     A
C536   C542    1.395   .     A
C537   O605    1.381   .     S
C537   C550    1.399   .     A
C537   C544    1.395   .     A
C538   O606    1.382   .     S
C538   C552    1.397   .     A
C539   C551    1.397   .     A
C539   O607    1.382   .     S
C540   O608    1.381   .     S
C540   C551    1.399   .     A
C541   C552    1.399   .     A
C541   O609    1.381   .     S
C542   C555    1.397   .     A
C542   O610    1.382   .     S
C543   O619    1.286   .     A
C543   O616    1.290   .     A
C543   C548    1.414   .     S
C544   O612    1.382   .     S
C544   C553    1.397   .     A
C545   O613    1.381   .     S
C545   C553    1.399   .     A
C546   O614    1.381   .     S
C546   C555    1.399   .     A
C547   C554    1.414   .     S
C551   C559    1.414   .     S
C552   C558    1.414   .     S
C553   C557    1.414   .     S
C554   O617    1.290   .     A
C554   O618    1.286   .     A
C555   C556    1.414   .     S
C556   O620    1.290   .     A
C556   O592    1.286   .     A
C557   O590    1.290   .     A
C557   O591    1.286   .     A
C558   O596    1.286   .     A
C558   O593    1.290   .     A
C559   O594    1.290   .     A
C559   O595    1.286   .     A
C560   Cl561   1.756   .     S
C560   N586    1.371   .     S
H569   O597    0.990   .     S
H570   O607    0.990   .     S
H571   O608    0.991   .     S
H572   O609    0.991   .     S
H573   O610    0.990   .     S
H574   O612    0.990   .     S
H575   O613    0.991   .     S
H576   O614    0.991   .     S
H577   O598    0.990   .     S
H578   O599    0.991   .     S
H579   O601    0.991   .     S
H580   O602    0.990   .     S
H581   O603    0.990   .     S
H582   O604    0.991   .     S
H583   O605    0.991   .     S
H584   O606    0.990   .     S
N585   Zn621   2.030   .     S
N586   Zn622   2.030   .     S
N587   Zn623   2.030   .     S
N587   C734    1.371   1_545 S
N588   C735    1.371   1_545 S
N588   Zn624   2.030   .     S
O589   Zn621   1.991   .     S
O590   Zn624   1.991   .     S
O591   Zn623   1.989   .     S
O592   Zn832   1.989   .     S
O593   Zn832   1.991   .     S
O594   Zn623   1.991   .     S
O595   Zn624   1.989   .     S
O596   Zn831   1.989   .     S
O600   Zn518   1.991   1_655 S
O611   Zn517   1.989   1_655 S
O615   Zn622   1.989   .     S
O616   Zn518   1.991   1_655 S
O617   Zn621   1.991   .     S
O618   Zn622   1.989   .     S
O619   Zn517   1.989   1_655 S
O620   Zn831   1.991   .     S
Zn623  O804    1.989   1_545 S
Zn623  O828    1.991   1_545 S
Zn624  O801    1.991   1_545 S
Zn624  O800    1.989   1_545 S
C625   O693    1.290   .     A
C625   O719    1.286   .     A
C625   C654    1.414   .     S
C626   N793    1.371   .     A
C626   Cl666   1.756   .     S
C626   C1147   1.424   .     S
C627   Cl667   1.756   .     S
C627   C314    1.424   1_455 S
C627   N690    1.371   .     S
C628   N793    1.371   .     A
C628   Cl668   1.756   .     S
C628   C1184   1.424   .     S
C629   N692    1.371   .     A
C629   Cl669   1.756   .     S
C630   Cl670   1.756   .     S
C630   C1047   1.424   .     S
C630   N483    1.371   1_565 S
C631   Cl671   1.756   .     S
C631   N484    1.371   1_565 S
C632   Cl672   1.756   .     S
C632   N691    1.371   .     A
C632   C1045   1.424   .     S
C633   C644    1.395   .     A
C633   O701    1.382   .     S
C633   C652    1.397   .     A
C634   C651    1.397   .     A
C634   O702    1.382   .     S
C634   C645    1.395   .     A
C635   C642    1.395   .     A
C635   C651    1.399   .     A
C635   O703    1.381   .     S
C636   C653    1.414   .     S
C636   O715    1.286   .     A
C636   O704    1.290   .     A
C637   O705    1.381   .     S
C637   C652    1.399   .     A
C637   C643    1.395   .     A
C638   C654    1.397   .     A
C638   O706    1.382   .     S
C638   C649    1.395   .     A
C639   C653    1.397   .     A
C639   C650    1.395   .     A
C639   O707    1.382   .     S
C640   O708    1.381   .     S
C640   C653    1.399   .     A
C640   C646    1.395   .     A
C641   O709    1.381   .     S
C641   C654    1.399   .     A
C641   C648    1.395   .     A
C642   O710    1.382   .     S
C642   C656    1.397   .     A
C643   C655    1.397   .     A
C643   O711    1.382   .     S
C644   O712    1.381   .     S
C644   C655    1.399   .     A
C645   C656    1.399   .     A
C645   O713    1.381   .     S
C646   C659    1.397   .     A
C646   O714    1.382   .     S
C647   O723    1.286   .     A
C647   O720    1.290   .     A
C647   C652    1.414   .     S
C648   O716    1.382   .     S
C648   C657    1.397   .     A
C649   O717    1.381   .     S
C649   C657    1.399   .     A
C650   O718    1.381   .     S
C650   C659    1.399   .     A
C651   C658    1.414   .     S
C655   C663    1.414   .     S
C656   C662    1.414   .     S
C657   C661    1.414   .     S
C658   O721    1.290   .     A
C658   O722    1.286   .     A
C659   C660    1.414   .     S
C660   O724    1.290   .     A
C660   O696    1.286   .     A
C661   O694    1.290   .     A
C661   O695    1.286   .     A
C662   O700    1.286   .     A
C662   O697    1.290   .     A
C663   O698    1.290   .     A
C663   O699    1.286   .     A
C664   Cl665   1.756   .     S
C664   C316    1.424   1_455 S
C664   N690    1.371   .     S
H673   O701    0.990   .     S
H674   O711    0.990   .     S
H675   O712    0.991   .     S
H676   O713    0.991   .     S
H677   O714    0.990   .     S
H678   O716    0.990   .     S
H679   O717    0.991   .     S
H680   O718    0.991   .     S
H681   O702    0.990   .     S
H682   O703    0.991   .     S
H683   O705    0.991   .     S
H684   O706    0.990   .     S
H685   O707    0.990   .     S
H686   O708    0.991   .     S
H687   O709    0.991   .     S
H688   O710    0.990   .     S
N689   Zn725   2.030   .     S
N689   C730    1.371   1_455 A
N689   C732    1.371   1_455 A
N690   Zn726   2.030   .     S
N691   Zn727   2.030   .     S
N692   Zn728   2.030   .     S
O693   Zn725   1.991   .     S
O694   Zn728   1.991   .     S
O695   Zn727   1.989   .     S
O696   Zn520   1.989   1_565 S
O697   Zn520   1.991   1_565 S
O698   Zn727   1.991   .     S
O699   Zn728   1.989   .     S
O700   Zn519   1.989   1_565 S
O704   Zn830   1.991   .     S
O715   Zn829   1.989   .     S
O719   Zn726   1.989   .     S
O720   Zn830   1.991   .     S
O721   Zn725   1.991   .     S
O722   Zn726   1.989   .     S
O723   Zn829   1.989   .     S
O724   Zn519   1.991   1_565 S
Zn725  O819    1.989   1_455 S
Zn725  O827    1.989   1_455 S
Zn726  O824    1.991   1_455 S
Zn726  O808    1.991   1_455 S
C729   O797    1.290   .     A
C729   O823    1.286   .     A
C729   C758    1.414   .     S
C730   N689    1.371   1_655 A
C730   Cl770   1.756   .     S
C730   C1043   1.424   1_655 S
C731   Cl771   1.756   .     S
C731   N794    1.371   .     S
C732   N689    1.371   1_655 A
C732   Cl772   1.756   .     S
C732   C1080   1.424   1_655 S
C733   N796    1.371   .     A
C733   Cl773   1.756   .     S
C734   Cl774   1.756   .     S
C734   C1151   1.424   .     S
C734   N587    1.371   1_565 S
C735   Cl775   1.756   .     S
C735   N588    1.371   1_565 S
C736   Cl776   1.756   .     S
C736   N795    1.371   .     A
C736   C1149   1.424   .     S
C737   C748    1.395   .     A
C737   O805    1.382   .     S
C737   C756    1.397   .     A
C738   C755    1.397   .     A
C738   O806    1.382   .     S
C738   C749    1.395   .     A
C739   C746    1.395   .     A
C739   C755    1.399   .     A
C739   O807    1.381   .     S
C740   C757    1.414   .     S
C740   O819    1.286   .     A
C740   O808    1.290   .     A
C741   O809    1.381   .     S
C741   C756    1.399   .     A
C741   C747    1.395   .     A
C742   C758    1.397   .     A
C742   O810    1.382   .     S
C742   C753    1.395   .     A
C743   C757    1.397   .     A
C743   C754    1.395   .     A
C743   O811    1.382   .     S
C744   O812    1.381   .     S
C744   C757    1.399   .     A
C744   C750    1.395   .     A
C745   O813    1.381   .     S
C745   C758    1.399   .     A
C745   C752    1.395   .     A
C746   O814    1.382   .     S
C746   C760    1.397   .     A
C747   C759    1.397   .     A
C747   O815    1.382   .     S
C748   O816    1.381   .     S
C748   C759    1.399   .     A
C749   C760    1.399   .     A
C749   O817    1.381   .     S
C750   C763    1.397   .     A
C750   O818    1.382   .     S
C751   O827    1.286   .     A
C751   O824    1.290   .     A
C751   C756    1.414   .     S
C752   O820    1.382   .     S
C752   C761    1.397   .     A
C753   O821    1.381   .     S
C753   C761    1.399   .     A
C754   O822    1.381   .     S
C754   C763    1.399   .     A
C755   C762    1.414   .     S
C759   C767    1.414   .     S
C760   C766    1.414   .     S
C761   C765    1.414   .     S
C762   O825    1.290   .     A
C762   O826    1.286   .     A
C763   C764    1.414   .     S
C764   O828    1.290   .     A
C764   O800    1.286   .     A
C765   O798    1.290   .     A
C765   O799    1.286   .     A
C766   O804    1.286   .     A
C766   O801    1.290   .     A
C767   O802    1.290   .     A
C767   O803    1.286   .     A
C768   Cl769   1.756   .     S
C768   N794    1.371   .     S
H777   O805    0.990   .     S
H778   O815    0.990   .     S
H779   O816    0.991   .     S
H780   O817    0.991   .     S
H781   O818    0.990   .     S
H782   O820    0.990   .     S
H783   O821    0.991   .     S
H784   O822    0.991   .     S
H785   O806    0.990   .     S
H786   O807    0.991   .     S
H787   O809    0.991   .     S
H788   O810    0.990   .     S
H789   O811    0.990   .     S
H790   O812    0.991   .     S
H791   O813    0.991   .     S
H792   O814    0.990   .     S
N793   Zn829   2.030   .     S
N794   Zn830   2.030   .     S
N795   Zn831   2.030   .     S
N796   Zn832   2.030   .     S
O797   Zn829   1.991   .     S
O798   Zn832   1.991   .     S
O799   Zn831   1.989   .     S
O800   Zn624   1.989   1_565 S
O801   Zn624   1.991   1_565 S
O802   Zn831   1.991   .     S
O803   Zn832   1.989   .     S
O804   Zn623   1.989   1_565 S
O808   Zn726   1.991   1_655 S
O819   Zn725   1.989   1_655 S
O823   Zn830   1.989   .     S
O824   Zn726   1.991   1_655 S
O825   Zn829   1.991   .     S
O826   Zn830   1.989   .     S
O827   Zn725   1.989   1_655 S
O828   Zn623   1.991   1_565 S
C833   O901    1.290   .     A
C833   O927    1.286   .     A
C833   C862    1.414   .     S
C834   N1001   1.371   .     A
C834   Cl874   1.756   .     S
C834   C107    1.424   1_556 S
C835   Cl875   1.756   .     S
C835   C522    1.424   1_455 S
C835   N898    1.371   .     S
C836   N1001   1.371   .     A
C836   Cl876   1.756   .     S
C836   C144    1.424   1_556 S
C837   N900    1.371   .     A
C837   Cl877   1.756   .     S
C838   Cl878   1.756   .     S
C838   C7      1.424   1_556 S
C838   N1107   1.371   .     S
C839   Cl879   1.756   .     S
C839   N1108   1.371   .     S
C840   Cl880   1.756   .     S
C840   N899    1.371   .     A
C840   C5      1.424   1_556 S
C841   C852    1.395   .     A
C841   O909    1.382   .     S
C841   C860    1.397   .     A
C842   C859    1.397   .     A
C842   O910    1.382   .     S
C842   C853    1.395   .     A
C843   C850    1.395   .     A
C843   C859    1.399   .     A
C843   O911    1.381   .     S
C844   C861    1.414   .     S
C844   O923    1.286   .     A
C844   O912    1.290   .     A
C845   O913    1.381   .     S
C845   C860    1.399   .     A
C845   C851    1.395   .     A
C846   C862    1.397   .     A
C846   O914    1.382   .     S
C846   C857    1.395   .     A
C847   C861    1.397   .     A
C847   C858    1.395   .     A
C847   O915    1.382   .     S
C848   O916    1.381   .     S
C848   C861    1.399   .     A
C848   C854    1.395   .     A
C849   O917    1.381   .     S
C849   C862    1.399   .     A
C849   C856    1.395   .     A
C850   O918    1.382   .     S
C850   C864    1.397   .     A
C851   C863    1.397   .     A
C851   O919    1.382   .     S
C852   O920    1.381   .     S
C852   C863    1.399   .     A
C853   C864    1.399   .     A
C853   O921    1.381   .     S
C854   C867    1.397   .     A
C854   O922    1.382   .     S
C855   O931    1.286   .     A
C855   O928    1.290   .     A
C855   C860    1.414   .     S
C856   O924    1.382   .     S
C856   C865    1.397   .     A
C857   O925    1.381   .     S
C857   C865    1.399   .     A
C858   O926    1.381   .     S
C858   C867    1.399   .     A
C859   C866    1.414   .     S
C863   C871    1.414   .     S
C864   C870    1.414   .     S
C865   C869    1.414   .     S
C866   O929    1.290   .     A
C866   O930    1.286   .     A
C867   C868    1.414   .     S
C868   O932    1.290   .     A
C868   O904    1.286   .     A
C869   O902    1.290   .     A
C869   O903    1.286   .     A
C870   O908    1.286   .     A
C870   O905    1.290   .     A
C871   O906    1.290   .     A
C871   O907    1.286   .     A
C872   Cl873   1.756   .     S
C872   C524    1.424   1_455 S
C872   N898    1.371   .     S
H881   O909    0.990   .     S
H882   O919    0.990   .     S
H883   O920    0.991   .     S
H884   O921    0.991   .     S
H885   O922    0.990   .     S
H886   O924    0.990   .     S
H887   O925    0.991   .     S
H888   O926    0.991   .     S
H889   O910    0.990   .     S
H890   O911    0.991   .     S
H891   O913    0.991   .     S
H892   O914    0.990   .     S
H893   O915    0.990   .     S
H894   O916    0.991   .     S
H895   O917    0.991   .     S
H896   O918    0.990   .     S
N897   Zn933   2.030   .     S
N897   C938    1.371   1_455 A
N897   C940    1.371   1_455 A
N898   Zn934   2.030   .     S
N899   Zn935   2.030   .     S
N899   C1046   1.371   1_545 S
N900   C1047   1.371   1_545 S
N900   Zn936   2.030   .     S
O901   Zn933   1.991   .     S
O902   Zn936   1.991   .     S
O903   Zn935   1.989   .     S
O904   Zn1144  1.989   .     S
O905   Zn1144  1.991   .     S
O906   Zn935   1.991   .     S
O907   Zn936   1.989   .     S
O908   Zn1143  1.989   .     S
O912   Zn1038  1.991   .     S
O923   Zn1037  1.989   .     S
O927   Zn934   1.989   .     S
O928   Zn1038  1.991   .     S
O929   Zn933   1.991   .     S
O930   Zn934   1.989   .     S
O931   Zn1037  1.989   .     S
O932   Zn1143  1.991   .     S
Zn933  O1027   1.989   1_455 S
Zn933  O1035   1.989   1_455 S
Zn934  O1032   1.991   1_455 S
Zn934  O1016   1.991   1_455 S
Zn935  O1116   1.989   1_545 S
Zn935  O1140   1.991   1_545 S
Zn936  O1113   1.991   1_545 S
Zn936  O1112   1.989   1_545 S
C937   O1005   1.290   .     A
C937   O1031   1.286   .     A
C937   C966    1.414   .     S
C938   N897    1.371   1_655 A
C938   Cl978   1.756   .     S
C938   C3      1.424   1_656 S
C939   Cl979   1.756   .     S
C939   N1002   1.371   .     S
C940   N897    1.371   1_655 A
C940   Cl980   1.756   .     S
C940   C40     1.424   1_656 S
C941   N1004   1.371   .     A
C941   Cl981   1.756   .     S
C942   Cl982   1.756   .     S
C942   C111    1.424   1_556 S
C942   N1211   1.371   .     S
C943   Cl983   1.756   .     S
C943   N1212   1.371   .     S
C944   Cl984   1.756   .     S
C944   N1003   1.371   .     A
C944   C109    1.424   1_556 S
C945   C956    1.395   .     A
C945   O1013   1.382   .     S
C945   C964    1.397   .     A
C946   C963    1.397   .     A
C946   O1014   1.382   .     S
C946   C957    1.395   .     A
C947   C954    1.395   .     A
C947   C963    1.399   .     A
C947   O1015   1.381   .     S
C948   C965    1.414   .     S
C948   O1027   1.286   .     A
C948   O1016   1.290   .     A
C949   O1017   1.381   .     S
C949   C964    1.399   .     A
C949   C955    1.395   .     A
C950   C966    1.397   .     A
C950   O1018   1.382   .     S
C950   C961    1.395   .     A
C951   C965    1.397   .     A
C951   C962    1.395   .     A
C951   O1019   1.382   .     S
C952   O1020   1.381   .     S
C952   C965    1.399   .     A
C952   C958    1.395   .     A
C953   O1021   1.381   .     S
C953   C966    1.399   .     A
C953   C960    1.395   .     A
C954   O1022   1.382   .     S
C954   C968    1.397   .     A
C955   C967    1.397   .     A
C955   O1023   1.382   .     S
C956   O1024   1.381   .     S
C956   C967    1.399   .     A
C957   C968    1.399   .     A
C957   O1025   1.381   .     S
C958   C971    1.397   .     A
C958   O1026   1.382   .     S
C959   O1035   1.286   .     A
C959   O1032   1.290   .     A
C959   C964    1.414   .     S
C960   O1028   1.382   .     S
C960   C969    1.397   .     A
C961   O1029   1.381   .     S
C961   C969    1.399   .     A
C962   O1030   1.381   .     S
C962   C971    1.399   .     A
C963   C970    1.414   .     S
C967   C975    1.414   .     S
C968   C974    1.414   .     S
C969   C973    1.414   .     S
C970   O1033   1.290   .     A
C970   O1034   1.286   .     A
C971   C972    1.414   .     S
C972   O1036   1.290   .     A
C972   O1008   1.286   .     A
C973   O1006   1.290   .     A
C973   O1007   1.286   .     A
C974   O1012   1.286   .     A
C974   O1009   1.290   .     A
C975   O1010   1.290   .     A
C975   O1011   1.286   .     A
C976   Cl977   1.756   .     S
C976   N1002   1.371   .     S
H985   O1013   0.990   .     S
H986   O1023   0.990   .     S
H987   O1024   0.991   .     S
H988   O1025   0.991   .     S
H989   O1026   0.990   .     S
H990   O1028   0.990   .     S
H991   O1029   0.991   .     S
H992   O1030   0.991   .     S
H993   O1014   0.990   .     S
H994   O1015   0.991   .     S
H995   O1017   0.991   .     S
H996   O1018   0.990   .     S
H997   O1019   0.990   .     S
H998   O1020   0.991   .     S
H999   O1021   0.991   .     S
H1000  O1022   0.990   .     S
N1001  Zn1037  2.030   .     S
N1002  Zn1038  2.030   .     S
N1003  Zn1039  2.030   .     S
N1003  C1150   1.371   1_545 S
N1004  C1151   1.371   1_545 S
N1004  Zn1040  2.030   .     S
O1005  Zn1037  1.991   .     S
O1006  Zn1040  1.991   .     S
O1007  Zn1039  1.989   .     S
O1008  Zn1248  1.989   .     S
O1009  Zn1248  1.991   .     S
O1010  Zn1039  1.991   .     S
O1011  Zn1040  1.989   .     S
O1012  Zn1247  1.989   .     S
O1016  Zn934   1.991   1_655 S
O1027  Zn933   1.989   1_655 S
O1031  Zn1038  1.989   .     S
O1032  Zn934   1.991   1_655 S
O1033  Zn1037  1.991   .     S
O1034  Zn1038  1.989   .     S
O1035  Zn933   1.989   1_655 S
O1036  Zn1247  1.991   .     S
Zn1039 O1220   1.989   1_545 S
Zn1039 O1244   1.991   1_545 S
Zn1040 O1217   1.991   1_545 S
Zn1040 O1216   1.989   1_545 S
C1041  O1109   1.290   .     A
C1041  O1135   1.286   .     A
C1041  C1070   1.414   .     S
C1042  N1209   1.371   .     A
C1042  Cl1082  1.756   .     S
C1042  C315    1.424   1_556 S
C1043  Cl1083  1.756   .     S
C1043  C730    1.424   1_455 S
C1043  N1106   1.371   .     S
C1044  N1209   1.371   .     A
C1044  Cl1084  1.756   .     S
C1044  C352    1.424   1_556 S
C1045  N1108   1.371   .     A
C1045  Cl1085  1.756   .     S
C1046  Cl1086  1.756   .     S
C1046  C215    1.424   1_556 S
C1046  N899    1.371   1_565 S
C1047  Cl1087  1.756   .     S
C1047  N900    1.371   1_565 S
C1048  Cl1088  1.756   .     S
C1048  N1107   1.371   .     A
C1048  C213    1.424   1_556 S
C1049  C1060   1.395   .     A
C1049  O1117   1.382   .     S
C1049  C1068   1.397   .     A
C1050  C1067   1.397   .     A
C1050  O1118   1.382   .     S
C1050  C1061   1.395   .     A
C1051  C1058   1.395   .     A
C1051  C1067   1.399   .     A
C1051  O1119   1.381   .     S
C1052  C1069   1.414   .     S
C1052  O1131   1.286   .     A
C1052  O1120   1.290   .     A
C1053  O1121   1.381   .     S
C1053  C1068   1.399   .     A
C1053  C1059   1.395   .     A
C1054  C1070   1.397   .     A
C1054  O1122   1.382   .     S
C1054  C1065   1.395   .     A
C1055  C1069   1.397   .     A
C1055  C1066   1.395   .     A
C1055  O1123   1.382   .     S
C1056  O1124   1.381   .     S
C1056  C1069   1.399   .     A
C1056  C1062   1.395   .     A
C1057  O1125   1.381   .     S
C1057  C1070   1.399   .     A
C1057  C1064   1.395   .     A
C1058  O1126   1.382   .     S
C1058  C1072   1.397   .     A
C1059  C1071   1.397   .     A
C1059  O1127   1.382   .     S
C1060  O1128   1.381   .     S
C1060  C1071   1.399   .     A
C1061  C1072   1.399   .     A
C1061  O1129   1.381   .     S
C1062  C1075   1.397   .     A
C1062  O1130   1.382   .     S
C1063  O1139   1.286   .     A
C1063  O1136   1.290   .     A
C1063  C1068   1.414   .     S
C1064  O1132   1.382   .     S
C1064  C1073   1.397   .     A
C1065  O1133   1.381   .     S
C1065  C1073   1.399   .     A
C1066  O1134   1.381   .     S
C1066  C1075   1.399   .     A
C1067  C1074   1.414   .     S
C1071  C1079   1.414   .     S
C1072  C1078   1.414   .     S
C1073  C1077   1.414   .     S
C1074  O1137   1.290   .     A
C1074  O1138   1.286   .     A
C1075  C1076   1.414   .     S
C1076  O1140   1.290   .     A
C1076  O1112   1.286   .     A
C1077  O1110   1.290   .     A
C1077  O1111   1.286   .     A
C1078  O1116   1.286   .     A
C1078  O1113   1.290   .     A
C1079  O1114   1.290   .     A
C1079  O1115   1.286   .     A
C1080  Cl1081  1.756   .     S
C1080  C732    1.424   1_455 S
C1080  N1106   1.371   .     S
H1089  O1117   0.990   .     S
H1090  O1127   0.990   .     S
H1091  O1128   0.991   .     S
H1092  O1129   0.991   .     S
H1093  O1130   0.990   .     S
H1094  O1132   0.990   .     S
H1095  O1133   0.991   .     S
H1096  O1134   0.991   .     S
H1097  O1118   0.990   .     S
H1098  O1119   0.991   .     S
H1099  O1121   0.991   .     S
H1100  O1122   0.990   .     S
H1101  O1123   0.990   .     S
H1102  O1124   0.991   .     S
H1103  O1125   0.991   .     S
H1104  O1126   0.990   .     S
N1105  Zn1141  2.030   .     S
N1105  C1146   1.371   1_455 A
N1105  C1148   1.371   1_455 A
N1106  Zn1142  2.030   .     S
N1107  Zn1143  2.030   .     S
N1108  Zn1144  2.030   .     S
O1109  Zn1141  1.991   .     S
O1110  Zn1144  1.991   .     S
O1111  Zn1143  1.989   .     S
O1112  Zn936   1.989   1_565 S
O1113  Zn936   1.991   1_565 S
O1114  Zn1143  1.991   .     S
O1115  Zn1144  1.989   .     S
O1116  Zn935   1.989   1_565 S
O1120  Zn1246  1.991   .     S
O1131  Zn1245  1.989   .     S
O1135  Zn1142  1.989   .     S
O1136  Zn1246  1.991   .     S
O1137  Zn1141  1.991   .     S
O1138  Zn1142  1.989   .     S
O1139  Zn1245  1.989   .     S
O1140  Zn935   1.991   1_565 S
Zn1141 O1235   1.989   1_455 S
Zn1141 O1243   1.989   1_455 S
Zn1142 O1240   1.991   1_455 S
Zn1142 O1224   1.991   1_455 S
C1145  O1213   1.290   .     A
C1145  O1239   1.286   .     A
C1145  C1174   1.414   .     S
C1146  N1105   1.371   1_655 A
C1146  Cl1186  1.756   .     S
C1146  C211    1.424   1_656 S
C1147  Cl1187  1.756   .     S
C1147  N1210   1.371   .     S
C1148  N1105   1.371   1_655 A
C1148  Cl1188  1.756   .     S
C1148  C248    1.424   1_656 S
C1149  N1212   1.371   .     A
C1149  Cl1189  1.756   .     S
C1150  Cl1190  1.756   .     S
C1150  C319    1.424   1_556 S
C1150  N1003   1.371   1_565 S
C1151  Cl1191  1.756   .     S
C1151  N1004   1.371   1_565 S
C1152  Cl1192  1.756   .     S
C1152  N1211   1.371   .     A
C1152  C317    1.424   1_556 S
C1153  C1164   1.395   .     A
C1153  O1221   1.382   .     S
C1153  C1172   1.397   .     A
C1154  C1171   1.397   .     A
C1154  O1222   1.382   .     S
C1154  C1165   1.395   .     A
C1155  C1162   1.395   .     A
C1155  C1171   1.399   .     A
C1155  O1223   1.381   .     S
C1156  C1173   1.414   .     S
C1156  O1235   1.286   .     A
C1156  O1224   1.290   .     A
C1157  O1225   1.381   .     S
C1157  C1172   1.399   .     A
C1157  C1163   1.395   .     A
C1158  C1174   1.397   .     A
C1158  O1226   1.382   .     S
C1158  C1169   1.395   .     A
C1159  C1173   1.397   .     A
C1159  C1170   1.395   .     A
C1159  O1227   1.382   .     S
C1160  O1228   1.381   .     S
C1160  C1173   1.399   .     A
C1160  C1166   1.395   .     A
C1161  O1229   1.381   .     S
C1161  C1174   1.399   .     A
C1161  C1168   1.395   .     A
C1162  O1230   1.382   .     S
C1162  C1176   1.397   .     A
C1163  C1175   1.397   .     A
C1163  O1231   1.382   .     S
C1164  O1232   1.381   .     S
C1164  C1175   1.399   .     A
C1165  C1176   1.399   .     A
C1165  O1233   1.381   .     S
C1166  C1179   1.397   .     A
C1166  O1234   1.382   .     S
C1167  O1243   1.286   .     A
C1167  O1240   1.290   .     A
C1167  C1172   1.414   .     S
C1168  O1236   1.382   .     S
C1168  C1177   1.397   .     A
C1169  O1237   1.381   .     S
C1169  C1177   1.399   .     A
C1170  O1238   1.381   .     S
C1170  C1179   1.399   .     A
C1171  C1178   1.414   .     S
C1175  C1183   1.414   .     S
C1176  C1182   1.414   .     S
C1177  C1181   1.414   .     S
C1178  O1241   1.290   .     A
C1178  O1242   1.286   .     A
C1179  C1180   1.414   .     S
C1180  O1244   1.290   .     A
C1180  O1216   1.286   .     A
C1181  O1214   1.290   .     A
C1181  O1215   1.286   .     A
C1182  O1220   1.286   .     A
C1182  O1217   1.290   .     A
C1183  O1218   1.290   .     A
C1183  O1219   1.286   .     A
C1184  Cl1185  1.756   .     S
C1184  N1210   1.371   .     S
H1193  O1221   0.990   .     S
H1194  O1231   0.990   .     S
H1195  O1232   0.991   .     S
H1196  O1233   0.991   .     S
H1197  O1234   0.990   .     S
H1198  O1236   0.990   .     S
H1199  O1237   0.991   .     S
H1200  O1238   0.991   .     S
H1201  O1222   0.990   .     S
H1202  O1223   0.991   .     S
H1203  O1225   0.991   .     S
H1204  O1226   0.990   .     S
H1205  O1227   0.990   .     S
H1206  O1228   0.991   .     S
H1207  O1229   0.991   .     S
H1208  O1230   0.990   .     S
N1209  Zn1245  2.030   .     S
N1210  Zn1246  2.030   .     S
N1211  Zn1247  2.030   .     S
N1212  Zn1248  2.030   .     S
O1213  Zn1245  1.991   .     S
O1214  Zn1248  1.991   .     S
O1215  Zn1247  1.989   .     S
O1216  Zn1040  1.989   1_565 S
O1217  Zn1040  1.991   1_565 S
O1218  Zn1247  1.991   .     S
O1219  Zn1248  1.989   .     S
O1220  Zn1039  1.989   1_565 S
O1224  Zn1142  1.991   1_655 S
O1235  Zn1141  1.989   1_655 S
O1239  Zn1246  1.989   .     S
O1240  Zn1142  1.991   1_655 S
O1241  Zn1245  1.991   .     S
O1242  Zn1246  1.989   .     S
O1243  Zn1141  1.989   1_655 S
O1244  Zn1039  1.991   1_565 S
