data_str_m3_o1_o10_pcu_sym.97
_audit_creation_date              2020-01-03
_audit_creation_method            'Materials Studio'
_symmetry_space_group_name_H-M    'P1'
_symmetry_Int_Tables_number       1
_symmetry_cell_setting            triclinic
loop_
_symmetry_equiv_pos_as_xyz
  x,y,z
_cell_length_a                    25.9258
_cell_length_b                    32.1236
_cell_length_c                    29.8051
_cell_angle_alpha                 87.8347
_cell_angle_beta                  98.5340
_cell_angle_gamma                 91.3852
loop_
_atom_site_label
_atom_site_type_symbol
_atom_site_fract_x
_atom_site_fract_y
_atom_site_fract_z
_atom_site_U_iso_or_equiv
_atom_site_adp_type
_atom_site_occupancy
C1     C     0.16895   0.08674   0.16784   0.00000  Uiso   1.00
C2     C     0.16883   0.24666   0.16648   0.00000  Uiso   1.00
C3     C     0.06735   0.16604   0.15500   0.00000  Uiso   1.00
C4     C     0.26603   0.16726   0.17823   0.00000  Uiso   1.00
C5     C     0.01290   0.15921   0.15053   0.00000  Uiso   1.00
C6     C     0.32028   0.17443   0.18234   0.00000  Uiso   1.00
C7     C     0.19604   0.02376   0.13607   0.00000  Uiso   1.00
C8     C     0.15735   0.31003   0.20443   0.00000  Uiso   1.00
C9     C     0.19918   0.31432   0.13670   0.00000  Uiso   1.00
C10    C     0.16414   0.01901   0.20877   0.00000  Uiso   1.00
C11    C     0.17353   0.29096   0.16765   0.00000  Uiso   1.00
C12    C     0.17558   0.04268   0.17083   0.00000  Uiso   1.00
C13    C     0.19456   0.19572   0.02595   0.00000  Uiso   1.00
C14    C     0.13336   0.14086   0.30584   0.00000  Uiso   1.00
C15    C     0.19782   0.19391   0.31240   0.00000  Uiso   1.00
C16    C     0.13527   0.13909   0.02124   0.00000  Uiso   1.00
H17    H     0.21164   0.04208   0.10970   0.00000  Uiso   1.00
H18    H     0.14152   0.29224   0.23105   0.00000  Uiso   1.00
N19    N     0.16665   0.16666   0.28573   0.00000  Uiso   1.00
N20    N     0.16668   0.16668   0.04760   0.00000  Uiso   1.00
O21    O     0.16666   0.10558   0.20487   0.00000  Uiso   1.00
O22    O     0.16667   0.22775   0.12846   0.00000  Uiso   1.00
O23    O     0.16666   0.10559   0.12843   0.00000  Uiso   1.00
O24    O     0.16667   0.22774   0.20490   0.00000  Uiso   1.00
O25    O     0.09058   0.16666   0.19595   0.00000  Uiso   1.00
O26    O     0.24275   0.16667   0.13739   0.00000  Uiso   1.00
O27    O     0.09058   0.16667   0.11950   0.00000  Uiso   1.00
O28    O     0.24275   0.16666   0.21383   0.00000  Uiso   1.00
Zn29   Zn    0.16667   0.16666   0.21771   0.00000  Uiso   1.00
Zn30   Zn    0.16667   0.16667   0.11563   0.00000  Uiso   1.00
N31    N     0.32225   0.13123   0.11647   0.00000  Uiso   1.00
H32    H     0.00830   0.10286   0.12135   0.00000  Uiso   1.00
H33    H     0.32761   0.14377   0.08458   0.00000  Uiso   1.00
N34    N     0.00894   0.20464   0.21460   0.00000  Uiso   1.00
H35    H     0.03213   0.19000   0.24202   0.00000  Uiso   1.00
H36    H     0.03004   0.22774   0.19905   0.00000  Uiso   1.00
O37    O     0.22987   0.29604   0.10925   0.00000  Uiso   1.00
C38    C     0.28120   0.29167   0.13305   0.00000  Uiso   1.00
H39    H     0.29689   0.26208   0.12315   0.00000  Uiso   1.00
H40    H     0.28321   0.28919   0.17080   0.00000  Uiso   1.00
C41    C     0.31642   0.32752   0.11965   0.00000  Uiso   1.00
H42    H     0.31368   0.32959   0.08210   0.00000  Uiso   1.00
H43    H     0.30340   0.02406   0.13135   0.00000  Uiso   1.00
C44    C     0.03971   0.32099   0.14065   0.00000  Uiso   1.00
H45    H     0.04311   0.31901   0.17826   0.00000  Uiso   1.00
H46    H     0.06414   0.01435   0.13078   0.00000  Uiso   1.00
H47    H     0.05448   0.29191   0.12849   0.00000  Uiso   1.00
O48    O     0.15760   0.03713   0.24892   0.00000  Uiso   1.00
C49    C     0.19611   0.02287   0.28496   0.00000  Uiso   1.00
H50    H     0.21875   0.32878   0.27749   0.00000  Uiso   1.00
H51    H     0.17591   0.01243   0.31380   0.00000  Uiso   1.00
C52    C     0.23434   0.05829   0.30085   0.00000  Uiso   1.00
H53    H     0.21266   0.08712   0.30372   0.00000  Uiso   1.00
H54    H     0.25537   0.04977   0.00179   0.00000  Uiso   1.00
C55    C     0.27459   0.06672   0.26887   0.00000  Uiso   1.00
H56    H     0.29958   0.03916   0.26857   0.00000  Uiso   1.00
H57    H     0.29928   0.09408   0.28044   0.00000  Uiso   1.00
H58    H     0.25576   0.07395   0.23382   0.00000  Uiso   1.00
N59    N     0.21501   0.23179   0.04871   0.00000  Uiso   1.00
H60    H     0.23605   0.22224   0.07967   0.00000  Uiso   1.00
H61    H     0.18310   0.24940   0.05350   0.00000  Uiso   1.00
N62    N     0.09410   0.11849   0.27698   0.00000  Uiso   1.00
H63    H     0.05770   0.12514   0.28571   0.00000  Uiso   1.00
H64    H     0.10040   0.08665   0.28138   0.00000  Uiso   1.00
O65    O     0.22483   0.22535   0.29250   0.00000  Uiso   1.00
C66    C     0.27814   0.21534   0.29564   0.00000  Uiso   1.00
H67    H     0.29248   0.23360   0.26770   0.00000  Uiso   1.00
H68    H     0.28431   0.18165   0.29089   0.00000  Uiso   1.00
C69    C     0.31118   0.22881   0.00665   0.00000  Uiso   1.00
H70    H     0.30103   0.26094   0.01422   0.00000  Uiso   1.00
H71    H     0.30363   0.20718   0.03490   0.00000  Uiso   1.00
C72    C     0.03609   0.22738   0.00373   0.00000  Uiso   1.00
H73    H     0.04696   0.19527   0.33023   0.00000  Uiso   1.00
H74    H     0.05891   0.23673   0.03646   0.00000  Uiso   1.00
H75    H     0.04622   0.24902   0.30961   0.00000  Uiso   1.00
O76    O     0.09900   0.11534   0.04133   0.00000  Uiso   1.00
C77    C     0.10785   0.07213   0.03926   0.00000  Uiso   1.00
H78    H     0.12298   0.05981   0.07355   0.00000  Uiso   1.00
H79    H     0.13686   0.06423   0.01706   0.00000  Uiso   1.00
C80    C     0.05601   0.04941   0.02488   0.00000  Uiso   1.00
H81    H     0.02978   0.05385   0.05053   0.00000  Uiso   1.00
H82    H     0.03702   0.06279   0.32545   0.00000  Uiso   1.00
C83    C     0.06344   0.00299   0.01974   0.00000  Uiso   1.00
H84    H     0.08645   0.33133   0.32523   0.00000  Uiso   1.00
H85    H     0.02471   0.32092   0.01108   0.00000  Uiso   1.00
H86    H     0.08369   0.32192   0.05182   0.00000  Uiso   1.00
C87    C     0.50228   0.08674   0.16784   0.00000  Uiso   1.00
C88    C     0.50217   0.24666   0.16648   0.00000  Uiso   1.00
C89    C     0.40068   0.16604   0.15500   0.00000  Uiso   1.00
C90    C     0.59937   0.16726   0.17823   0.00000  Uiso   1.00
C91    C     0.34623   0.15921   0.15053   0.00000  Uiso   1.00
C92    C     0.65361   0.17443   0.18234   0.00000  Uiso   1.00
C93    C     0.52938   0.02376   0.13607   0.00000  Uiso   1.00
C94    C     0.49068   0.31003   0.20443   0.00000  Uiso   1.00
C95    C     0.53251   0.31432   0.13670   0.00000  Uiso   1.00
C96    C     0.49747   0.01901   0.20877   0.00000  Uiso   1.00
C97    C     0.50686   0.29096   0.16765   0.00000  Uiso   1.00
C98    C     0.50891   0.04268   0.17083   0.00000  Uiso   1.00
C99    C     0.52790   0.19572   0.02595   0.00000  Uiso   1.00
C100   C     0.46670   0.14086   0.30584   0.00000  Uiso   1.00
C101   C     0.53115   0.19391   0.31240   0.00000  Uiso   1.00
C102   C     0.46860   0.13909   0.02124   0.00000  Uiso   1.00
H103   H     0.54497   0.04208   0.10970   0.00000  Uiso   1.00
H104   H     0.47485   0.29224   0.23105   0.00000  Uiso   1.00
N105   N     0.49999   0.16666   0.28573   0.00000  Uiso   1.00
N106   N     0.50001   0.16668   0.04760   0.00000  Uiso   1.00
O107   O     0.50000   0.10558   0.20487   0.00000  Uiso   1.00
O108   O     0.50000   0.22775   0.12846   0.00000  Uiso   1.00
O109   O     0.50000   0.10559   0.12843   0.00000  Uiso   1.00
O110   O     0.50000   0.22774   0.20490   0.00000  Uiso   1.00
O111   O     0.42392   0.16666   0.19595   0.00000  Uiso   1.00
O112   O     0.57608   0.16667   0.13739   0.00000  Uiso   1.00
O113   O     0.42392   0.16667   0.11950   0.00000  Uiso   1.00
O114   O     0.57608   0.16666   0.21383   0.00000  Uiso   1.00
Zn115  Zn    0.50000   0.16666   0.21771   0.00000  Uiso   1.00
Zn116  Zn    0.50000   0.16667   0.11563   0.00000  Uiso   1.00
N117   N     0.65559   0.13123   0.11647   0.00000  Uiso   1.00
H118   H     0.34163   0.10286   0.12135   0.00000  Uiso   1.00
H119   H     0.66094   0.14377   0.08458   0.00000  Uiso   1.00
N120   N     0.34227   0.20464   0.21460   0.00000  Uiso   1.00
H121   H     0.36546   0.19000   0.24202   0.00000  Uiso   1.00
H122   H     0.36338   0.22774   0.19905   0.00000  Uiso   1.00
O123   O     0.56321   0.29604   0.10925   0.00000  Uiso   1.00
C124   C     0.61453   0.29167   0.13305   0.00000  Uiso   1.00
H125   H     0.63023   0.26208   0.12315   0.00000  Uiso   1.00
H126   H     0.61654   0.28919   0.17080   0.00000  Uiso   1.00
C127   C     0.64975   0.32752   0.11965   0.00000  Uiso   1.00
H128   H     0.64702   0.32959   0.08210   0.00000  Uiso   1.00
H129   H     0.63673   0.02406   0.13135   0.00000  Uiso   1.00
C130   C     0.37305   0.32099   0.14065   0.00000  Uiso   1.00
H131   H     0.37644   0.31901   0.17826   0.00000  Uiso   1.00
H132   H     0.39747   0.01435   0.13078   0.00000  Uiso   1.00
H133   H     0.38781   0.29191   0.12849   0.00000  Uiso   1.00
O134   O     0.49093   0.03713   0.24892   0.00000  Uiso   1.00
C135   C     0.52945   0.02287   0.28496   0.00000  Uiso   1.00
H136   H     0.55208   0.32878   0.27749   0.00000  Uiso   1.00
H137   H     0.50924   0.01243   0.31380   0.00000  Uiso   1.00
C138   C     0.56767   0.05829   0.30085   0.00000  Uiso   1.00
H139   H     0.54599   0.08712   0.30372   0.00000  Uiso   1.00
H140   H     0.58870   0.04977   0.00179   0.00000  Uiso   1.00
C141   C     0.60792   0.06672   0.26887   0.00000  Uiso   1.00
H142   H     0.63292   0.03916   0.26857   0.00000  Uiso   1.00
H143   H     0.63261   0.09408   0.28044   0.00000  Uiso   1.00
H144   H     0.58909   0.07395   0.23382   0.00000  Uiso   1.00
N145   N     0.54835   0.23179   0.04871   0.00000  Uiso   1.00
H146   H     0.56938   0.22224   0.07967   0.00000  Uiso   1.00
H147   H     0.51643   0.24940   0.05350   0.00000  Uiso   1.00
N148   N     0.42743   0.11849   0.27698   0.00000  Uiso   1.00
H149   H     0.39103   0.12514   0.28571   0.00000  Uiso   1.00
H150   H     0.43374   0.08665   0.28138   0.00000  Uiso   1.00
O151   O     0.55817   0.22535   0.29250   0.00000  Uiso   1.00
C152   C     0.61148   0.21534   0.29564   0.00000  Uiso   1.00
H153   H     0.62582   0.23360   0.26770   0.00000  Uiso   1.00
H154   H     0.61765   0.18165   0.29089   0.00000  Uiso   1.00
C155   C     0.64451   0.22881   0.00665   0.00000  Uiso   1.00
H156   H     0.63436   0.26094   0.01422   0.00000  Uiso   1.00
H157   H     0.63697   0.20718   0.03490   0.00000  Uiso   1.00
C158   C     0.36942   0.22738   0.00373   0.00000  Uiso   1.00
H159   H     0.38030   0.19527   0.33023   0.00000  Uiso   1.00
H160   H     0.39224   0.23673   0.03646   0.00000  Uiso   1.00
H161   H     0.37956   0.24902   0.30961   0.00000  Uiso   1.00
O162   O     0.43233   0.11534   0.04133   0.00000  Uiso   1.00
C163   C     0.44119   0.07213   0.03926   0.00000  Uiso   1.00
H164   H     0.45631   0.05981   0.07355   0.00000  Uiso   1.00
H165   H     0.47019   0.06423   0.01706   0.00000  Uiso   1.00
C166   C     0.38934   0.04941   0.02488   0.00000  Uiso   1.00
H167   H     0.36311   0.05385   0.05053   0.00000  Uiso   1.00
H168   H     0.37035   0.06279   0.32545   0.00000  Uiso   1.00
C169   C     0.39678   0.00299   0.01974   0.00000  Uiso   1.00
H170   H     0.41978   0.33133   0.32523   0.00000  Uiso   1.00
H171   H     0.35804   0.32092   0.01108   0.00000  Uiso   1.00
H172   H     0.41703   0.32192   0.05182   0.00000  Uiso   1.00
C173   C     0.83561   0.08674   0.16784   0.00000  Uiso   1.00
C174   C     0.83550   0.24666   0.16648   0.00000  Uiso   1.00
C175   C     0.73401   0.16604   0.15500   0.00000  Uiso   1.00
C176   C     0.93270   0.16726   0.17823   0.00000  Uiso   1.00
C177   C     0.67956   0.15921   0.15053   0.00000  Uiso   1.00
C178   C     0.98695   0.17443   0.18234   0.00000  Uiso   1.00
C179   C     0.86271   0.02376   0.13607   0.00000  Uiso   1.00
C180   C     0.82402   0.31003   0.20443   0.00000  Uiso   1.00
C181   C     0.86585   0.31432   0.13670   0.00000  Uiso   1.00
C182   C     0.83080   0.01901   0.20877   0.00000  Uiso   1.00
C183   C     0.84019   0.29096   0.16765   0.00000  Uiso   1.00
C184   C     0.84225   0.04268   0.17083   0.00000  Uiso   1.00
C185   C     0.86123   0.19572   0.02595   0.00000  Uiso   1.00
C186   C     0.80003   0.14086   0.30584   0.00000  Uiso   1.00
C187   C     0.86449   0.19391   0.31240   0.00000  Uiso   1.00
C188   C     0.80194   0.13909   0.02124   0.00000  Uiso   1.00
H189   H     0.87831   0.04208   0.10970   0.00000  Uiso   1.00
H190   H     0.80819   0.29224   0.23105   0.00000  Uiso   1.00
N191   N     0.83332   0.16666   0.28573   0.00000  Uiso   1.00
N192   N     0.83335   0.16668   0.04760   0.00000  Uiso   1.00
O193   O     0.83333   0.10558   0.20487   0.00000  Uiso   1.00
O194   O     0.83334   0.22775   0.12846   0.00000  Uiso   1.00
O195   O     0.83333   0.10559   0.12843   0.00000  Uiso   1.00
O196   O     0.83334   0.22774   0.20490   0.00000  Uiso   1.00
O197   O     0.75725   0.16666   0.19595   0.00000  Uiso   1.00
O198   O     0.90942   0.16667   0.13739   0.00000  Uiso   1.00
O199   O     0.75725   0.16667   0.11950   0.00000  Uiso   1.00
O200   O     0.90942   0.16666   0.21383   0.00000  Uiso   1.00
Zn201  Zn    0.83333   0.16666   0.21771   0.00000  Uiso   1.00
Zn202  Zn    0.83333   0.16667   0.11563   0.00000  Uiso   1.00
N203   N     0.98892   0.13123   0.11647   0.00000  Uiso   1.00
H204   H     0.67497   0.10286   0.12135   0.00000  Uiso   1.00
H205   H     0.99428   0.14377   0.08458   0.00000  Uiso   1.00
N206   N     0.67561   0.20464   0.21460   0.00000  Uiso   1.00
H207   H     0.69880   0.19000   0.24202   0.00000  Uiso   1.00
H208   H     0.69671   0.22774   0.19905   0.00000  Uiso   1.00
O209   O     0.89654   0.29604   0.10925   0.00000  Uiso   1.00
C210   C     0.94787   0.29167   0.13305   0.00000  Uiso   1.00
H211   H     0.96356   0.26208   0.12315   0.00000  Uiso   1.00
H212   H     0.94988   0.28919   0.17080   0.00000  Uiso   1.00
C213   C     0.98308   0.32752   0.11965   0.00000  Uiso   1.00
H214   H     0.98035   0.32959   0.08210   0.00000  Uiso   1.00
H215   H     0.97007   0.02406   0.13135   0.00000  Uiso   1.00
C216   C     0.70638   0.32099   0.14065   0.00000  Uiso   1.00
H217   H     0.70977   0.31901   0.17826   0.00000  Uiso   1.00
H218   H     0.73081   0.01435   0.13078   0.00000  Uiso   1.00
H219   H     0.72114   0.29191   0.12849   0.00000  Uiso   1.00
O220   O     0.82427   0.03713   0.24892   0.00000  Uiso   1.00
C221   C     0.86278   0.02287   0.28496   0.00000  Uiso   1.00
H222   H     0.88541   0.32878   0.27749   0.00000  Uiso   1.00
H223   H     0.84258   0.01243   0.31380   0.00000  Uiso   1.00
C224   C     0.90101   0.05829   0.30085   0.00000  Uiso   1.00
H225   H     0.87933   0.08712   0.30372   0.00000  Uiso   1.00
H226   H     0.92203   0.04977   0.00179   0.00000  Uiso   1.00
C227   C     0.94126   0.06672   0.26887   0.00000  Uiso   1.00
H228   H     0.96625   0.03916   0.26857   0.00000  Uiso   1.00
H229   H     0.96595   0.09408   0.28044   0.00000  Uiso   1.00
H230   H     0.92242   0.07395   0.23382   0.00000  Uiso   1.00
N231   N     0.88168   0.23179   0.04871   0.00000  Uiso   1.00
H232   H     0.90272   0.22224   0.07967   0.00000  Uiso   1.00
H233   H     0.84976   0.24940   0.05350   0.00000  Uiso   1.00
N234   N     0.76077   0.11849   0.27698   0.00000  Uiso   1.00
H235   H     0.72436   0.12514   0.28571   0.00000  Uiso   1.00
H236   H     0.76707   0.08665   0.28138   0.00000  Uiso   1.00
O237   O     0.89150   0.22535   0.29250   0.00000  Uiso   1.00
C238   C     0.94481   0.21534   0.29564   0.00000  Uiso   1.00
H239   H     0.95915   0.23360   0.26770   0.00000  Uiso   1.00
H240   H     0.95098   0.18165   0.29089   0.00000  Uiso   1.00
C241   C     0.97785   0.22881   0.00665   0.00000  Uiso   1.00
H242   H     0.96769   0.26094   0.01422   0.00000  Uiso   1.00
H243   H     0.97030   0.20718   0.03490   0.00000  Uiso   1.00
C244   C     0.70276   0.22738   0.00373   0.00000  Uiso   1.00
H245   H     0.71363   0.19527   0.33023   0.00000  Uiso   1.00
H246   H     0.72557   0.23673   0.03646   0.00000  Uiso   1.00
H247   H     0.71289   0.24902   0.30961   0.00000  Uiso   1.00
O248   O     0.76567   0.11534   0.04133   0.00000  Uiso   1.00
C249   C     0.77452   0.07213   0.03926   0.00000  Uiso   1.00
H250   H     0.78965   0.05981   0.07355   0.00000  Uiso   1.00
H251   H     0.80353   0.06423   0.01706   0.00000  Uiso   1.00
C252   C     0.72268   0.04941   0.02488   0.00000  Uiso   1.00
H253   H     0.69645   0.05385   0.05053   0.00000  Uiso   1.00
H254   H     0.70369   0.06279   0.32545   0.00000  Uiso   1.00
C255   C     0.73011   0.00299   0.01974   0.00000  Uiso   1.00
H256   H     0.75311   0.33133   0.32523   0.00000  Uiso   1.00
H257   H     0.69137   0.32092   0.01108   0.00000  Uiso   1.00
H258   H     0.75036   0.32192   0.05182   0.00000  Uiso   1.00
C259   C     0.16895   0.42007   0.16784   0.00000  Uiso   1.00
C260   C     0.16883   0.57999   0.16648   0.00000  Uiso   1.00
C261   C     0.06735   0.49937   0.15500   0.00000  Uiso   1.00
C262   C     0.26603   0.50059   0.17823   0.00000  Uiso   1.00
C263   C     0.01290   0.49254   0.15053   0.00000  Uiso   1.00
C264   C     0.32028   0.50777   0.18234   0.00000  Uiso   1.00
C265   C     0.19604   0.35709   0.13607   0.00000  Uiso   1.00
C266   C     0.15735   0.64337   0.20443   0.00000  Uiso   1.00
C267   C     0.19918   0.64765   0.13670   0.00000  Uiso   1.00
C268   C     0.16414   0.35235   0.20877   0.00000  Uiso   1.00
C269   C     0.17353   0.62430   0.16765   0.00000  Uiso   1.00
C270   C     0.17558   0.37601   0.17083   0.00000  Uiso   1.00
C271   C     0.19456   0.52905   0.02595   0.00000  Uiso   1.00
C272   C     0.13336   0.47419   0.30584   0.00000  Uiso   1.00
C273   C     0.19782   0.52724   0.31240   0.00000  Uiso   1.00
C274   C     0.13527   0.47242   0.02124   0.00000  Uiso   1.00
H275   H     0.21164   0.37541   0.10970   0.00000  Uiso   1.00
H276   H     0.14152   0.62557   0.23105   0.00000  Uiso   1.00
N277   N     0.16665   0.49999   0.28573   0.00000  Uiso   1.00
N278   N     0.16668   0.50001   0.04760   0.00000  Uiso   1.00
O279   O     0.16666   0.43892   0.20487   0.00000  Uiso   1.00
O280   O     0.16667   0.56108   0.12846   0.00000  Uiso   1.00
O281   O     0.16666   0.43893   0.12843   0.00000  Uiso   1.00
O282   O     0.16667   0.56107   0.20490   0.00000  Uiso   1.00
O283   O     0.09058   0.50000   0.19595   0.00000  Uiso   1.00
O284   O     0.24275   0.50000   0.13739   0.00000  Uiso   1.00
O285   O     0.09058   0.50000   0.11950   0.00000  Uiso   1.00
O286   O     0.24275   0.50000   0.21383   0.00000  Uiso   1.00
Zn287  Zn    0.16667   0.49999   0.21771   0.00000  Uiso   1.00
Zn288  Zn    0.16667   0.50001   0.11563   0.00000  Uiso   1.00
N289   N     0.32225   0.46456   0.11647   0.00000  Uiso   1.00
H290   H     0.00830   0.43620   0.12135   0.00000  Uiso   1.00
H291   H     0.32761   0.47711   0.08458   0.00000  Uiso   1.00
N292   N     0.00894   0.53797   0.21460   0.00000  Uiso   1.00
H293   H     0.03213   0.52334   0.24202   0.00000  Uiso   1.00
H294   H     0.03004   0.56108   0.19905   0.00000  Uiso   1.00
O295   O     0.22987   0.62937   0.10925   0.00000  Uiso   1.00
C296   C     0.28120   0.62501   0.13305   0.00000  Uiso   1.00
H297   H     0.29689   0.59541   0.12315   0.00000  Uiso   1.00
H298   H     0.28321   0.62252   0.17080   0.00000  Uiso   1.00
C299   C     0.31642   0.66085   0.11965   0.00000  Uiso   1.00
H300   H     0.31368   0.66292   0.08210   0.00000  Uiso   1.00
H301   H     0.30340   0.35739   0.13135   0.00000  Uiso   1.00
C302   C     0.03971   0.65432   0.14065   0.00000  Uiso   1.00
H303   H     0.04311   0.65234   0.17826   0.00000  Uiso   1.00
H304   H     0.06414   0.34768   0.13078   0.00000  Uiso   1.00
H305   H     0.05448   0.62524   0.12849   0.00000  Uiso   1.00
O306   O     0.15760   0.37046   0.24892   0.00000  Uiso   1.00
C307   C     0.19611   0.35620   0.28496   0.00000  Uiso   1.00
H308   H     0.21875   0.66212   0.27749   0.00000  Uiso   1.00
H309   H     0.17591   0.34576   0.31380   0.00000  Uiso   1.00
C310   C     0.23434   0.39162   0.30085   0.00000  Uiso   1.00
H311   H     0.21266   0.42046   0.30372   0.00000  Uiso   1.00
H312   H     0.25537   0.38311   0.00179   0.00000  Uiso   1.00
C313   C     0.27459   0.40006   0.26887   0.00000  Uiso   1.00
H314   H     0.29958   0.37250   0.26857   0.00000  Uiso   1.00
H315   H     0.29928   0.42742   0.28044   0.00000  Uiso   1.00
H316   H     0.25576   0.40728   0.23382   0.00000  Uiso   1.00
N317   N     0.21501   0.56512   0.04871   0.00000  Uiso   1.00
H318   H     0.23605   0.55558   0.07967   0.00000  Uiso   1.00
H319   H     0.18310   0.58274   0.05350   0.00000  Uiso   1.00
N320   N     0.09410   0.45182   0.27698   0.00000  Uiso   1.00
H321   H     0.05770   0.45847   0.28571   0.00000  Uiso   1.00
H322   H     0.10040   0.41998   0.28138   0.00000  Uiso   1.00
O323   O     0.22483   0.55869   0.29250   0.00000  Uiso   1.00
C324   C     0.27814   0.54867   0.29564   0.00000  Uiso   1.00
H325   H     0.29248   0.56694   0.26770   0.00000  Uiso   1.00
H326   H     0.28431   0.51499   0.29089   0.00000  Uiso   1.00
C327   C     0.31118   0.56215   0.00665   0.00000  Uiso   1.00
H328   H     0.30103   0.59427   0.01422   0.00000  Uiso   1.00
H329   H     0.30363   0.54051   0.03490   0.00000  Uiso   1.00
C330   C     0.03609   0.56071   0.00373   0.00000  Uiso   1.00
H331   H     0.04696   0.52861   0.33023   0.00000  Uiso   1.00
H332   H     0.05891   0.57006   0.03646   0.00000  Uiso   1.00
H333   H     0.04622   0.58235   0.30961   0.00000  Uiso   1.00
O334   O     0.09900   0.44867   0.04133   0.00000  Uiso   1.00
C335   C     0.10785   0.40547   0.03926   0.00000  Uiso   1.00
H336   H     0.12298   0.39314   0.07355   0.00000  Uiso   1.00
H337   H     0.13686   0.39756   0.01706   0.00000  Uiso   1.00
C338   C     0.05601   0.38274   0.02488   0.00000  Uiso   1.00
H339   H     0.02978   0.38718   0.05053   0.00000  Uiso   1.00
H340   H     0.03702   0.39612   0.32545   0.00000  Uiso   1.00
C341   C     0.06344   0.33632   0.01974   0.00000  Uiso   1.00
H342   H     0.08645   0.66466   0.32523   0.00000  Uiso   1.00
H343   H     0.02471   0.65426   0.01108   0.00000  Uiso   1.00
H344   H     0.08369   0.65525   0.05182   0.00000  Uiso   1.00
C345   C     0.50228   0.42007   0.16784   0.00000  Uiso   1.00
C346   C     0.50217   0.57999   0.16648   0.00000  Uiso   1.00
C347   C     0.40068   0.49937   0.15500   0.00000  Uiso   1.00
C348   C     0.59937   0.50059   0.17823   0.00000  Uiso   1.00
C349   C     0.34623   0.49254   0.15053   0.00000  Uiso   1.00
C350   C     0.65361   0.50777   0.18234   0.00000  Uiso   1.00
C351   C     0.52938   0.35709   0.13607   0.00000  Uiso   1.00
C352   C     0.49068   0.64337   0.20443   0.00000  Uiso   1.00
C353   C     0.53251   0.64765   0.13670   0.00000  Uiso   1.00
C354   C     0.49747   0.35235   0.20877   0.00000  Uiso   1.00
C355   C     0.50686   0.62430   0.16765   0.00000  Uiso   1.00
C356   C     0.50891   0.37601   0.17083   0.00000  Uiso   1.00
C357   C     0.52790   0.52905   0.02595   0.00000  Uiso   1.00
C358   C     0.46670   0.47419   0.30584   0.00000  Uiso   1.00
C359   C     0.53115   0.52724   0.31240   0.00000  Uiso   1.00
C360   C     0.46860   0.47242   0.02124   0.00000  Uiso   1.00
H361   H     0.54497   0.37541   0.10970   0.00000  Uiso   1.00
H362   H     0.47485   0.62557   0.23105   0.00000  Uiso   1.00
N363   N     0.49999   0.49999   0.28573   0.00000  Uiso   1.00
N364   N     0.50001   0.50001   0.04760   0.00000  Uiso   1.00
O365   O     0.50000   0.43892   0.20487   0.00000  Uiso   1.00
O366   O     0.50000   0.56108   0.12846   0.00000  Uiso   1.00
O367   O     0.50000   0.43893   0.12843   0.00000  Uiso   1.00
O368   O     0.50000   0.56107   0.20490   0.00000  Uiso   1.00
O369   O     0.42392   0.50000   0.19595   0.00000  Uiso   1.00
O370   O     0.57608   0.50000   0.13739   0.00000  Uiso   1.00
O371   O     0.42392   0.50000   0.11950   0.00000  Uiso   1.00
O372   O     0.57608   0.50000   0.21383   0.00000  Uiso   1.00
Zn373  Zn    0.50000   0.49999   0.21771   0.00000  Uiso   1.00
Zn374  Zn    0.50000   0.50001   0.11563   0.00000  Uiso   1.00
N375   N     0.65559   0.46456   0.11647   0.00000  Uiso   1.00
H376   H     0.34163   0.43620   0.12135   0.00000  Uiso   1.00
H377   H     0.66094   0.47711   0.08458   0.00000  Uiso   1.00
N378   N     0.34227   0.53797   0.21460   0.00000  Uiso   1.00
H379   H     0.36546   0.52334   0.24202   0.00000  Uiso   1.00
H380   H     0.36338   0.56108   0.19905   0.00000  Uiso   1.00
O381   O     0.56321   0.62937   0.10925   0.00000  Uiso   1.00
C382   C     0.61453   0.62501   0.13305   0.00000  Uiso   1.00
H383   H     0.63023   0.59541   0.12315   0.00000  Uiso   1.00
H384   H     0.61654   0.62252   0.17080   0.00000  Uiso   1.00
C385   C     0.64975   0.66085   0.11965   0.00000  Uiso   1.00
H386   H     0.64702   0.66292   0.08210   0.00000  Uiso   1.00
H387   H     0.63673   0.35739   0.13135   0.00000  Uiso   1.00
C388   C     0.37305   0.65432   0.14065   0.00000  Uiso   1.00
H389   H     0.37644   0.65234   0.17826   0.00000  Uiso   1.00
H390   H     0.39747   0.34768   0.13078   0.00000  Uiso   1.00
H391   H     0.38781   0.62524   0.12849   0.00000  Uiso   1.00
O392   O     0.49093   0.37046   0.24892   0.00000  Uiso   1.00
C393   C     0.52945   0.35620   0.28496   0.00000  Uiso   1.00
H394   H     0.55208   0.66212   0.27749   0.00000  Uiso   1.00
H395   H     0.50924   0.34576   0.31380   0.00000  Uiso   1.00
C396   C     0.56767   0.39162   0.30085   0.00000  Uiso   1.00
H397   H     0.54599   0.42046   0.30372   0.00000  Uiso   1.00
H398   H     0.58870   0.38311   0.00179   0.00000  Uiso   1.00
C399   C     0.60792   0.40006   0.26887   0.00000  Uiso   1.00
H400   H     0.63292   0.37250   0.26857   0.00000  Uiso   1.00
H401   H     0.63261   0.42742   0.28044   0.00000  Uiso   1.00
H402   H     0.58909   0.40728   0.23382   0.00000  Uiso   1.00
N403   N     0.54835   0.56512   0.04871   0.00000  Uiso   1.00
H404   H     0.56938   0.55558   0.07967   0.00000  Uiso   1.00
H405   H     0.51643   0.58274   0.05350   0.00000  Uiso   1.00
N406   N     0.42743   0.45182   0.27698   0.00000  Uiso   1.00
H407   H     0.39103   0.45847   0.28571   0.00000  Uiso   1.00
H408   H     0.43374   0.41998   0.28138   0.00000  Uiso   1.00
O409   O     0.55817   0.55869   0.29250   0.00000  Uiso   1.00
C410   C     0.61148   0.54867   0.29564   0.00000  Uiso   1.00
H411   H     0.62582   0.56694   0.26770   0.00000  Uiso   1.00
H412   H     0.61765   0.51499   0.29089   0.00000  Uiso   1.00
C413   C     0.64451   0.56215   0.00665   0.00000  Uiso   1.00
H414   H     0.63436   0.59427   0.01422   0.00000  Uiso   1.00
H415   H     0.63697   0.54051   0.03490   0.00000  Uiso   1.00
C416   C     0.36942   0.56071   0.00373   0.00000  Uiso   1.00
H417   H     0.38030   0.52861   0.33023   0.00000  Uiso   1.00
H418   H     0.39224   0.57006   0.03646   0.00000  Uiso   1.00
H419   H     0.37956   0.58235   0.30961   0.00000  Uiso   1.00
O420   O     0.43233   0.44867   0.04133   0.00000  Uiso   1.00
C421   C     0.44119   0.40547   0.03926   0.00000  Uiso   1.00
H422   H     0.45631   0.39314   0.07355   0.00000  Uiso   1.00
H423   H     0.47019   0.39756   0.01706   0.00000  Uiso   1.00
C424   C     0.38934   0.38274   0.02488   0.00000  Uiso   1.00
H425   H     0.36311   0.38718   0.05053   0.00000  Uiso   1.00
H426   H     0.37035   0.39612   0.32545   0.00000  Uiso   1.00
C427   C     0.39678   0.33632   0.01974   0.00000  Uiso   1.00
H428   H     0.41978   0.66466   0.32523   0.00000  Uiso   1.00
H429   H     0.35804   0.65426   0.01108   0.00000  Uiso   1.00
H430   H     0.41703   0.65525   0.05182   0.00000  Uiso   1.00
C431   C     0.83561   0.42007   0.16784   0.00000  Uiso   1.00
C432   C     0.83550   0.57999   0.16648   0.00000  Uiso   1.00
C433   C     0.73401   0.49937   0.15500   0.00000  Uiso   1.00
C434   C     0.93270   0.50059   0.17823   0.00000  Uiso   1.00
C435   C     0.67956   0.49254   0.15053   0.00000  Uiso   1.00
C436   C     0.98695   0.50777   0.18234   0.00000  Uiso   1.00
C437   C     0.86271   0.35709   0.13607   0.00000  Uiso   1.00
C438   C     0.82402   0.64337   0.20443   0.00000  Uiso   1.00
C439   C     0.86585   0.64765   0.13670   0.00000  Uiso   1.00
C440   C     0.83080   0.35235   0.20877   0.00000  Uiso   1.00
C441   C     0.84019   0.62430   0.16765   0.00000  Uiso   1.00
C442   C     0.84225   0.37601   0.17083   0.00000  Uiso   1.00
C443   C     0.86123   0.52905   0.02595   0.00000  Uiso   1.00
C444   C     0.80003   0.47419   0.30584   0.00000  Uiso   1.00
C445   C     0.86449   0.52724   0.31240   0.00000  Uiso   1.00
C446   C     0.80194   0.47242   0.02124   0.00000  Uiso   1.00
H447   H     0.87831   0.37541   0.10970   0.00000  Uiso   1.00
H448   H     0.80819   0.62557   0.23105   0.00000  Uiso   1.00
N449   N     0.83332   0.49999   0.28573   0.00000  Uiso   1.00
N450   N     0.83335   0.50001   0.04760   0.00000  Uiso   1.00
O451   O     0.83333   0.43892   0.20487   0.00000  Uiso   1.00
O452   O     0.83334   0.56108   0.12846   0.00000  Uiso   1.00
O453   O     0.83333   0.43893   0.12843   0.00000  Uiso   1.00
O454   O     0.83334   0.56107   0.20490   0.00000  Uiso   1.00
O455   O     0.75725   0.50000   0.19595   0.00000  Uiso   1.00
O456   O     0.90942   0.50000   0.13739   0.00000  Uiso   1.00
O457   O     0.75725   0.50000   0.11950   0.00000  Uiso   1.00
O458   O     0.90942   0.50000   0.21383   0.00000  Uiso   1.00
Zn459  Zn    0.83333   0.49999   0.21771   0.00000  Uiso   1.00
Zn460  Zn    0.83333   0.50001   0.11563   0.00000  Uiso   1.00
N461   N     0.98892   0.46456   0.11647   0.00000  Uiso   1.00
H462   H     0.67497   0.43620   0.12135   0.00000  Uiso   1.00
H463   H     0.99428   0.47711   0.08458   0.00000  Uiso   1.00
N464   N     0.67561   0.53797   0.21460   0.00000  Uiso   1.00
H465   H     0.69880   0.52334   0.24202   0.00000  Uiso   1.00
H466   H     0.69671   0.56108   0.19905   0.00000  Uiso   1.00
O467   O     0.89654   0.62937   0.10925   0.00000  Uiso   1.00
C468   C     0.94787   0.62501   0.13305   0.00000  Uiso   1.00
H469   H     0.96356   0.59541   0.12315   0.00000  Uiso   1.00
H470   H     0.94988   0.62252   0.17080   0.00000  Uiso   1.00
C471   C     0.98308   0.66085   0.11965   0.00000  Uiso   1.00
H472   H     0.98035   0.66292   0.08210   0.00000  Uiso   1.00
H473   H     0.97007   0.35739   0.13135   0.00000  Uiso   1.00
C474   C     0.70638   0.65432   0.14065   0.00000  Uiso   1.00
H475   H     0.70977   0.65234   0.17826   0.00000  Uiso   1.00
H476   H     0.73081   0.34768   0.13078   0.00000  Uiso   1.00
H477   H     0.72114   0.62524   0.12849   0.00000  Uiso   1.00
O478   O     0.82427   0.37046   0.24892   0.00000  Uiso   1.00
C479   C     0.86278   0.35620   0.28496   0.00000  Uiso   1.00
H480   H     0.88541   0.66212   0.27749   0.00000  Uiso   1.00
H481   H     0.84258   0.34576   0.31380   0.00000  Uiso   1.00
C482   C     0.90101   0.39162   0.30085   0.00000  Uiso   1.00
H483   H     0.87933   0.42046   0.30372   0.00000  Uiso   1.00
H484   H     0.92203   0.38311   0.00179   0.00000  Uiso   1.00
C485   C     0.94126   0.40006   0.26887   0.00000  Uiso   1.00
H486   H     0.96625   0.37250   0.26857   0.00000  Uiso   1.00
H487   H     0.96595   0.42742   0.28044   0.00000  Uiso   1.00
H488   H     0.92242   0.40728   0.23382   0.00000  Uiso   1.00
N489   N     0.88168   0.56512   0.04871   0.00000  Uiso   1.00
H490   H     0.90272   0.55558   0.07967   0.00000  Uiso   1.00
H491   H     0.84976   0.58274   0.05350   0.00000  Uiso   1.00
N492   N     0.76077   0.45182   0.27698   0.00000  Uiso   1.00
H493   H     0.72436   0.45847   0.28571   0.00000  Uiso   1.00
H494   H     0.76707   0.41998   0.28138   0.00000  Uiso   1.00
O495   O     0.89150   0.55869   0.29250   0.00000  Uiso   1.00
C496   C     0.94481   0.54867   0.29564   0.00000  Uiso   1.00
H497   H     0.95915   0.56694   0.26770   0.00000  Uiso   1.00
H498   H     0.95098   0.51499   0.29089   0.00000  Uiso   1.00
C499   C     0.97785   0.56215   0.00665   0.00000  Uiso   1.00
H500   H     0.96769   0.59427   0.01422   0.00000  Uiso   1.00
H501   H     0.97030   0.54051   0.03490   0.00000  Uiso   1.00
C502   C     0.70276   0.56071   0.00373   0.00000  Uiso   1.00
H503   H     0.71363   0.52861   0.33023   0.00000  Uiso   1.00
H504   H     0.72557   0.57006   0.03646   0.00000  Uiso   1.00
H505   H     0.71289   0.58235   0.30961   0.00000  Uiso   1.00
O506   O     0.76567   0.44867   0.04133   0.00000  Uiso   1.00
C507   C     0.77452   0.40547   0.03926   0.00000  Uiso   1.00
H508   H     0.78965   0.39314   0.07355   0.00000  Uiso   1.00
H509   H     0.80353   0.39756   0.01706   0.00000  Uiso   1.00
C510   C     0.72268   0.38274   0.02488   0.00000  Uiso   1.00
H511   H     0.69645   0.38718   0.05053   0.00000  Uiso   1.00
H512   H     0.70369   0.39612   0.32545   0.00000  Uiso   1.00
C513   C     0.73011   0.33632   0.01974   0.00000  Uiso   1.00
H514   H     0.75311   0.66466   0.32523   0.00000  Uiso   1.00
H515   H     0.69137   0.65426   0.01108   0.00000  Uiso   1.00
H516   H     0.75036   0.65525   0.05182   0.00000  Uiso   1.00
C517   C     0.16895   0.75341   0.16784   0.00000  Uiso   1.00
C518   C     0.16883   0.91332   0.16648   0.00000  Uiso   1.00
C519   C     0.06735   0.83270   0.15500   0.00000  Uiso   1.00
C520   C     0.26603   0.83392   0.17823   0.00000  Uiso   1.00
C521   C     0.01290   0.82587   0.15053   0.00000  Uiso   1.00
C522   C     0.32028   0.84110   0.18234   0.00000  Uiso   1.00
C523   C     0.19604   0.69043   0.13607   0.00000  Uiso   1.00
C524   C     0.15735   0.97670   0.20443   0.00000  Uiso   1.00
C525   C     0.19918   0.98099   0.13670   0.00000  Uiso   1.00
C526   C     0.16414   0.68568   0.20877   0.00000  Uiso   1.00
C527   C     0.17353   0.95763   0.16765   0.00000  Uiso   1.00
C528   C     0.17558   0.70934   0.17083   0.00000  Uiso   1.00
C529   C     0.19456   0.86239   0.02595   0.00000  Uiso   1.00
C530   C     0.13336   0.80753   0.30584   0.00000  Uiso   1.00
C531   C     0.19782   0.86058   0.31240   0.00000  Uiso   1.00
C532   C     0.13527   0.80576   0.02124   0.00000  Uiso   1.00
H533   H     0.21164   0.70874   0.10970   0.00000  Uiso   1.00
H534   H     0.14152   0.95891   0.23105   0.00000  Uiso   1.00
N535   N     0.16665   0.83332   0.28573   0.00000  Uiso   1.00
N536   N     0.16668   0.83334   0.04760   0.00000  Uiso   1.00
O537   O     0.16666   0.77225   0.20487   0.00000  Uiso   1.00
O538   O     0.16667   0.89442   0.12846   0.00000  Uiso   1.00
O539   O     0.16666   0.77226   0.12843   0.00000  Uiso   1.00
O540   O     0.16667   0.89441   0.20490   0.00000  Uiso   1.00
O541   O     0.09058   0.83333   0.19595   0.00000  Uiso   1.00
O542   O     0.24275   0.83334   0.13739   0.00000  Uiso   1.00
O543   O     0.09058   0.83334   0.11950   0.00000  Uiso   1.00
O544   O     0.24275   0.83333   0.21383   0.00000  Uiso   1.00
Zn545  Zn    0.16667   0.83333   0.21771   0.00000  Uiso   1.00
Zn546  Zn    0.16667   0.83334   0.11563   0.00000  Uiso   1.00
N547   N     0.32225   0.79789   0.11647   0.00000  Uiso   1.00
H548   H     0.00830   0.76953   0.12135   0.00000  Uiso   1.00
H549   H     0.32761   0.81044   0.08458   0.00000  Uiso   1.00
N550   N     0.00894   0.87131   0.21460   0.00000  Uiso   1.00
H551   H     0.03213   0.85667   0.24202   0.00000  Uiso   1.00
H552   H     0.03004   0.89441   0.19905   0.00000  Uiso   1.00
O553   O     0.22987   0.96271   0.10925   0.00000  Uiso   1.00
C554   C     0.28120   0.95834   0.13305   0.00000  Uiso   1.00
H555   H     0.29689   0.92875   0.12315   0.00000  Uiso   1.00
H556   H     0.28321   0.95585   0.17080   0.00000  Uiso   1.00
C557   C     0.31642   0.99418   0.11965   0.00000  Uiso   1.00
H558   H     0.31368   0.99625   0.08210   0.00000  Uiso   1.00
H559   H     0.30340   0.69072   0.13135   0.00000  Uiso   1.00
C560   C     0.03971   0.98766   0.14065   0.00000  Uiso   1.00
H561   H     0.04311   0.98567   0.17826   0.00000  Uiso   1.00
H562   H     0.06414   0.68101   0.13078   0.00000  Uiso   1.00
H563   H     0.05448   0.95857   0.12849   0.00000  Uiso   1.00
O564   O     0.15760   0.70379   0.24892   0.00000  Uiso   1.00
C565   C     0.19611   0.68953   0.28496   0.00000  Uiso   1.00
H566   H     0.21875   0.99545   0.27749   0.00000  Uiso   1.00
H567   H     0.17591   0.67910   0.31380   0.00000  Uiso   1.00
C568   C     0.23434   0.72495   0.30085   0.00000  Uiso   1.00
H569   H     0.21266   0.75379   0.30372   0.00000  Uiso   1.00
H570   H     0.25537   0.71644   0.00179   0.00000  Uiso   1.00
C571   C     0.27459   0.73339   0.26887   0.00000  Uiso   1.00
H572   H     0.29958   0.70583   0.26857   0.00000  Uiso   1.00
H573   H     0.29928   0.76075   0.28044   0.00000  Uiso   1.00
H574   H     0.25576   0.74061   0.23382   0.00000  Uiso   1.00
N575   N     0.21501   0.89845   0.04871   0.00000  Uiso   1.00
H576   H     0.23605   0.88891   0.07967   0.00000  Uiso   1.00
H577   H     0.18310   0.91607   0.05350   0.00000  Uiso   1.00
N578   N     0.09410   0.78515   0.27698   0.00000  Uiso   1.00
H579   H     0.05770   0.79181   0.28571   0.00000  Uiso   1.00
H580   H     0.10040   0.75331   0.28138   0.00000  Uiso   1.00
O581   O     0.22483   0.89202   0.29250   0.00000  Uiso   1.00
C582   C     0.27814   0.88201   0.29564   0.00000  Uiso   1.00
H583   H     0.29248   0.90027   0.26770   0.00000  Uiso   1.00
H584   H     0.28431   0.84832   0.29089   0.00000  Uiso   1.00
C585   C     0.31118   0.89548   0.00665   0.00000  Uiso   1.00
H586   H     0.30103   0.92761   0.01422   0.00000  Uiso   1.00
H587   H     0.30363   0.87384   0.03490   0.00000  Uiso   1.00
C588   C     0.03609   0.89405   0.00373   0.00000  Uiso   1.00
H589   H     0.04696   0.86194   0.33023   0.00000  Uiso   1.00
H590   H     0.05891   0.90339   0.03646   0.00000  Uiso   1.00
H591   H     0.04622   0.91569   0.30961   0.00000  Uiso   1.00
O592   O     0.09900   0.78200   0.04133   0.00000  Uiso   1.00
C593   C     0.10785   0.73880   0.03926   0.00000  Uiso   1.00
H594   H     0.12298   0.72648   0.07355   0.00000  Uiso   1.00
H595   H     0.13686   0.73089   0.01706   0.00000  Uiso   1.00
C596   C     0.05601   0.71607   0.02488   0.00000  Uiso   1.00
H597   H     0.02978   0.72052   0.05053   0.00000  Uiso   1.00
H598   H     0.03702   0.72946   0.32545   0.00000  Uiso   1.00
C599   C     0.06344   0.66966   0.01974   0.00000  Uiso   1.00
H600   H     0.08645   0.99800   0.32523   0.00000  Uiso   1.00
H601   H     0.02471   0.98759   0.01108   0.00000  Uiso   1.00
H602   H     0.08369   0.98859   0.05182   0.00000  Uiso   1.00
C603   C     0.50228   0.75341   0.16784   0.00000  Uiso   1.00
C604   C     0.50217   0.91332   0.16648   0.00000  Uiso   1.00
C605   C     0.40068   0.83270   0.15500   0.00000  Uiso   1.00
C606   C     0.59937   0.83392   0.17823   0.00000  Uiso   1.00
C607   C     0.34623   0.82587   0.15053   0.00000  Uiso   1.00
C608   C     0.65361   0.84110   0.18234   0.00000  Uiso   1.00
C609   C     0.52938   0.69043   0.13607   0.00000  Uiso   1.00
C610   C     0.49068   0.97670   0.20443   0.00000  Uiso   1.00
C611   C     0.53251   0.98099   0.13670   0.00000  Uiso   1.00
C612   C     0.49747   0.68568   0.20877   0.00000  Uiso   1.00
C613   C     0.50686   0.95763   0.16765   0.00000  Uiso   1.00
C614   C     0.50891   0.70934   0.17083   0.00000  Uiso   1.00
C615   C     0.52790   0.86239   0.02595   0.00000  Uiso   1.00
C616   C     0.46670   0.80753   0.30584   0.00000  Uiso   1.00
C617   C     0.53115   0.86058   0.31240   0.00000  Uiso   1.00
C618   C     0.46860   0.80576   0.02124   0.00000  Uiso   1.00
H619   H     0.54497   0.70874   0.10970   0.00000  Uiso   1.00
H620   H     0.47485   0.95891   0.23105   0.00000  Uiso   1.00
N621   N     0.49999   0.83332   0.28573   0.00000  Uiso   1.00
N622   N     0.50001   0.83334   0.04760   0.00000  Uiso   1.00
O623   O     0.50000   0.77225   0.20487   0.00000  Uiso   1.00
O624   O     0.50000   0.89442   0.12846   0.00000  Uiso   1.00
O625   O     0.50000   0.77226   0.12843   0.00000  Uiso   1.00
O626   O     0.50000   0.89441   0.20490   0.00000  Uiso   1.00
O627   O     0.42392   0.83333   0.19595   0.00000  Uiso   1.00
O628   O     0.57608   0.83334   0.13739   0.00000  Uiso   1.00
O629   O     0.42392   0.83334   0.11950   0.00000  Uiso   1.00
O630   O     0.57608   0.83333   0.21383   0.00000  Uiso   1.00
Zn631  Zn    0.50000   0.83333   0.21771   0.00000  Uiso   1.00
Zn632  Zn    0.50000   0.83334   0.11563   0.00000  Uiso   1.00
N633   N     0.65559   0.79789   0.11647   0.00000  Uiso   1.00
H634   H     0.34163   0.76953   0.12135   0.00000  Uiso   1.00
H635   H     0.66094   0.81044   0.08458   0.00000  Uiso   1.00
N636   N     0.34227   0.87131   0.21460   0.00000  Uiso   1.00
H637   H     0.36546   0.85667   0.24202   0.00000  Uiso   1.00
H638   H     0.36338   0.89441   0.19905   0.00000  Uiso   1.00
O639   O     0.56321   0.96271   0.10925   0.00000  Uiso   1.00
C640   C     0.61453   0.95834   0.13305   0.00000  Uiso   1.00
H641   H     0.63023   0.92875   0.12315   0.00000  Uiso   1.00
H642   H     0.61654   0.95585   0.17080   0.00000  Uiso   1.00
C643   C     0.64975   0.99418   0.11965   0.00000  Uiso   1.00
H644   H     0.64702   0.99625   0.08210   0.00000  Uiso   1.00
H645   H     0.63673   0.69072   0.13135   0.00000  Uiso   1.00
C646   C     0.37305   0.98766   0.14065   0.00000  Uiso   1.00
H647   H     0.37644   0.98567   0.17826   0.00000  Uiso   1.00
H648   H     0.39747   0.68101   0.13078   0.00000  Uiso   1.00
H649   H     0.38781   0.95857   0.12849   0.00000  Uiso   1.00
O650   O     0.49093   0.70379   0.24892   0.00000  Uiso   1.00
C651   C     0.52945   0.68953   0.28496   0.00000  Uiso   1.00
H652   H     0.55208   0.99545   0.27749   0.00000  Uiso   1.00
H653   H     0.50924   0.67910   0.31380   0.00000  Uiso   1.00
C654   C     0.56767   0.72495   0.30085   0.00000  Uiso   1.00
H655   H     0.54599   0.75379   0.30372   0.00000  Uiso   1.00
H656   H     0.58870   0.71644   0.00179   0.00000  Uiso   1.00
C657   C     0.60792   0.73339   0.26887   0.00000  Uiso   1.00
H658   H     0.63292   0.70583   0.26857   0.00000  Uiso   1.00
H659   H     0.63261   0.76075   0.28044   0.00000  Uiso   1.00
H660   H     0.58909   0.74061   0.23382   0.00000  Uiso   1.00
N661   N     0.54835   0.89845   0.04871   0.00000  Uiso   1.00
H662   H     0.56938   0.88891   0.07967   0.00000  Uiso   1.00
H663   H     0.51643   0.91607   0.05350   0.00000  Uiso   1.00
N664   N     0.42743   0.78515   0.27698   0.00000  Uiso   1.00
H665   H     0.39103   0.79181   0.28571   0.00000  Uiso   1.00
H666   H     0.43374   0.75331   0.28138   0.00000  Uiso   1.00
O667   O     0.55817   0.89202   0.29250   0.00000  Uiso   1.00
C668   C     0.61148   0.88201   0.29564   0.00000  Uiso   1.00
H669   H     0.62582   0.90027   0.26770   0.00000  Uiso   1.00
H670   H     0.61765   0.84832   0.29089   0.00000  Uiso   1.00
C671   C     0.64451   0.89548   0.00665   0.00000  Uiso   1.00
H672   H     0.63436   0.92761   0.01422   0.00000  Uiso   1.00
H673   H     0.63697   0.87384   0.03490   0.00000  Uiso   1.00
C674   C     0.36942   0.89405   0.00373   0.00000  Uiso   1.00
H675   H     0.38030   0.86194   0.33023   0.00000  Uiso   1.00
H676   H     0.39224   0.90339   0.03646   0.00000  Uiso   1.00
H677   H     0.37956   0.91569   0.30961   0.00000  Uiso   1.00
O678   O     0.43233   0.78200   0.04133   0.00000  Uiso   1.00
C679   C     0.44119   0.73880   0.03926   0.00000  Uiso   1.00
H680   H     0.45631   0.72648   0.07355   0.00000  Uiso   1.00
H681   H     0.47019   0.73089   0.01706   0.00000  Uiso   1.00
C682   C     0.38934   0.71607   0.02488   0.00000  Uiso   1.00
H683   H     0.36311   0.72052   0.05053   0.00000  Uiso   1.00
H684   H     0.37035   0.72946   0.32545   0.00000  Uiso   1.00
C685   C     0.39678   0.66966   0.01974   0.00000  Uiso   1.00
H686   H     0.41978   0.99800   0.32523   0.00000  Uiso   1.00
H687   H     0.35804   0.98759   0.01108   0.00000  Uiso   1.00
H688   H     0.41703   0.98859   0.05182   0.00000  Uiso   1.00
C689   C     0.83561   0.75341   0.16784   0.00000  Uiso   1.00
C690   C     0.83550   0.91332   0.16648   0.00000  Uiso   1.00
C691   C     0.73401   0.83270   0.15500   0.00000  Uiso   1.00
C692   C     0.93270   0.83392   0.17823   0.00000  Uiso   1.00
C693   C     0.67956   0.82587   0.15053   0.00000  Uiso   1.00
C694   C     0.98695   0.84110   0.18234   0.00000  Uiso   1.00
C695   C     0.86271   0.69043   0.13607   0.00000  Uiso   1.00
C696   C     0.82402   0.97670   0.20443   0.00000  Uiso   1.00
C697   C     0.86585   0.98099   0.13670   0.00000  Uiso   1.00
C698   C     0.83080   0.68568   0.20877   0.00000  Uiso   1.00
C699   C     0.84019   0.95763   0.16765   0.00000  Uiso   1.00
C700   C     0.84225   0.70934   0.17083   0.00000  Uiso   1.00
C701   C     0.86123   0.86239   0.02595   0.00000  Uiso   1.00
C702   C     0.80003   0.80753   0.30584   0.00000  Uiso   1.00
C703   C     0.86449   0.86058   0.31240   0.00000  Uiso   1.00
C704   C     0.80194   0.80576   0.02124   0.00000  Uiso   1.00
H705   H     0.87831   0.70874   0.10970   0.00000  Uiso   1.00
H706   H     0.80819   0.95891   0.23105   0.00000  Uiso   1.00
N707   N     0.83332   0.83332   0.28573   0.00000  Uiso   1.00
N708   N     0.83335   0.83334   0.04760   0.00000  Uiso   1.00
O709   O     0.83333   0.77225   0.20487   0.00000  Uiso   1.00
O710   O     0.83334   0.89442   0.12846   0.00000  Uiso   1.00
O711   O     0.83333   0.77226   0.12843   0.00000  Uiso   1.00
O712   O     0.83334   0.89441   0.20490   0.00000  Uiso   1.00
O713   O     0.75725   0.83333   0.19595   0.00000  Uiso   1.00
O714   O     0.90942   0.83334   0.13739   0.00000  Uiso   1.00
O715   O     0.75725   0.83334   0.11950   0.00000  Uiso   1.00
O716   O     0.90942   0.83333   0.21383   0.00000  Uiso   1.00
Zn717  Zn    0.83333   0.83333   0.21771   0.00000  Uiso   1.00
Zn718  Zn    0.83333   0.83334   0.11563   0.00000  Uiso   1.00
N719   N     0.98892   0.79789   0.11647   0.00000  Uiso   1.00
H720   H     0.67497   0.76953   0.12135   0.00000  Uiso   1.00
H721   H     0.99428   0.81044   0.08458   0.00000  Uiso   1.00
N722   N     0.67561   0.87131   0.21460   0.00000  Uiso   1.00
H723   H     0.69880   0.85667   0.24202   0.00000  Uiso   1.00
H724   H     0.69671   0.89441   0.19905   0.00000  Uiso   1.00
O725   O     0.89654   0.96271   0.10925   0.00000  Uiso   1.00
C726   C     0.94787   0.95834   0.13305   0.00000  Uiso   1.00
H727   H     0.96356   0.92875   0.12315   0.00000  Uiso   1.00
H728   H     0.94988   0.95585   0.17080   0.00000  Uiso   1.00
C729   C     0.98308   0.99418   0.11965   0.00000  Uiso   1.00
H730   H     0.98035   0.99625   0.08210   0.00000  Uiso   1.00
H731   H     0.97007   0.69072   0.13135   0.00000  Uiso   1.00
C732   C     0.70638   0.98766   0.14065   0.00000  Uiso   1.00
H733   H     0.70977   0.98567   0.17826   0.00000  Uiso   1.00
H734   H     0.73081   0.68101   0.13078   0.00000  Uiso   1.00
H735   H     0.72114   0.95857   0.12849   0.00000  Uiso   1.00
O736   O     0.82427   0.70379   0.24892   0.00000  Uiso   1.00
C737   C     0.86278   0.68953   0.28496   0.00000  Uiso   1.00
H738   H     0.88541   0.99545   0.27749   0.00000  Uiso   1.00
H739   H     0.84258   0.67910   0.31380   0.00000  Uiso   1.00
C740   C     0.90101   0.72495   0.30085   0.00000  Uiso   1.00
H741   H     0.87933   0.75379   0.30372   0.00000  Uiso   1.00
H742   H     0.92203   0.71644   0.00179   0.00000  Uiso   1.00
C743   C     0.94126   0.73339   0.26887   0.00000  Uiso   1.00
H744   H     0.96625   0.70583   0.26857   0.00000  Uiso   1.00
H745   H     0.96595   0.76075   0.28044   0.00000  Uiso   1.00
H746   H     0.92242   0.74061   0.23382   0.00000  Uiso   1.00
N747   N     0.88168   0.89845   0.04871   0.00000  Uiso   1.00
H748   H     0.90272   0.88891   0.07967   0.00000  Uiso   1.00
H749   H     0.84976   0.91607   0.05350   0.00000  Uiso   1.00
N750   N     0.76077   0.78515   0.27698   0.00000  Uiso   1.00
H751   H     0.72436   0.79181   0.28571   0.00000  Uiso   1.00
H752   H     0.76707   0.75331   0.28138   0.00000  Uiso   1.00
O753   O     0.89150   0.89202   0.29250   0.00000  Uiso   1.00
C754   C     0.94481   0.88201   0.29564   0.00000  Uiso   1.00
H755   H     0.95915   0.90027   0.26770   0.00000  Uiso   1.00
H756   H     0.95098   0.84832   0.29089   0.00000  Uiso   1.00
C757   C     0.97785   0.89548   0.00665   0.00000  Uiso   1.00
H758   H     0.96769   0.92761   0.01422   0.00000  Uiso   1.00
H759   H     0.97030   0.87384   0.03490   0.00000  Uiso   1.00
C760   C     0.70276   0.89405   0.00373   0.00000  Uiso   1.00
H761   H     0.71363   0.86194   0.33023   0.00000  Uiso   1.00
H762   H     0.72557   0.90339   0.03646   0.00000  Uiso   1.00
H763   H     0.71289   0.91569   0.30961   0.00000  Uiso   1.00
O764   O     0.76567   0.78200   0.04133   0.00000  Uiso   1.00
C765   C     0.77452   0.73880   0.03926   0.00000  Uiso   1.00
H766   H     0.78965   0.72648   0.07355   0.00000  Uiso   1.00
H767   H     0.80353   0.73089   0.01706   0.00000  Uiso   1.00
C768   C     0.72268   0.71607   0.02488   0.00000  Uiso   1.00
H769   H     0.69645   0.72052   0.05053   0.00000  Uiso   1.00
H770   H     0.70369   0.72946   0.32545   0.00000  Uiso   1.00
C771   C     0.73011   0.66966   0.01974   0.00000  Uiso   1.00
H772   H     0.75311   0.99800   0.32523   0.00000  Uiso   1.00
H773   H     0.69137   0.98759   0.01108   0.00000  Uiso   1.00
H774   H     0.75036   0.98859   0.05182   0.00000  Uiso   1.00
C775   C     0.16895   0.08674   0.50117   0.00000  Uiso   1.00
C776   C     0.16883   0.24666   0.49981   0.00000  Uiso   1.00
C777   C     0.06735   0.16604   0.48833   0.00000  Uiso   1.00
C778   C     0.26603   0.16726   0.51157   0.00000  Uiso   1.00
C779   C     0.01290   0.15921   0.48386   0.00000  Uiso   1.00
C780   C     0.32028   0.17443   0.51567   0.00000  Uiso   1.00
C781   C     0.19604   0.02376   0.46940   0.00000  Uiso   1.00
C782   C     0.15735   0.31003   0.53776   0.00000  Uiso   1.00
C783   C     0.19918   0.31432   0.47003   0.00000  Uiso   1.00
C784   C     0.16414   0.01901   0.54211   0.00000  Uiso   1.00
C785   C     0.17353   0.29096   0.50099   0.00000  Uiso   1.00
C786   C     0.17558   0.04268   0.50416   0.00000  Uiso   1.00
C787   C     0.19456   0.19572   0.35928   0.00000  Uiso   1.00
C788   C     0.13336   0.14086   0.63918   0.00000  Uiso   1.00
C789   C     0.19782   0.19391   0.64573   0.00000  Uiso   1.00
C790   C     0.13527   0.13909   0.35457   0.00000  Uiso   1.00
H791   H     0.21164   0.04208   0.44303   0.00000  Uiso   1.00
H792   H     0.14152   0.29224   0.56438   0.00000  Uiso   1.00
N793   N     0.16665   0.16666   0.61907   0.00000  Uiso   1.00
N794   N     0.16668   0.16668   0.38093   0.00000  Uiso   1.00
O795   O     0.16666   0.10558   0.53821   0.00000  Uiso   1.00
O796   O     0.16667   0.22775   0.46179   0.00000  Uiso   1.00
O797   O     0.16666   0.10559   0.46176   0.00000  Uiso   1.00
O798   O     0.16667   0.22774   0.53824   0.00000  Uiso   1.00
O799   O     0.09058   0.16666   0.52928   0.00000  Uiso   1.00
O800   O     0.24275   0.16667   0.47072   0.00000  Uiso   1.00
O801   O     0.09058   0.16667   0.45284   0.00000  Uiso   1.00
O802   O     0.24275   0.16666   0.54716   0.00000  Uiso   1.00
Zn803  Zn    0.16667   0.16666   0.55104   0.00000  Uiso   1.00
Zn804  Zn    0.16667   0.16667   0.44896   0.00000  Uiso   1.00
N805   N     0.32225   0.13123   0.44981   0.00000  Uiso   1.00
H806   H     0.00830   0.10286   0.45468   0.00000  Uiso   1.00
H807   H     0.32761   0.14377   0.41791   0.00000  Uiso   1.00
N808   N     0.00894   0.20464   0.54793   0.00000  Uiso   1.00
H809   H     0.03213   0.19000   0.57535   0.00000  Uiso   1.00
H810   H     0.03004   0.22774   0.53238   0.00000  Uiso   1.00
O811   O     0.22987   0.29604   0.44259   0.00000  Uiso   1.00
C812   C     0.28120   0.29167   0.46639   0.00000  Uiso   1.00
H813   H     0.29689   0.26208   0.45648   0.00000  Uiso   1.00
H814   H     0.28321   0.28919   0.50413   0.00000  Uiso   1.00
C815   C     0.31642   0.32752   0.45298   0.00000  Uiso   1.00
H816   H     0.31368   0.32959   0.41543   0.00000  Uiso   1.00
H817   H     0.30340   0.02406   0.46468   0.00000  Uiso   1.00
C818   C     0.03971   0.32099   0.47398   0.00000  Uiso   1.00
H819   H     0.04311   0.31901   0.51159   0.00000  Uiso   1.00
H820   H     0.06414   0.01435   0.46411   0.00000  Uiso   1.00
H821   H     0.05448   0.29191   0.46182   0.00000  Uiso   1.00
O822   O     0.15760   0.03713   0.58226   0.00000  Uiso   1.00
C823   C     0.19611   0.02287   0.61830   0.00000  Uiso   1.00
H824   H     0.21875   0.32878   0.61082   0.00000  Uiso   1.00
H825   H     0.17591   0.01243   0.64713   0.00000  Uiso   1.00
C826   C     0.23434   0.05829   0.63418   0.00000  Uiso   1.00
H827   H     0.21266   0.08712   0.63705   0.00000  Uiso   1.00
H828   H     0.25537   0.04977   0.33513   0.00000  Uiso   1.00
C829   C     0.27459   0.06672   0.60221   0.00000  Uiso   1.00
H830   H     0.29958   0.03916   0.60191   0.00000  Uiso   1.00
H831   H     0.29928   0.09408   0.61377   0.00000  Uiso   1.00
H832   H     0.25576   0.07395   0.56716   0.00000  Uiso   1.00
N833   N     0.21501   0.23179   0.38204   0.00000  Uiso   1.00
H834   H     0.23605   0.22224   0.41300   0.00000  Uiso   1.00
H835   H     0.18310   0.24940   0.38683   0.00000  Uiso   1.00
N836   N     0.09410   0.11849   0.61031   0.00000  Uiso   1.00
H837   H     0.05770   0.12514   0.61904   0.00000  Uiso   1.00
H838   H     0.10040   0.08665   0.61472   0.00000  Uiso   1.00
O839   O     0.22483   0.22535   0.62583   0.00000  Uiso   1.00
C840   C     0.27814   0.21534   0.62897   0.00000  Uiso   1.00
H841   H     0.29248   0.23360   0.60104   0.00000  Uiso   1.00
H842   H     0.28431   0.18165   0.62422   0.00000  Uiso   1.00
C843   C     0.31118   0.22881   0.33998   0.00000  Uiso   1.00
H844   H     0.30103   0.26094   0.34755   0.00000  Uiso   1.00
H845   H     0.30363   0.20718   0.36824   0.00000  Uiso   1.00
C846   C     0.03609   0.22738   0.33706   0.00000  Uiso   1.00
H847   H     0.04696   0.19527   0.66356   0.00000  Uiso   1.00
H848   H     0.05891   0.23673   0.36979   0.00000  Uiso   1.00
H849   H     0.04622   0.24902   0.64295   0.00000  Uiso   1.00
O850   O     0.09900   0.11534   0.37467   0.00000  Uiso   1.00
C851   C     0.10785   0.07213   0.37259   0.00000  Uiso   1.00
H852   H     0.12298   0.05981   0.40688   0.00000  Uiso   1.00
H853   H     0.13686   0.06423   0.35039   0.00000  Uiso   1.00
C854   C     0.05601   0.04941   0.35821   0.00000  Uiso   1.00
H855   H     0.02978   0.05385   0.38386   0.00000  Uiso   1.00
H856   H     0.03702   0.06279   0.65878   0.00000  Uiso   1.00
C857   C     0.06344   0.00299   0.35307   0.00000  Uiso   1.00
H858   H     0.08645   0.33133   0.65856   0.00000  Uiso   1.00
H859   H     0.02471   0.32092   0.34442   0.00000  Uiso   1.00
H860   H     0.08369   0.32192   0.38515   0.00000  Uiso   1.00
C861   C     0.50228   0.08674   0.50117   0.00000  Uiso   1.00
C862   C     0.50217   0.24666   0.49981   0.00000  Uiso   1.00
C863   C     0.40068   0.16604   0.48833   0.00000  Uiso   1.00
C864   C     0.59937   0.16726   0.51157   0.00000  Uiso   1.00
C865   C     0.34623   0.15921   0.48386   0.00000  Uiso   1.00
C866   C     0.65361   0.17443   0.51567   0.00000  Uiso   1.00
C867   C     0.52938   0.02376   0.46940   0.00000  Uiso   1.00
C868   C     0.49068   0.31003   0.53776   0.00000  Uiso   1.00
C869   C     0.53251   0.31432   0.47003   0.00000  Uiso   1.00
C870   C     0.49747   0.01901   0.54211   0.00000  Uiso   1.00
C871   C     0.50686   0.29096   0.50099   0.00000  Uiso   1.00
C872   C     0.50891   0.04268   0.50416   0.00000  Uiso   1.00
C873   C     0.52790   0.19572   0.35928   0.00000  Uiso   1.00
C874   C     0.46670   0.14086   0.63918   0.00000  Uiso   1.00
C875   C     0.53115   0.19391   0.64573   0.00000  Uiso   1.00
C876   C     0.46860   0.13909   0.35457   0.00000  Uiso   1.00
H877   H     0.54497   0.04208   0.44303   0.00000  Uiso   1.00
H878   H     0.47485   0.29224   0.56438   0.00000  Uiso   1.00
N879   N     0.49999   0.16666   0.61907   0.00000  Uiso   1.00
N880   N     0.50001   0.16668   0.38093   0.00000  Uiso   1.00
O881   O     0.50000   0.10558   0.53821   0.00000  Uiso   1.00
O882   O     0.50000   0.22775   0.46179   0.00000  Uiso   1.00
O883   O     0.50000   0.10559   0.46176   0.00000  Uiso   1.00
O884   O     0.50000   0.22774   0.53824   0.00000  Uiso   1.00
O885   O     0.42392   0.16666   0.52928   0.00000  Uiso   1.00
O886   O     0.57608   0.16667   0.47072   0.00000  Uiso   1.00
O887   O     0.42392   0.16667   0.45284   0.00000  Uiso   1.00
O888   O     0.57608   0.16666   0.54716   0.00000  Uiso   1.00
Zn889  Zn    0.50000   0.16666   0.55104   0.00000  Uiso   1.00
Zn890  Zn    0.50000   0.16667   0.44896   0.00000  Uiso   1.00
N891   N     0.65559   0.13123   0.44981   0.00000  Uiso   1.00
H892   H     0.34163   0.10286   0.45468   0.00000  Uiso   1.00
H893   H     0.66094   0.14377   0.41791   0.00000  Uiso   1.00
N894   N     0.34227   0.20464   0.54793   0.00000  Uiso   1.00
H895   H     0.36546   0.19000   0.57535   0.00000  Uiso   1.00
H896   H     0.36338   0.22774   0.53238   0.00000  Uiso   1.00
O897   O     0.56321   0.29604   0.44259   0.00000  Uiso   1.00
C898   C     0.61453   0.29167   0.46639   0.00000  Uiso   1.00
H899   H     0.63023   0.26208   0.45648   0.00000  Uiso   1.00
H900   H     0.61654   0.28919   0.50413   0.00000  Uiso   1.00
C901   C     0.64975   0.32752   0.45298   0.00000  Uiso   1.00
H902   H     0.64702   0.32959   0.41543   0.00000  Uiso   1.00
H903   H     0.63673   0.02406   0.46468   0.00000  Uiso   1.00
C904   C     0.37305   0.32099   0.47398   0.00000  Uiso   1.00
H905   H     0.37644   0.31901   0.51159   0.00000  Uiso   1.00
H906   H     0.39747   0.01435   0.46411   0.00000  Uiso   1.00
H907   H     0.38781   0.29191   0.46182   0.00000  Uiso   1.00
O908   O     0.49093   0.03713   0.58226   0.00000  Uiso   1.00
C909   C     0.52945   0.02287   0.61830   0.00000  Uiso   1.00
H910   H     0.55208   0.32878   0.61082   0.00000  Uiso   1.00
H911   H     0.50924   0.01243   0.64713   0.00000  Uiso   1.00
C912   C     0.56767   0.05829   0.63418   0.00000  Uiso   1.00
H913   H     0.54599   0.08712   0.63705   0.00000  Uiso   1.00
H914   H     0.58870   0.04977   0.33513   0.00000  Uiso   1.00
C915   C     0.60792   0.06672   0.60221   0.00000  Uiso   1.00
H916   H     0.63292   0.03916   0.60191   0.00000  Uiso   1.00
H917   H     0.63261   0.09408   0.61377   0.00000  Uiso   1.00
H918   H     0.58909   0.07395   0.56716   0.00000  Uiso   1.00
N919   N     0.54835   0.23179   0.38204   0.00000  Uiso   1.00
H920   H     0.56938   0.22224   0.41300   0.00000  Uiso   1.00
H921   H     0.51643   0.24940   0.38683   0.00000  Uiso   1.00
N922   N     0.42743   0.11849   0.61031   0.00000  Uiso   1.00
H923   H     0.39103   0.12514   0.61904   0.00000  Uiso   1.00
H924   H     0.43374   0.08665   0.61472   0.00000  Uiso   1.00
O925   O     0.55817   0.22535   0.62583   0.00000  Uiso   1.00
C926   C     0.61148   0.21534   0.62897   0.00000  Uiso   1.00
H927   H     0.62582   0.23360   0.60104   0.00000  Uiso   1.00
H928   H     0.61765   0.18165   0.62422   0.00000  Uiso   1.00
C929   C     0.64451   0.22881   0.33998   0.00000  Uiso   1.00
H930   H     0.63436   0.26094   0.34755   0.00000  Uiso   1.00
H931   H     0.63697   0.20718   0.36824   0.00000  Uiso   1.00
C932   C     0.36942   0.22738   0.33706   0.00000  Uiso   1.00
H933   H     0.38030   0.19527   0.66356   0.00000  Uiso   1.00
H934   H     0.39224   0.23673   0.36979   0.00000  Uiso   1.00
H935   H     0.37956   0.24902   0.64295   0.00000  Uiso   1.00
O936   O     0.43233   0.11534   0.37467   0.00000  Uiso   1.00
C937   C     0.44119   0.07213   0.37259   0.00000  Uiso   1.00
H938   H     0.45631   0.05981   0.40688   0.00000  Uiso   1.00
H939   H     0.47019   0.06423   0.35039   0.00000  Uiso   1.00
C940   C     0.38934   0.04941   0.35821   0.00000  Uiso   1.00
H941   H     0.36311   0.05385   0.38386   0.00000  Uiso   1.00
H942   H     0.37035   0.06279   0.65878   0.00000  Uiso   1.00
C943   C     0.39678   0.00299   0.35307   0.00000  Uiso   1.00
H944   H     0.41978   0.33133   0.65856   0.00000  Uiso   1.00
H945   H     0.35804   0.32092   0.34442   0.00000  Uiso   1.00
H946   H     0.41703   0.32192   0.38515   0.00000  Uiso   1.00
C947   C     0.83561   0.08674   0.50117   0.00000  Uiso   1.00
C948   C     0.83550   0.24666   0.49981   0.00000  Uiso   1.00
C949   C     0.73401   0.16604   0.48833   0.00000  Uiso   1.00
C950   C     0.93270   0.16726   0.51157   0.00000  Uiso   1.00
C951   C     0.67956   0.15921   0.48386   0.00000  Uiso   1.00
C952   C     0.98695   0.17443   0.51567   0.00000  Uiso   1.00
C953   C     0.86271   0.02376   0.46940   0.00000  Uiso   1.00
C954   C     0.82402   0.31003   0.53776   0.00000  Uiso   1.00
C955   C     0.86585   0.31432   0.47003   0.00000  Uiso   1.00
C956   C     0.83080   0.01901   0.54211   0.00000  Uiso   1.00
C957   C     0.84019   0.29096   0.50099   0.00000  Uiso   1.00
C958   C     0.84225   0.04268   0.50416   0.00000  Uiso   1.00
C959   C     0.86123   0.19572   0.35928   0.00000  Uiso   1.00
C960   C     0.80003   0.14086   0.63918   0.00000  Uiso   1.00
C961   C     0.86449   0.19391   0.64573   0.00000  Uiso   1.00
C962   C     0.80194   0.13909   0.35457   0.00000  Uiso   1.00
H963   H     0.87831   0.04208   0.44303   0.00000  Uiso   1.00
H964   H     0.80819   0.29224   0.56438   0.00000  Uiso   1.00
N965   N     0.83332   0.16666   0.61907   0.00000  Uiso   1.00
N966   N     0.83335   0.16668   0.38093   0.00000  Uiso   1.00
O967   O     0.83333   0.10558   0.53821   0.00000  Uiso   1.00
O968   O     0.83334   0.22775   0.46179   0.00000  Uiso   1.00
O969   O     0.83333   0.10559   0.46176   0.00000  Uiso   1.00
O970   O     0.83334   0.22774   0.53824   0.00000  Uiso   1.00
O971   O     0.75725   0.16666   0.52928   0.00000  Uiso   1.00
O972   O     0.90942   0.16667   0.47072   0.00000  Uiso   1.00
O973   O     0.75725   0.16667   0.45284   0.00000  Uiso   1.00
O974   O     0.90942   0.16666   0.54716   0.00000  Uiso   1.00
Zn975  Zn    0.83333   0.16666   0.55104   0.00000  Uiso   1.00
Zn976  Zn    0.83333   0.16667   0.44896   0.00000  Uiso   1.00
N977   N     0.98892   0.13123   0.44981   0.00000  Uiso   1.00
H978   H     0.67497   0.10286   0.45468   0.00000  Uiso   1.00
H979   H     0.99428   0.14377   0.41791   0.00000  Uiso   1.00
N980   N     0.67561   0.20464   0.54793   0.00000  Uiso   1.00
H981   H     0.69880   0.19000   0.57535   0.00000  Uiso   1.00
H982   H     0.69671   0.22774   0.53238   0.00000  Uiso   1.00
O983   O     0.89654   0.29604   0.44259   0.00000  Uiso   1.00
C984   C     0.94787   0.29167   0.46639   0.00000  Uiso   1.00
H985   H     0.96356   0.26208   0.45648   0.00000  Uiso   1.00
H986   H     0.94988   0.28919   0.50413   0.00000  Uiso   1.00
C987   C     0.98308   0.32752   0.45298   0.00000  Uiso   1.00
H988   H     0.98035   0.32959   0.41543   0.00000  Uiso   1.00
H989   H     0.97007   0.02406   0.46468   0.00000  Uiso   1.00
C990   C     0.70638   0.32099   0.47398   0.00000  Uiso   1.00
H991   H     0.70977   0.31901   0.51159   0.00000  Uiso   1.00
H992   H     0.73081   0.01435   0.46411   0.00000  Uiso   1.00
H993   H     0.72114   0.29191   0.46182   0.00000  Uiso   1.00
O994   O     0.82427   0.03713   0.58226   0.00000  Uiso   1.00
C995   C     0.86278   0.02287   0.61830   0.00000  Uiso   1.00
H996   H     0.88541   0.32878   0.61082   0.00000  Uiso   1.00
H997   H     0.84258   0.01243   0.64713   0.00000  Uiso   1.00
C998   C     0.90101   0.05829   0.63418   0.00000  Uiso   1.00
H999   H     0.87933   0.08712   0.63705   0.00000  Uiso   1.00
H1000  H     0.92203   0.04977   0.33513   0.00000  Uiso   1.00
C1001  C     0.94126   0.06672   0.60221   0.00000  Uiso   1.00
H1002  H     0.96625   0.03916   0.60191   0.00000  Uiso   1.00
H1003  H     0.96595   0.09408   0.61377   0.00000  Uiso   1.00
H1004  H     0.92242   0.07395   0.56716   0.00000  Uiso   1.00
N1005  N     0.88168   0.23179   0.38204   0.00000  Uiso   1.00
H1006  H     0.90272   0.22224   0.41300   0.00000  Uiso   1.00
H1007  H     0.84976   0.24940   0.38683   0.00000  Uiso   1.00
N1008  N     0.76077   0.11849   0.61031   0.00000  Uiso   1.00
H1009  H     0.72436   0.12514   0.61904   0.00000  Uiso   1.00
H1010  H     0.76707   0.08665   0.61472   0.00000  Uiso   1.00
O1011  O     0.89150   0.22535   0.62583   0.00000  Uiso   1.00
C1012  C     0.94481   0.21534   0.62897   0.00000  Uiso   1.00
H1013  H     0.95915   0.23360   0.60104   0.00000  Uiso   1.00
H1014  H     0.95098   0.18165   0.62422   0.00000  Uiso   1.00
C1015  C     0.97785   0.22881   0.33998   0.00000  Uiso   1.00
H1016  H     0.96769   0.26094   0.34755   0.00000  Uiso   1.00
H1017  H     0.97030   0.20718   0.36824   0.00000  Uiso   1.00
C1018  C     0.70276   0.22738   0.33706   0.00000  Uiso   1.00
H1019  H     0.71363   0.19527   0.66356   0.00000  Uiso   1.00
H1020  H     0.72557   0.23673   0.36979   0.00000  Uiso   1.00
H1021  H     0.71289   0.24902   0.64295   0.00000  Uiso   1.00
O1022  O     0.76567   0.11534   0.37467   0.00000  Uiso   1.00
C1023  C     0.77452   0.07213   0.37259   0.00000  Uiso   1.00
H1024  H     0.78965   0.05981   0.40688   0.00000  Uiso   1.00
H1025  H     0.80353   0.06423   0.35039   0.00000  Uiso   1.00
C1026  C     0.72268   0.04941   0.35821   0.00000  Uiso   1.00
H1027  H     0.69645   0.05385   0.38386   0.00000  Uiso   1.00
H1028  H     0.70369   0.06279   0.65878   0.00000  Uiso   1.00
C1029  C     0.73011   0.00299   0.35307   0.00000  Uiso   1.00
H1030  H     0.75311   0.33133   0.65856   0.00000  Uiso   1.00
H1031  H     0.69137   0.32092   0.34442   0.00000  Uiso   1.00
H1032  H     0.75036   0.32192   0.38515   0.00000  Uiso   1.00
C1033  C     0.16895   0.42007   0.50117   0.00000  Uiso   1.00
C1034  C     0.16883   0.57999   0.49981   0.00000  Uiso   1.00
C1035  C     0.06735   0.49937   0.48833   0.00000  Uiso   1.00
C1036  C     0.26603   0.50059   0.51157   0.00000  Uiso   1.00
C1037  C     0.01290   0.49254   0.48386   0.00000  Uiso   1.00
C1038  C     0.32028   0.50777   0.51567   0.00000  Uiso   1.00
C1039  C     0.19604   0.35709   0.46940   0.00000  Uiso   1.00
C1040  C     0.15735   0.64337   0.53776   0.00000  Uiso   1.00
C1041  C     0.19918   0.64765   0.47003   0.00000  Uiso   1.00
C1042  C     0.16414   0.35235   0.54211   0.00000  Uiso   1.00
C1043  C     0.17353   0.62430   0.50099   0.00000  Uiso   1.00
C1044  C     0.17558   0.37601   0.50416   0.00000  Uiso   1.00
C1045  C     0.19456   0.52905   0.35928   0.00000  Uiso   1.00
C1046  C     0.13336   0.47419   0.63918   0.00000  Uiso   1.00
C1047  C     0.19782   0.52724   0.64573   0.00000  Uiso   1.00
C1048  C     0.13527   0.47242   0.35457   0.00000  Uiso   1.00
H1049  H     0.21164   0.37541   0.44303   0.00000  Uiso   1.00
H1050  H     0.14152   0.62557   0.56438   0.00000  Uiso   1.00
N1051  N     0.16665   0.49999   0.61907   0.00000  Uiso   1.00
N1052  N     0.16668   0.50001   0.38093   0.00000  Uiso   1.00
O1053  O     0.16666   0.43892   0.53821   0.00000  Uiso   1.00
O1054  O     0.16667   0.56108   0.46179   0.00000  Uiso   1.00
O1055  O     0.16666   0.43893   0.46176   0.00000  Uiso   1.00
O1056  O     0.16667   0.56107   0.53824   0.00000  Uiso   1.00
O1057  O     0.09058   0.50000   0.52928   0.00000  Uiso   1.00
O1058  O     0.24275   0.50000   0.47072   0.00000  Uiso   1.00
O1059  O     0.09058   0.50000   0.45284   0.00000  Uiso   1.00
O1060  O     0.24275   0.50000   0.54716   0.00000  Uiso   1.00
Zn1061 Zn    0.16667   0.49999   0.55104   0.00000  Uiso   1.00
Zn1062 Zn    0.16667   0.50001   0.44896   0.00000  Uiso   1.00
N1063  N     0.32225   0.46456   0.44981   0.00000  Uiso   1.00
H1064  H     0.00830   0.43620   0.45468   0.00000  Uiso   1.00
H1065  H     0.32761   0.47711   0.41791   0.00000  Uiso   1.00
N1066  N     0.00894   0.53797   0.54793   0.00000  Uiso   1.00
H1067  H     0.03213   0.52334   0.57535   0.00000  Uiso   1.00
H1068  H     0.03004   0.56108   0.53238   0.00000  Uiso   1.00
O1069  O     0.22987   0.62937   0.44259   0.00000  Uiso   1.00
C1070  C     0.28120   0.62501   0.46639   0.00000  Uiso   1.00
H1071  H     0.29689   0.59541   0.45648   0.00000  Uiso   1.00
H1072  H     0.28321   0.62252   0.50413   0.00000  Uiso   1.00
C1073  C     0.31642   0.66085   0.45298   0.00000  Uiso   1.00
H1074  H     0.31368   0.66292   0.41543   0.00000  Uiso   1.00
H1075  H     0.30340   0.35739   0.46468   0.00000  Uiso   1.00
C1076  C     0.03971   0.65432   0.47398   0.00000  Uiso   1.00
H1077  H     0.04311   0.65234   0.51159   0.00000  Uiso   1.00
H1078  H     0.06414   0.34768   0.46411   0.00000  Uiso   1.00
H1079  H     0.05448   0.62524   0.46182   0.00000  Uiso   1.00
O1080  O     0.15760   0.37046   0.58226   0.00000  Uiso   1.00
C1081  C     0.19611   0.35620   0.61830   0.00000  Uiso   1.00
H1082  H     0.21875   0.66212   0.61082   0.00000  Uiso   1.00
H1083  H     0.17591   0.34576   0.64713   0.00000  Uiso   1.00
C1084  C     0.23434   0.39162   0.63418   0.00000  Uiso   1.00
H1085  H     0.21266   0.42046   0.63705   0.00000  Uiso   1.00
H1086  H     0.25537   0.38311   0.33513   0.00000  Uiso   1.00
C1087  C     0.27459   0.40006   0.60221   0.00000  Uiso   1.00
H1088  H     0.29958   0.37250   0.60191   0.00000  Uiso   1.00
H1089  H     0.29928   0.42742   0.61377   0.00000  Uiso   1.00
H1090  H     0.25576   0.40728   0.56716   0.00000  Uiso   1.00
N1091  N     0.21501   0.56512   0.38204   0.00000  Uiso   1.00
H1092  H     0.23605   0.55558   0.41300   0.00000  Uiso   1.00
H1093  H     0.18310   0.58274   0.38683   0.00000  Uiso   1.00
N1094  N     0.09410   0.45182   0.61031   0.00000  Uiso   1.00
H1095  H     0.05770   0.45847   0.61904   0.00000  Uiso   1.00
H1096  H     0.10040   0.41998   0.61472   0.00000  Uiso   1.00
O1097  O     0.22483   0.55869   0.62583   0.00000  Uiso   1.00
C1098  C     0.27814   0.54867   0.62897   0.00000  Uiso   1.00
H1099  H     0.29248   0.56694   0.60104   0.00000  Uiso   1.00
H1100  H     0.28431   0.51499   0.62422   0.00000  Uiso   1.00
C1101  C     0.31118   0.56215   0.33998   0.00000  Uiso   1.00
H1102  H     0.30103   0.59427   0.34755   0.00000  Uiso   1.00
H1103  H     0.30363   0.54051   0.36824   0.00000  Uiso   1.00
C1104  C     0.03609   0.56071   0.33706   0.00000  Uiso   1.00
H1105  H     0.04696   0.52861   0.66356   0.00000  Uiso   1.00
H1106  H     0.05891   0.57006   0.36979   0.00000  Uiso   1.00
H1107  H     0.04622   0.58235   0.64295   0.00000  Uiso   1.00
O1108  O     0.09900   0.44867   0.37467   0.00000  Uiso   1.00
C1109  C     0.10785   0.40547   0.37259   0.00000  Uiso   1.00
H1110  H     0.12298   0.39314   0.40688   0.00000  Uiso   1.00
H1111  H     0.13686   0.39756   0.35039   0.00000  Uiso   1.00
C1112  C     0.05601   0.38274   0.35821   0.00000  Uiso   1.00
H1113  H     0.02978   0.38718   0.38386   0.00000  Uiso   1.00
H1114  H     0.03702   0.39612   0.65878   0.00000  Uiso   1.00
C1115  C     0.06344   0.33632   0.35307   0.00000  Uiso   1.00
H1116  H     0.08645   0.66466   0.65856   0.00000  Uiso   1.00
H1117  H     0.02471   0.65426   0.34442   0.00000  Uiso   1.00
H1118  H     0.08369   0.65525   0.38515   0.00000  Uiso   1.00
C1119  C     0.50228   0.42007   0.50117   0.00000  Uiso   1.00
C1120  C     0.50217   0.57999   0.49981   0.00000  Uiso   1.00
C1121  C     0.40068   0.49937   0.48833   0.00000  Uiso   1.00
C1122  C     0.59937   0.50059   0.51157   0.00000  Uiso   1.00
C1123  C     0.34623   0.49254   0.48386   0.00000  Uiso   1.00
C1124  C     0.65361   0.50777   0.51567   0.00000  Uiso   1.00
C1125  C     0.52938   0.35709   0.46940   0.00000  Uiso   1.00
C1126  C     0.49068   0.64337   0.53776   0.00000  Uiso   1.00
C1127  C     0.53251   0.64765   0.47003   0.00000  Uiso   1.00
C1128  C     0.49747   0.35235   0.54211   0.00000  Uiso   1.00
C1129  C     0.50686   0.62430   0.50099   0.00000  Uiso   1.00
C1130  C     0.50891   0.37601   0.50416   0.00000  Uiso   1.00
C1131  C     0.52790   0.52905   0.35928   0.00000  Uiso   1.00
C1132  C     0.46670   0.47419   0.63918   0.00000  Uiso   1.00
C1133  C     0.53115   0.52724   0.64573   0.00000  Uiso   1.00
C1134  C     0.46860   0.47242   0.35457   0.00000  Uiso   1.00
H1135  H     0.54497   0.37541   0.44303   0.00000  Uiso   1.00
H1136  H     0.47485   0.62557   0.56438   0.00000  Uiso   1.00
N1137  N     0.49999   0.49999   0.61907   0.00000  Uiso   1.00
N1138  N     0.50001   0.50001   0.38093   0.00000  Uiso   1.00
O1139  O     0.50000   0.43892   0.53821   0.00000  Uiso   1.00
O1140  O     0.50000   0.56108   0.46179   0.00000  Uiso   1.00
O1141  O     0.50000   0.43893   0.46176   0.00000  Uiso   1.00
O1142  O     0.50000   0.56107   0.53824   0.00000  Uiso   1.00
O1143  O     0.42392   0.50000   0.52928   0.00000  Uiso   1.00
O1144  O     0.57608   0.50000   0.47072   0.00000  Uiso   1.00
O1145  O     0.42392   0.50000   0.45284   0.00000  Uiso   1.00
O1146  O     0.57608   0.50000   0.54716   0.00000  Uiso   1.00
Zn1147 Zn    0.50000   0.49999   0.55104   0.00000  Uiso   1.00
Zn1148 Zn    0.50000   0.50001   0.44896   0.00000  Uiso   1.00
N1149  N     0.65559   0.46456   0.44981   0.00000  Uiso   1.00
H1150  H     0.34163   0.43620   0.45468   0.00000  Uiso   1.00
H1151  H     0.66094   0.47711   0.41791   0.00000  Uiso   1.00
N1152  N     0.34227   0.53797   0.54793   0.00000  Uiso   1.00
H1153  H     0.36546   0.52334   0.57535   0.00000  Uiso   1.00
H1154  H     0.36338   0.56108   0.53238   0.00000  Uiso   1.00
O1155  O     0.56321   0.62937   0.44259   0.00000  Uiso   1.00
C1156  C     0.61453   0.62501   0.46639   0.00000  Uiso   1.00
H1157  H     0.63023   0.59541   0.45648   0.00000  Uiso   1.00
H1158  H     0.61654   0.62252   0.50413   0.00000  Uiso   1.00
C1159  C     0.64975   0.66085   0.45298   0.00000  Uiso   1.00
H1160  H     0.64702   0.66292   0.41543   0.00000  Uiso   1.00
H1161  H     0.63673   0.35739   0.46468   0.00000  Uiso   1.00
C1162  C     0.37305   0.65432   0.47398   0.00000  Uiso   1.00
H1163  H     0.37644   0.65234   0.51159   0.00000  Uiso   1.00
H1164  H     0.39747   0.34768   0.46411   0.00000  Uiso   1.00
H1165  H     0.38781   0.62524   0.46182   0.00000  Uiso   1.00
O1166  O     0.49093   0.37046   0.58226   0.00000  Uiso   1.00
C1167  C     0.52945   0.35620   0.61830   0.00000  Uiso   1.00
H1168  H     0.55208   0.66212   0.61082   0.00000  Uiso   1.00
H1169  H     0.50924   0.34576   0.64713   0.00000  Uiso   1.00
C1170  C     0.56767   0.39162   0.63418   0.00000  Uiso   1.00
H1171  H     0.54599   0.42046   0.63705   0.00000  Uiso   1.00
H1172  H     0.58870   0.38311   0.33513   0.00000  Uiso   1.00
C1173  C     0.60792   0.40006   0.60221   0.00000  Uiso   1.00
H1174  H     0.63292   0.37250   0.60191   0.00000  Uiso   1.00
H1175  H     0.63261   0.42742   0.61377   0.00000  Uiso   1.00
H1176  H     0.58909   0.40728   0.56716   0.00000  Uiso   1.00
N1177  N     0.54835   0.56512   0.38204   0.00000  Uiso   1.00
H1178  H     0.56938   0.55558   0.41300   0.00000  Uiso   1.00
H1179  H     0.51643   0.58274   0.38683   0.00000  Uiso   1.00
N1180  N     0.42743   0.45182   0.61031   0.00000  Uiso   1.00
H1181  H     0.39103   0.45847   0.61904   0.00000  Uiso   1.00
H1182  H     0.43374   0.41998   0.61472   0.00000  Uiso   1.00
O1183  O     0.55817   0.55869   0.62583   0.00000  Uiso   1.00
C1184  C     0.61148   0.54867   0.62897   0.00000  Uiso   1.00
H1185  H     0.62582   0.56694   0.60104   0.00000  Uiso   1.00
H1186  H     0.61765   0.51499   0.62422   0.00000  Uiso   1.00
C1187  C     0.64451   0.56215   0.33998   0.00000  Uiso   1.00
H1188  H     0.63436   0.59427   0.34755   0.00000  Uiso   1.00
H1189  H     0.63697   0.54051   0.36824   0.00000  Uiso   1.00
C1190  C     0.36942   0.56071   0.33706   0.00000  Uiso   1.00
H1191  H     0.38030   0.52861   0.66356   0.00000  Uiso   1.00
H1192  H     0.39224   0.57006   0.36979   0.00000  Uiso   1.00
H1193  H     0.37956   0.58235   0.64295   0.00000  Uiso   1.00
O1194  O     0.43233   0.44867   0.37467   0.00000  Uiso   1.00
C1195  C     0.44119   0.40547   0.37259   0.00000  Uiso   1.00
H1196  H     0.45631   0.39314   0.40688   0.00000  Uiso   1.00
H1197  H     0.47019   0.39756   0.35039   0.00000  Uiso   1.00
C1198  C     0.38934   0.38274   0.35821   0.00000  Uiso   1.00
H1199  H     0.36311   0.38718   0.38386   0.00000  Uiso   1.00
H1200  H     0.37035   0.39612   0.65878   0.00000  Uiso   1.00
C1201  C     0.39678   0.33632   0.35307   0.00000  Uiso   1.00
H1202  H     0.41978   0.66466   0.65856   0.00000  Uiso   1.00
H1203  H     0.35804   0.65426   0.34442   0.00000  Uiso   1.00
H1204  H     0.41703   0.65525   0.38515   0.00000  Uiso   1.00
C1205  C     0.83561   0.42007   0.50117   0.00000  Uiso   1.00
C1206  C     0.83550   0.57999   0.49981   0.00000  Uiso   1.00
C1207  C     0.73401   0.49937   0.48833   0.00000  Uiso   1.00
C1208  C     0.93270   0.50059   0.51157   0.00000  Uiso   1.00
C1209  C     0.67956   0.49254   0.48386   0.00000  Uiso   1.00
C1210  C     0.98695   0.50777   0.51567   0.00000  Uiso   1.00
C1211  C     0.86271   0.35709   0.46940   0.00000  Uiso   1.00
C1212  C     0.82402   0.64337   0.53776   0.00000  Uiso   1.00
C1213  C     0.86585   0.64765   0.47003   0.00000  Uiso   1.00
C1214  C     0.83080   0.35235   0.54211   0.00000  Uiso   1.00
C1215  C     0.84019   0.62430   0.50099   0.00000  Uiso   1.00
C1216  C     0.84225   0.37601   0.50416   0.00000  Uiso   1.00
C1217  C     0.86123   0.52905   0.35928   0.00000  Uiso   1.00
C1218  C     0.80003   0.47419   0.63918   0.00000  Uiso   1.00
C1219  C     0.86449   0.52724   0.64573   0.00000  Uiso   1.00
C1220  C     0.80194   0.47242   0.35457   0.00000  Uiso   1.00
H1221  H     0.87831   0.37541   0.44303   0.00000  Uiso   1.00
H1222  H     0.80819   0.62557   0.56438   0.00000  Uiso   1.00
N1223  N     0.83332   0.49999   0.61907   0.00000  Uiso   1.00
N1224  N     0.83335   0.50001   0.38093   0.00000  Uiso   1.00
O1225  O     0.83333   0.43892   0.53821   0.00000  Uiso   1.00
O1226  O     0.83334   0.56108   0.46179   0.00000  Uiso   1.00
O1227  O     0.83333   0.43893   0.46176   0.00000  Uiso   1.00
O1228  O     0.83334   0.56107   0.53824   0.00000  Uiso   1.00
O1229  O     0.75725   0.50000   0.52928   0.00000  Uiso   1.00
O1230  O     0.90942   0.50000   0.47072   0.00000  Uiso   1.00
O1231  O     0.75725   0.50000   0.45284   0.00000  Uiso   1.00
O1232  O     0.90942   0.50000   0.54716   0.00000  Uiso   1.00
Zn1233 Zn    0.83333   0.49999   0.55104   0.00000  Uiso   1.00
Zn1234 Zn    0.83333   0.50001   0.44896   0.00000  Uiso   1.00
N1235  N     0.98892   0.46456   0.44981   0.00000  Uiso   1.00
H1236  H     0.67497   0.43620   0.45468   0.00000  Uiso   1.00
H1237  H     0.99428   0.47711   0.41791   0.00000  Uiso   1.00
N1238  N     0.67561   0.53797   0.54793   0.00000  Uiso   1.00
H1239  H     0.69880   0.52334   0.57535   0.00000  Uiso   1.00
H1240  H     0.69671   0.56108   0.53238   0.00000  Uiso   1.00
O1241  O     0.89654   0.62937   0.44259   0.00000  Uiso   1.00
C1242  C     0.94787   0.62501   0.46639   0.00000  Uiso   1.00
H1243  H     0.96356   0.59541   0.45648   0.00000  Uiso   1.00
H1244  H     0.94988   0.62252   0.50413   0.00000  Uiso   1.00
C1245  C     0.98308   0.66085   0.45298   0.00000  Uiso   1.00
H1246  H     0.98035   0.66292   0.41543   0.00000  Uiso   1.00
H1247  H     0.97007   0.35739   0.46468   0.00000  Uiso   1.00
C1248  C     0.70638   0.65432   0.47398   0.00000  Uiso   1.00
H1249  H     0.70977   0.65234   0.51159   0.00000  Uiso   1.00
H1250  H     0.73081   0.34768   0.46411   0.00000  Uiso   1.00
H1251  H     0.72114   0.62524   0.46182   0.00000  Uiso   1.00
O1252  O     0.82427   0.37046   0.58226   0.00000  Uiso   1.00
C1253  C     0.86278   0.35620   0.61830   0.00000  Uiso   1.00
H1254  H     0.88541   0.66212   0.61082   0.00000  Uiso   1.00
H1255  H     0.84258   0.34576   0.64713   0.00000  Uiso   1.00
C1256  C     0.90101   0.39162   0.63418   0.00000  Uiso   1.00
H1257  H     0.87933   0.42046   0.63705   0.00000  Uiso   1.00
H1258  H     0.92203   0.38311   0.33513   0.00000  Uiso   1.00
C1259  C     0.94126   0.40006   0.60221   0.00000  Uiso   1.00
H1260  H     0.96625   0.37250   0.60191   0.00000  Uiso   1.00
H1261  H     0.96595   0.42742   0.61377   0.00000  Uiso   1.00
H1262  H     0.92242   0.40728   0.56716   0.00000  Uiso   1.00
N1263  N     0.88168   0.56512   0.38204   0.00000  Uiso   1.00
H1264  H     0.90272   0.55558   0.41300   0.00000  Uiso   1.00
H1265  H     0.84976   0.58274   0.38683   0.00000  Uiso   1.00
N1266  N     0.76077   0.45182   0.61031   0.00000  Uiso   1.00
H1267  H     0.72436   0.45847   0.61904   0.00000  Uiso   1.00
H1268  H     0.76707   0.41998   0.61472   0.00000  Uiso   1.00
O1269  O     0.89150   0.55869   0.62583   0.00000  Uiso   1.00
C1270  C     0.94481   0.54867   0.62897   0.00000  Uiso   1.00
H1271  H     0.95915   0.56694   0.60104   0.00000  Uiso   1.00
H1272  H     0.95098   0.51499   0.62422   0.00000  Uiso   1.00
C1273  C     0.97785   0.56215   0.33998   0.00000  Uiso   1.00
H1274  H     0.96769   0.59427   0.34755   0.00000  Uiso   1.00
H1275  H     0.97030   0.54051   0.36824   0.00000  Uiso   1.00
C1276  C     0.70276   0.56071   0.33706   0.00000  Uiso   1.00
H1277  H     0.71363   0.52861   0.66356   0.00000  Uiso   1.00
H1278  H     0.72557   0.57006   0.36979   0.00000  Uiso   1.00
H1279  H     0.71289   0.58235   0.64295   0.00000  Uiso   1.00
O1280  O     0.76567   0.44867   0.37467   0.00000  Uiso   1.00
C1281  C     0.77452   0.40547   0.37259   0.00000  Uiso   1.00
H1282  H     0.78965   0.39314   0.40688   0.00000  Uiso   1.00
H1283  H     0.80353   0.39756   0.35039   0.00000  Uiso   1.00
C1284  C     0.72268   0.38274   0.35821   0.00000  Uiso   1.00
H1285  H     0.69645   0.38718   0.38386   0.00000  Uiso   1.00
H1286  H     0.70369   0.39612   0.65878   0.00000  Uiso   1.00
C1287  C     0.73011   0.33632   0.35307   0.00000  Uiso   1.00
H1288  H     0.75311   0.66466   0.65856   0.00000  Uiso   1.00
H1289  H     0.69137   0.65426   0.34442   0.00000  Uiso   1.00
H1290  H     0.75036   0.65525   0.38515   0.00000  Uiso   1.00
C1291  C     0.16895   0.75341   0.50117   0.00000  Uiso   1.00
C1292  C     0.16883   0.91332   0.49981   0.00000  Uiso   1.00
C1293  C     0.06735   0.83270   0.48833   0.00000  Uiso   1.00
C1294  C     0.26603   0.83392   0.51157   0.00000  Uiso   1.00
C1295  C     0.01290   0.82587   0.48386   0.00000  Uiso   1.00
C1296  C     0.32028   0.84110   0.51567   0.00000  Uiso   1.00
C1297  C     0.19604   0.69043   0.46940   0.00000  Uiso   1.00
C1298  C     0.15735   0.97670   0.53776   0.00000  Uiso   1.00
C1299  C     0.19918   0.98099   0.47003   0.00000  Uiso   1.00
C1300  C     0.16414   0.68568   0.54211   0.00000  Uiso   1.00
C1301  C     0.17353   0.95763   0.50099   0.00000  Uiso   1.00
C1302  C     0.17558   0.70934   0.50416   0.00000  Uiso   1.00
C1303  C     0.19456   0.86239   0.35928   0.00000  Uiso   1.00
C1304  C     0.13336   0.80753   0.63918   0.00000  Uiso   1.00
C1305  C     0.19782   0.86058   0.64573   0.00000  Uiso   1.00
C1306  C     0.13527   0.80576   0.35457   0.00000  Uiso   1.00
H1307  H     0.21164   0.70874   0.44303   0.00000  Uiso   1.00
H1308  H     0.14152   0.95891   0.56438   0.00000  Uiso   1.00
N1309  N     0.16665   0.83332   0.61907   0.00000  Uiso   1.00
N1310  N     0.16668   0.83334   0.38093   0.00000  Uiso   1.00
O1311  O     0.16666   0.77225   0.53821   0.00000  Uiso   1.00
O1312  O     0.16667   0.89442   0.46179   0.00000  Uiso   1.00
O1313  O     0.16666   0.77226   0.46176   0.00000  Uiso   1.00
O1314  O     0.16667   0.89441   0.53824   0.00000  Uiso   1.00
O1315  O     0.09058   0.83333   0.52928   0.00000  Uiso   1.00
O1316  O     0.24275   0.83334   0.47072   0.00000  Uiso   1.00
O1317  O     0.09058   0.83334   0.45284   0.00000  Uiso   1.00
O1318  O     0.24275   0.83333   0.54716   0.00000  Uiso   1.00
Zn1319 Zn    0.16667   0.83333   0.55104   0.00000  Uiso   1.00
Zn1320 Zn    0.16667   0.83334   0.44896   0.00000  Uiso   1.00
N1321  N     0.32225   0.79789   0.44981   0.00000  Uiso   1.00
H1322  H     0.00830   0.76953   0.45468   0.00000  Uiso   1.00
H1323  H     0.32761   0.81044   0.41791   0.00000  Uiso   1.00
N1324  N     0.00894   0.87131   0.54793   0.00000  Uiso   1.00
H1325  H     0.03213   0.85667   0.57535   0.00000  Uiso   1.00
H1326  H     0.03004   0.89441   0.53238   0.00000  Uiso   1.00
O1327  O     0.22987   0.96271   0.44259   0.00000  Uiso   1.00
C1328  C     0.28120   0.95834   0.46639   0.00000  Uiso   1.00
H1329  H     0.29689   0.92875   0.45648   0.00000  Uiso   1.00
H1330  H     0.28321   0.95585   0.50413   0.00000  Uiso   1.00
C1331  C     0.31642   0.99418   0.45298   0.00000  Uiso   1.00
H1332  H     0.31368   0.99625   0.41543   0.00000  Uiso   1.00
H1333  H     0.30340   0.69072   0.46468   0.00000  Uiso   1.00
C1334  C     0.03971   0.98766   0.47398   0.00000  Uiso   1.00
H1335  H     0.04311   0.98567   0.51159   0.00000  Uiso   1.00
H1336  H     0.06414   0.68101   0.46411   0.00000  Uiso   1.00
H1337  H     0.05448   0.95857   0.46182   0.00000  Uiso   1.00
O1338  O     0.15760   0.70379   0.58226   0.00000  Uiso   1.00
C1339  C     0.19611   0.68953   0.61830   0.00000  Uiso   1.00
H1340  H     0.21875   0.99545   0.61082   0.00000  Uiso   1.00
H1341  H     0.17591   0.67910   0.64713   0.00000  Uiso   1.00
C1342  C     0.23434   0.72495   0.63418   0.00000  Uiso   1.00
H1343  H     0.21266   0.75379   0.63705   0.00000  Uiso   1.00
H1344  H     0.25537   0.71644   0.33513   0.00000  Uiso   1.00
C1345  C     0.27459   0.73339   0.60221   0.00000  Uiso   1.00
H1346  H     0.29958   0.70583   0.60191   0.00000  Uiso   1.00
H1347  H     0.29928   0.76075   0.61377   0.00000  Uiso   1.00
H1348  H     0.25576   0.74061   0.56716   0.00000  Uiso   1.00
N1349  N     0.21501   0.89845   0.38204   0.00000  Uiso   1.00
H1350  H     0.23605   0.88891   0.41300   0.00000  Uiso   1.00
H1351  H     0.18310   0.91607   0.38683   0.00000  Uiso   1.00
N1352  N     0.09410   0.78515   0.61031   0.00000  Uiso   1.00
H1353  H     0.05770   0.79181   0.61904   0.00000  Uiso   1.00
H1354  H     0.10040   0.75331   0.61472   0.00000  Uiso   1.00
O1355  O     0.22483   0.89202   0.62583   0.00000  Uiso   1.00
C1356  C     0.27814   0.88201   0.62897   0.00000  Uiso   1.00
H1357  H     0.29248   0.90027   0.60104   0.00000  Uiso   1.00
H1358  H     0.28431   0.84832   0.62422   0.00000  Uiso   1.00
C1359  C     0.31118   0.89548   0.33998   0.00000  Uiso   1.00
H1360  H     0.30103   0.92761   0.34755   0.00000  Uiso   1.00
H1361  H     0.30363   0.87384   0.36824   0.00000  Uiso   1.00
C1362  C     0.03609   0.89405   0.33706   0.00000  Uiso   1.00
H1363  H     0.04696   0.86194   0.66356   0.00000  Uiso   1.00
H1364  H     0.05891   0.90339   0.36979   0.00000  Uiso   1.00
H1365  H     0.04622   0.91569   0.64295   0.00000  Uiso   1.00
O1366  O     0.09900   0.78200   0.37467   0.00000  Uiso   1.00
C1367  C     0.10785   0.73880   0.37259   0.00000  Uiso   1.00
H1368  H     0.12298   0.72648   0.40688   0.00000  Uiso   1.00
H1369  H     0.13686   0.73089   0.35039   0.00000  Uiso   1.00
C1370  C     0.05601   0.71607   0.35821   0.00000  Uiso   1.00
H1371  H     0.02978   0.72052   0.38386   0.00000  Uiso   1.00
H1372  H     0.03702   0.72946   0.65878   0.00000  Uiso   1.00
C1373  C     0.06344   0.66966   0.35307   0.00000  Uiso   1.00
H1374  H     0.08645   0.99800   0.65856   0.00000  Uiso   1.00
H1375  H     0.02471   0.98759   0.34442   0.00000  Uiso   1.00
H1376  H     0.08369   0.98859   0.38515   0.00000  Uiso   1.00
C1377  C     0.50228   0.75341   0.50117   0.00000  Uiso   1.00
C1378  C     0.50217   0.91332   0.49981   0.00000  Uiso   1.00
C1379  C     0.40068   0.83270   0.48833   0.00000  Uiso   1.00
C1380  C     0.59937   0.83392   0.51157   0.00000  Uiso   1.00
C1381  C     0.34623   0.82587   0.48386   0.00000  Uiso   1.00
C1382  C     0.65361   0.84110   0.51567   0.00000  Uiso   1.00
C1383  C     0.52938   0.69043   0.46940   0.00000  Uiso   1.00
C1384  C     0.49068   0.97670   0.53776   0.00000  Uiso   1.00
C1385  C     0.53251   0.98099   0.47003   0.00000  Uiso   1.00
C1386  C     0.49747   0.68568   0.54211   0.00000  Uiso   1.00
C1387  C     0.50686   0.95763   0.50099   0.00000  Uiso   1.00
C1388  C     0.50891   0.70934   0.50416   0.00000  Uiso   1.00
C1389  C     0.52790   0.86239   0.35928   0.00000  Uiso   1.00
C1390  C     0.46670   0.80753   0.63918   0.00000  Uiso   1.00
C1391  C     0.53115   0.86058   0.64573   0.00000  Uiso   1.00
C1392  C     0.46860   0.80576   0.35457   0.00000  Uiso   1.00
H1393  H     0.54497   0.70874   0.44303   0.00000  Uiso   1.00
H1394  H     0.47485   0.95891   0.56438   0.00000  Uiso   1.00
N1395  N     0.49999   0.83332   0.61907   0.00000  Uiso   1.00
N1396  N     0.50001   0.83334   0.38093   0.00000  Uiso   1.00
O1397  O     0.50000   0.77225   0.53821   0.00000  Uiso   1.00
O1398  O     0.50000   0.89442   0.46179   0.00000  Uiso   1.00
O1399  O     0.50000   0.77226   0.46176   0.00000  Uiso   1.00
O1400  O     0.50000   0.89441   0.53824   0.00000  Uiso   1.00
O1401  O     0.42392   0.83333   0.52928   0.00000  Uiso   1.00
O1402  O     0.57608   0.83334   0.47072   0.00000  Uiso   1.00
O1403  O     0.42392   0.83334   0.45284   0.00000  Uiso   1.00
O1404  O     0.57608   0.83333   0.54716   0.00000  Uiso   1.00
Zn1405 Zn    0.50000   0.83333   0.55104   0.00000  Uiso   1.00
Zn1406 Zn    0.50000   0.83334   0.44896   0.00000  Uiso   1.00
N1407  N     0.65559   0.79789   0.44981   0.00000  Uiso   1.00
H1408  H     0.34163   0.76953   0.45468   0.00000  Uiso   1.00
H1409  H     0.66094   0.81044   0.41791   0.00000  Uiso   1.00
N1410  N     0.34227   0.87131   0.54793   0.00000  Uiso   1.00
H1411  H     0.36546   0.85667   0.57535   0.00000  Uiso   1.00
H1412  H     0.36338   0.89441   0.53238   0.00000  Uiso   1.00
O1413  O     0.56321   0.96271   0.44259   0.00000  Uiso   1.00
C1414  C     0.61453   0.95834   0.46639   0.00000  Uiso   1.00
H1415  H     0.63023   0.92875   0.45648   0.00000  Uiso   1.00
H1416  H     0.61654   0.95585   0.50413   0.00000  Uiso   1.00
C1417  C     0.64975   0.99418   0.45298   0.00000  Uiso   1.00
H1418  H     0.64702   0.99625   0.41543   0.00000  Uiso   1.00
H1419  H     0.63673   0.69072   0.46468   0.00000  Uiso   1.00
C1420  C     0.37305   0.98766   0.47398   0.00000  Uiso   1.00
H1421  H     0.37644   0.98567   0.51159   0.00000  Uiso   1.00
H1422  H     0.39747   0.68101   0.46411   0.00000  Uiso   1.00
H1423  H     0.38781   0.95857   0.46182   0.00000  Uiso   1.00
O1424  O     0.49093   0.70379   0.58226   0.00000  Uiso   1.00
C1425  C     0.52945   0.68953   0.61830   0.00000  Uiso   1.00
H1426  H     0.55208   0.99545   0.61082   0.00000  Uiso   1.00
H1427  H     0.50924   0.67910   0.64713   0.00000  Uiso   1.00
C1428  C     0.56767   0.72495   0.63418   0.00000  Uiso   1.00
H1429  H     0.54599   0.75379   0.63705   0.00000  Uiso   1.00
H1430  H     0.58870   0.71644   0.33513   0.00000  Uiso   1.00
C1431  C     0.60792   0.73339   0.60221   0.00000  Uiso   1.00
H1432  H     0.63292   0.70583   0.60191   0.00000  Uiso   1.00
H1433  H     0.63261   0.76075   0.61377   0.00000  Uiso   1.00
H1434  H     0.58909   0.74061   0.56716   0.00000  Uiso   1.00
N1435  N     0.54835   0.89845   0.38204   0.00000  Uiso   1.00
H1436  H     0.56938   0.88891   0.41300   0.00000  Uiso   1.00
H1437  H     0.51643   0.91607   0.38683   0.00000  Uiso   1.00
N1438  N     0.42743   0.78515   0.61031   0.00000  Uiso   1.00
H1439  H     0.39103   0.79181   0.61904   0.00000  Uiso   1.00
H1440  H     0.43374   0.75331   0.61472   0.00000  Uiso   1.00
O1441  O     0.55817   0.89202   0.62583   0.00000  Uiso   1.00
C1442  C     0.61148   0.88201   0.62897   0.00000  Uiso   1.00
H1443  H     0.62582   0.90027   0.60104   0.00000  Uiso   1.00
H1444  H     0.61765   0.84832   0.62422   0.00000  Uiso   1.00
C1445  C     0.64451   0.89548   0.33998   0.00000  Uiso   1.00
H1446  H     0.63436   0.92761   0.34755   0.00000  Uiso   1.00
H1447  H     0.63697   0.87384   0.36824   0.00000  Uiso   1.00
C1448  C     0.36942   0.89405   0.33706   0.00000  Uiso   1.00
H1449  H     0.38030   0.86194   0.66356   0.00000  Uiso   1.00
H1450  H     0.39224   0.90339   0.36979   0.00000  Uiso   1.00
H1451  H     0.37956   0.91569   0.64295   0.00000  Uiso   1.00
O1452  O     0.43233   0.78200   0.37467   0.00000  Uiso   1.00
C1453  C     0.44119   0.73880   0.37259   0.00000  Uiso   1.00
H1454  H     0.45631   0.72648   0.40688   0.00000  Uiso   1.00
H1455  H     0.47019   0.73089   0.35039   0.00000  Uiso   1.00
C1456  C     0.38934   0.71607   0.35821   0.00000  Uiso   1.00
H1457  H     0.36311   0.72052   0.38386   0.00000  Uiso   1.00
H1458  H     0.37035   0.72946   0.65878   0.00000  Uiso   1.00
C1459  C     0.39678   0.66966   0.35307   0.00000  Uiso   1.00
H1460  H     0.41978   0.99800   0.65856   0.00000  Uiso   1.00
H1461  H     0.35804   0.98759   0.34442   0.00000  Uiso   1.00
H1462  H     0.41703   0.98859   0.38515   0.00000  Uiso   1.00
C1463  C     0.83561   0.75341   0.50117   0.00000  Uiso   1.00
C1464  C     0.83550   0.91332   0.49981   0.00000  Uiso   1.00
C1465  C     0.73401   0.83270   0.48833   0.00000  Uiso   1.00
C1466  C     0.93270   0.83392   0.51157   0.00000  Uiso   1.00
C1467  C     0.67956   0.82587   0.48386   0.00000  Uiso   1.00
C1468  C     0.98695   0.84110   0.51567   0.00000  Uiso   1.00
C1469  C     0.86271   0.69043   0.46940   0.00000  Uiso   1.00
C1470  C     0.82402   0.97670   0.53776   0.00000  Uiso   1.00
C1471  C     0.86585   0.98099   0.47003   0.00000  Uiso   1.00
C1472  C     0.83080   0.68568   0.54211   0.00000  Uiso   1.00
C1473  C     0.84019   0.95763   0.50099   0.00000  Uiso   1.00
C1474  C     0.84225   0.70934   0.50416   0.00000  Uiso   1.00
C1475  C     0.86123   0.86239   0.35928   0.00000  Uiso   1.00
C1476  C     0.80003   0.80753   0.63918   0.00000  Uiso   1.00
C1477  C     0.86449   0.86058   0.64573   0.00000  Uiso   1.00
C1478  C     0.80194   0.80576   0.35457   0.00000  Uiso   1.00
H1479  H     0.87831   0.70874   0.44303   0.00000  Uiso   1.00
H1480  H     0.80819   0.95891   0.56438   0.00000  Uiso   1.00
N1481  N     0.83332   0.83332   0.61907   0.00000  Uiso   1.00
N1482  N     0.83335   0.83334   0.38093   0.00000  Uiso   1.00
O1483  O     0.83333   0.77225   0.53821   0.00000  Uiso   1.00
O1484  O     0.83334   0.89442   0.46179   0.00000  Uiso   1.00
O1485  O     0.83333   0.77226   0.46176   0.00000  Uiso   1.00
O1486  O     0.83334   0.89441   0.53824   0.00000  Uiso   1.00
O1487  O     0.75725   0.83333   0.52928   0.00000  Uiso   1.00
O1488  O     0.90942   0.83334   0.47072   0.00000  Uiso   1.00
O1489  O     0.75725   0.83334   0.45284   0.00000  Uiso   1.00
O1490  O     0.90942   0.83333   0.54716   0.00000  Uiso   1.00
Zn1491 Zn    0.83333   0.83333   0.55104   0.00000  Uiso   1.00
Zn1492 Zn    0.83333   0.83334   0.44896   0.00000  Uiso   1.00
N1493  N     0.98892   0.79789   0.44981   0.00000  Uiso   1.00
H1494  H     0.67497   0.76953   0.45468   0.00000  Uiso   1.00
H1495  H     0.99428   0.81044   0.41791   0.00000  Uiso   1.00
N1496  N     0.67561   0.87131   0.54793   0.00000  Uiso   1.00
H1497  H     0.69880   0.85667   0.57535   0.00000  Uiso   1.00
H1498  H     0.69671   0.89441   0.53238   0.00000  Uiso   1.00
O1499  O     0.89654   0.96271   0.44259   0.00000  Uiso   1.00
C1500  C     0.94787   0.95834   0.46639   0.00000  Uiso   1.00
H1501  H     0.96356   0.92875   0.45648   0.00000  Uiso   1.00
H1502  H     0.94988   0.95585   0.50413   0.00000  Uiso   1.00
C1503  C     0.98308   0.99418   0.45298   0.00000  Uiso   1.00
H1504  H     0.98035   0.99625   0.41543   0.00000  Uiso   1.00
H1505  H     0.97007   0.69072   0.46468   0.00000  Uiso   1.00
C1506  C     0.70638   0.98766   0.47398   0.00000  Uiso   1.00
H1507  H     0.70977   0.98567   0.51159   0.00000  Uiso   1.00
H1508  H     0.73081   0.68101   0.46411   0.00000  Uiso   1.00
H1509  H     0.72114   0.95857   0.46182   0.00000  Uiso   1.00
O1510  O     0.82427   0.70379   0.58226   0.00000  Uiso   1.00
C1511  C     0.86278   0.68953   0.61830   0.00000  Uiso   1.00
H1512  H     0.88541   0.99545   0.61082   0.00000  Uiso   1.00
H1513  H     0.84258   0.67910   0.64713   0.00000  Uiso   1.00
C1514  C     0.90101   0.72495   0.63418   0.00000  Uiso   1.00
H1515  H     0.87933   0.75379   0.63705   0.00000  Uiso   1.00
H1516  H     0.92203   0.71644   0.33513   0.00000  Uiso   1.00
C1517  C     0.94126   0.73339   0.60221   0.00000  Uiso   1.00
H1518  H     0.96625   0.70583   0.60191   0.00000  Uiso   1.00
H1519  H     0.96595   0.76075   0.61377   0.00000  Uiso   1.00
H1520  H     0.92242   0.74061   0.56716   0.00000  Uiso   1.00
N1521  N     0.88168   0.89845   0.38204   0.00000  Uiso   1.00
H1522  H     0.90272   0.88891   0.41300   0.00000  Uiso   1.00
H1523  H     0.84976   0.91607   0.38683   0.00000  Uiso   1.00
N1524  N     0.76077   0.78515   0.61031   0.00000  Uiso   1.00
H1525  H     0.72436   0.79181   0.61904   0.00000  Uiso   1.00
H1526  H     0.76707   0.75331   0.61472   0.00000  Uiso   1.00
O1527  O     0.89150   0.89202   0.62583   0.00000  Uiso   1.00
C1528  C     0.94481   0.88201   0.62897   0.00000  Uiso   1.00
H1529  H     0.95915   0.90027   0.60104   0.00000  Uiso   1.00
H1530  H     0.95098   0.84832   0.62422   0.00000  Uiso   1.00
C1531  C     0.97785   0.89548   0.33998   0.00000  Uiso   1.00
H1532  H     0.96769   0.92761   0.34755   0.00000  Uiso   1.00
H1533  H     0.97030   0.87384   0.36824   0.00000  Uiso   1.00
C1534  C     0.70276   0.89405   0.33706   0.00000  Uiso   1.00
H1535  H     0.71363   0.86194   0.66356   0.00000  Uiso   1.00
H1536  H     0.72557   0.90339   0.36979   0.00000  Uiso   1.00
H1537  H     0.71289   0.91569   0.64295   0.00000  Uiso   1.00
O1538  O     0.76567   0.78200   0.37467   0.00000  Uiso   1.00
C1539  C     0.77452   0.73880   0.37259   0.00000  Uiso   1.00
H1540  H     0.78965   0.72648   0.40688   0.00000  Uiso   1.00
H1541  H     0.80353   0.73089   0.35039   0.00000  Uiso   1.00
C1542  C     0.72268   0.71607   0.35821   0.00000  Uiso   1.00
H1543  H     0.69645   0.72052   0.38386   0.00000  Uiso   1.00
H1544  H     0.70369   0.72946   0.65878   0.00000  Uiso   1.00
C1545  C     0.73011   0.66966   0.35307   0.00000  Uiso   1.00
H1546  H     0.75311   0.99800   0.65856   0.00000  Uiso   1.00
H1547  H     0.69137   0.98759   0.34442   0.00000  Uiso   1.00
H1548  H     0.75036   0.98859   0.38515   0.00000  Uiso   1.00
C1549  C     0.16895   0.08674   0.83451   0.00000  Uiso   1.00
C1550  C     0.16883   0.24666   0.83314   0.00000  Uiso   1.00
C1551  C     0.06735   0.16604   0.82167   0.00000  Uiso   1.00
C1552  C     0.26603   0.16726   0.84490   0.00000  Uiso   1.00
C1553  C     0.01290   0.15921   0.81720   0.00000  Uiso   1.00
C1554  C     0.32028   0.17443   0.84900   0.00000  Uiso   1.00
C1555  C     0.19604   0.02376   0.80273   0.00000  Uiso   1.00
C1556  C     0.15735   0.31003   0.87109   0.00000  Uiso   1.00
C1557  C     0.19918   0.31432   0.80336   0.00000  Uiso   1.00
C1558  C     0.16414   0.01901   0.87544   0.00000  Uiso   1.00
C1559  C     0.17353   0.29096   0.83432   0.00000  Uiso   1.00
C1560  C     0.17558   0.04268   0.83749   0.00000  Uiso   1.00
C1561  C     0.19456   0.19572   0.69262   0.00000  Uiso   1.00
C1562  C     0.13336   0.14086   0.97251   0.00000  Uiso   1.00
C1563  C     0.19782   0.19391   0.97907   0.00000  Uiso   1.00
C1564  C     0.13527   0.13909   0.68791   0.00000  Uiso   1.00
H1565  H     0.21164   0.04208   0.77637   0.00000  Uiso   1.00
H1566  H     0.14152   0.29224   0.89772   0.00000  Uiso   1.00
N1567  N     0.16665   0.16666   0.95240   0.00000  Uiso   1.00
N1568  N     0.16668   0.16668   0.71427   0.00000  Uiso   1.00
O1569  O     0.16666   0.10558   0.87154   0.00000  Uiso   1.00
O1570  O     0.16667   0.22775   0.79513   0.00000  Uiso   1.00
O1571  O     0.16666   0.10559   0.79510   0.00000  Uiso   1.00
O1572  O     0.16667   0.22774   0.87157   0.00000  Uiso   1.00
O1573  O     0.09058   0.16666   0.86261   0.00000  Uiso   1.00
O1574  O     0.24275   0.16667   0.80405   0.00000  Uiso   1.00
O1575  O     0.09058   0.16667   0.78617   0.00000  Uiso   1.00
O1576  O     0.24275   0.16666   0.88050   0.00000  Uiso   1.00
Zn1577 Zn    0.16667   0.16666   0.88437   0.00000  Uiso   1.00
Zn1578 Zn    0.16667   0.16667   0.78229   0.00000  Uiso   1.00
N1579  N     0.32225   0.13123   0.78314   0.00000  Uiso   1.00
H1580  H     0.00830   0.10286   0.78802   0.00000  Uiso   1.00
H1581  H     0.32761   0.14377   0.75125   0.00000  Uiso   1.00
N1582  N     0.00894   0.20464   0.88126   0.00000  Uiso   1.00
H1583  H     0.03213   0.19000   0.90869   0.00000  Uiso   1.00
H1584  H     0.03004   0.22774   0.86571   0.00000  Uiso   1.00
O1585  O     0.22987   0.29604   0.77592   0.00000  Uiso   1.00
C1586  C     0.28120   0.29167   0.79972   0.00000  Uiso   1.00
H1587  H     0.29689   0.26208   0.78981   0.00000  Uiso   1.00
H1588  H     0.28321   0.28919   0.83747   0.00000  Uiso   1.00
C1589  C     0.31642   0.32752   0.78632   0.00000  Uiso   1.00
H1590  H     0.31368   0.32959   0.74876   0.00000  Uiso   1.00
H1591  H     0.30340   0.02406   0.79802   0.00000  Uiso   1.00
C1592  C     0.03971   0.32099   0.80732   0.00000  Uiso   1.00
H1593  H     0.04311   0.31901   0.84493   0.00000  Uiso   1.00
H1594  H     0.06414   0.01435   0.79745   0.00000  Uiso   1.00
H1595  H     0.05448   0.29191   0.79515   0.00000  Uiso   1.00
O1596  O     0.15760   0.03713   0.91559   0.00000  Uiso   1.00
C1597  C     0.19611   0.02287   0.95163   0.00000  Uiso   1.00
H1598  H     0.21875   0.32878   0.94416   0.00000  Uiso   1.00
H1599  H     0.17591   0.01243   0.98046   0.00000  Uiso   1.00
C1600  C     0.23434   0.05829   0.96751   0.00000  Uiso   1.00
H1601  H     0.21266   0.08712   0.97038   0.00000  Uiso   1.00
H1602  H     0.25537   0.04977   0.66846   0.00000  Uiso   1.00
C1603  C     0.27459   0.06672   0.93554   0.00000  Uiso   1.00
H1604  H     0.29958   0.03916   0.93524   0.00000  Uiso   1.00
H1605  H     0.29928   0.09408   0.94710   0.00000  Uiso   1.00
H1606  H     0.25576   0.07395   0.90049   0.00000  Uiso   1.00
N1607  N     0.21501   0.23179   0.71538   0.00000  Uiso   1.00
H1608  H     0.23605   0.22224   0.74634   0.00000  Uiso   1.00
H1609  H     0.18310   0.24940   0.72016   0.00000  Uiso   1.00
N1610  N     0.09410   0.11849   0.94364   0.00000  Uiso   1.00
H1611  H     0.05770   0.12514   0.95238   0.00000  Uiso   1.00
H1612  H     0.10040   0.08665   0.94805   0.00000  Uiso   1.00
O1613  O     0.22483   0.22535   0.95916   0.00000  Uiso   1.00
C1614  C     0.27814   0.21534   0.96230   0.00000  Uiso   1.00
H1615  H     0.29248   0.23360   0.93437   0.00000  Uiso   1.00
H1616  H     0.28431   0.18165   0.95756   0.00000  Uiso   1.00
C1617  C     0.31118   0.22881   0.67331   0.00000  Uiso   1.00
H1618  H     0.30103   0.26094   0.68088   0.00000  Uiso   1.00
H1619  H     0.30363   0.20718   0.70157   0.00000  Uiso   1.00
C1620  C     0.03609   0.22738   0.67040   0.00000  Uiso   1.00
H1621  H     0.04696   0.19527   0.99689   0.00000  Uiso   1.00
H1622  H     0.05891   0.23673   0.70312   0.00000  Uiso   1.00
H1623  H     0.04622   0.24902   0.97628   0.00000  Uiso   1.00
O1624  O     0.09900   0.11534   0.70800   0.00000  Uiso   1.00
C1625  C     0.10785   0.07213   0.70592   0.00000  Uiso   1.00
H1626  H     0.12298   0.05981   0.74022   0.00000  Uiso   1.00
H1627  H     0.13686   0.06423   0.68372   0.00000  Uiso   1.00
C1628  C     0.05601   0.04941   0.69154   0.00000  Uiso   1.00
H1629  H     0.02978   0.05385   0.71720   0.00000  Uiso   1.00
H1630  H     0.03702   0.06279   0.99212   0.00000  Uiso   1.00
C1631  C     0.06344   0.00299   0.68640   0.00000  Uiso   1.00
H1632  H     0.08645   0.33133   0.99190   0.00000  Uiso   1.00
H1633  H     0.02471   0.32092   0.67775   0.00000  Uiso   1.00
H1634  H     0.08369   0.32192   0.71848   0.00000  Uiso   1.00
C1635  C     0.50228   0.08674   0.83451   0.00000  Uiso   1.00
C1636  C     0.50217   0.24666   0.83314   0.00000  Uiso   1.00
C1637  C     0.40068   0.16604   0.82167   0.00000  Uiso   1.00
C1638  C     0.59937   0.16726   0.84490   0.00000  Uiso   1.00
C1639  C     0.34623   0.15921   0.81720   0.00000  Uiso   1.00
C1640  C     0.65361   0.17443   0.84900   0.00000  Uiso   1.00
C1641  C     0.52938   0.02376   0.80273   0.00000  Uiso   1.00
C1642  C     0.49068   0.31003   0.87109   0.00000  Uiso   1.00
C1643  C     0.53251   0.31432   0.80336   0.00000  Uiso   1.00
C1644  C     0.49747   0.01901   0.87544   0.00000  Uiso   1.00
C1645  C     0.50686   0.29096   0.83432   0.00000  Uiso   1.00
C1646  C     0.50891   0.04268   0.83749   0.00000  Uiso   1.00
C1647  C     0.52790   0.19572   0.69262   0.00000  Uiso   1.00
C1648  C     0.46670   0.14086   0.97251   0.00000  Uiso   1.00
C1649  C     0.53115   0.19391   0.97907   0.00000  Uiso   1.00
C1650  C     0.46860   0.13909   0.68791   0.00000  Uiso   1.00
H1651  H     0.54497   0.04208   0.77637   0.00000  Uiso   1.00
H1652  H     0.47485   0.29224   0.89772   0.00000  Uiso   1.00
N1653  N     0.49999   0.16666   0.95240   0.00000  Uiso   1.00
N1654  N     0.50001   0.16668   0.71427   0.00000  Uiso   1.00
O1655  O     0.50000   0.10558   0.87154   0.00000  Uiso   1.00
O1656  O     0.50000   0.22775   0.79513   0.00000  Uiso   1.00
O1657  O     0.50000   0.10559   0.79510   0.00000  Uiso   1.00
O1658  O     0.50000   0.22774   0.87157   0.00000  Uiso   1.00
O1659  O     0.42392   0.16666   0.86261   0.00000  Uiso   1.00
O1660  O     0.57608   0.16667   0.80405   0.00000  Uiso   1.00
O1661  O     0.42392   0.16667   0.78617   0.00000  Uiso   1.00
O1662  O     0.57608   0.16666   0.88050   0.00000  Uiso   1.00
Zn1663 Zn    0.50000   0.16666   0.88437   0.00000  Uiso   1.00
Zn1664 Zn    0.50000   0.16667   0.78229   0.00000  Uiso   1.00
N1665  N     0.65559   0.13123   0.78314   0.00000  Uiso   1.00
H1666  H     0.34163   0.10286   0.78802   0.00000  Uiso   1.00
H1667  H     0.66094   0.14377   0.75125   0.00000  Uiso   1.00
N1668  N     0.34227   0.20464   0.88126   0.00000  Uiso   1.00
H1669  H     0.36546   0.19000   0.90869   0.00000  Uiso   1.00
H1670  H     0.36338   0.22774   0.86571   0.00000  Uiso   1.00
O1671  O     0.56321   0.29604   0.77592   0.00000  Uiso   1.00
C1672  C     0.61453   0.29167   0.79972   0.00000  Uiso   1.00
H1673  H     0.63023   0.26208   0.78981   0.00000  Uiso   1.00
H1674  H     0.61654   0.28919   0.83747   0.00000  Uiso   1.00
C1675  C     0.64975   0.32752   0.78632   0.00000  Uiso   1.00
H1676  H     0.64702   0.32959   0.74876   0.00000  Uiso   1.00
H1677  H     0.63673   0.02406   0.79802   0.00000  Uiso   1.00
C1678  C     0.37305   0.32099   0.80732   0.00000  Uiso   1.00
H1679  H     0.37644   0.31901   0.84493   0.00000  Uiso   1.00
H1680  H     0.39747   0.01435   0.79745   0.00000  Uiso   1.00
H1681  H     0.38781   0.29191   0.79515   0.00000  Uiso   1.00
O1682  O     0.49093   0.03713   0.91559   0.00000  Uiso   1.00
C1683  C     0.52945   0.02287   0.95163   0.00000  Uiso   1.00
H1684  H     0.55208   0.32878   0.94416   0.00000  Uiso   1.00
H1685  H     0.50924   0.01243   0.98046   0.00000  Uiso   1.00
C1686  C     0.56767   0.05829   0.96751   0.00000  Uiso   1.00
H1687  H     0.54599   0.08712   0.97038   0.00000  Uiso   1.00
H1688  H     0.58870   0.04977   0.66846   0.00000  Uiso   1.00
C1689  C     0.60792   0.06672   0.93554   0.00000  Uiso   1.00
H1690  H     0.63292   0.03916   0.93524   0.00000  Uiso   1.00
H1691  H     0.63261   0.09408   0.94710   0.00000  Uiso   1.00
H1692  H     0.58909   0.07395   0.90049   0.00000  Uiso   1.00
N1693  N     0.54835   0.23179   0.71538   0.00000  Uiso   1.00
H1694  H     0.56938   0.22224   0.74634   0.00000  Uiso   1.00
H1695  H     0.51643   0.24940   0.72016   0.00000  Uiso   1.00
N1696  N     0.42743   0.11849   0.94364   0.00000  Uiso   1.00
H1697  H     0.39103   0.12514   0.95238   0.00000  Uiso   1.00
H1698  H     0.43374   0.08665   0.94805   0.00000  Uiso   1.00
O1699  O     0.55817   0.22535   0.95916   0.00000  Uiso   1.00
C1700  C     0.61148   0.21534   0.96230   0.00000  Uiso   1.00
H1701  H     0.62582   0.23360   0.93437   0.00000  Uiso   1.00
H1702  H     0.61765   0.18165   0.95756   0.00000  Uiso   1.00
C1703  C     0.64451   0.22881   0.67331   0.00000  Uiso   1.00
H1704  H     0.63436   0.26094   0.68088   0.00000  Uiso   1.00
H1705  H     0.63697   0.20718   0.70157   0.00000  Uiso   1.00
C1706  C     0.36942   0.22738   0.67040   0.00000  Uiso   1.00
H1707  H     0.38030   0.19527   0.99689   0.00000  Uiso   1.00
H1708  H     0.39224   0.23673   0.70312   0.00000  Uiso   1.00
H1709  H     0.37956   0.24902   0.97628   0.00000  Uiso   1.00
O1710  O     0.43233   0.11534   0.70800   0.00000  Uiso   1.00
C1711  C     0.44119   0.07213   0.70592   0.00000  Uiso   1.00
H1712  H     0.45631   0.05981   0.74022   0.00000  Uiso   1.00
H1713  H     0.47019   0.06423   0.68372   0.00000  Uiso   1.00
C1714  C     0.38934   0.04941   0.69154   0.00000  Uiso   1.00
H1715  H     0.36311   0.05385   0.71720   0.00000  Uiso   1.00
H1716  H     0.37035   0.06279   0.99212   0.00000  Uiso   1.00
C1717  C     0.39678   0.00299   0.68640   0.00000  Uiso   1.00
H1718  H     0.41978   0.33133   0.99190   0.00000  Uiso   1.00
H1719  H     0.35804   0.32092   0.67775   0.00000  Uiso   1.00
H1720  H     0.41703   0.32192   0.71848   0.00000  Uiso   1.00
C1721  C     0.83561   0.08674   0.83451   0.00000  Uiso   1.00
C1722  C     0.83550   0.24666   0.83314   0.00000  Uiso   1.00
C1723  C     0.73401   0.16604   0.82167   0.00000  Uiso   1.00
C1724  C     0.93270   0.16726   0.84490   0.00000  Uiso   1.00
C1725  C     0.67956   0.15921   0.81720   0.00000  Uiso   1.00
C1726  C     0.98695   0.17443   0.84900   0.00000  Uiso   1.00
C1727  C     0.86271   0.02376   0.80273   0.00000  Uiso   1.00
C1728  C     0.82402   0.31003   0.87109   0.00000  Uiso   1.00
C1729  C     0.86585   0.31432   0.80336   0.00000  Uiso   1.00
C1730  C     0.83080   0.01901   0.87544   0.00000  Uiso   1.00
C1731  C     0.84019   0.29096   0.83432   0.00000  Uiso   1.00
C1732  C     0.84225   0.04268   0.83749   0.00000  Uiso   1.00
C1733  C     0.86123   0.19572   0.69262   0.00000  Uiso   1.00
C1734  C     0.80003   0.14086   0.97251   0.00000  Uiso   1.00
C1735  C     0.86449   0.19391   0.97907   0.00000  Uiso   1.00
C1736  C     0.80194   0.13909   0.68791   0.00000  Uiso   1.00
H1737  H     0.87831   0.04208   0.77637   0.00000  Uiso   1.00
H1738  H     0.80819   0.29224   0.89772   0.00000  Uiso   1.00
N1739  N     0.83332   0.16666   0.95240   0.00000  Uiso   1.00
N1740  N     0.83335   0.16668   0.71427   0.00000  Uiso   1.00
O1741  O     0.83333   0.10558   0.87154   0.00000  Uiso   1.00
O1742  O     0.83334   0.22775   0.79513   0.00000  Uiso   1.00
O1743  O     0.83333   0.10559   0.79510   0.00000  Uiso   1.00
O1744  O     0.83334   0.22774   0.87157   0.00000  Uiso   1.00
O1745  O     0.75725   0.16666   0.86261   0.00000  Uiso   1.00
O1746  O     0.90942   0.16667   0.80405   0.00000  Uiso   1.00
O1747  O     0.75725   0.16667   0.78617   0.00000  Uiso   1.00
O1748  O     0.90942   0.16666   0.88050   0.00000  Uiso   1.00
Zn1749 Zn    0.83333   0.16666   0.88437   0.00000  Uiso   1.00
Zn1750 Zn    0.83333   0.16667   0.78229   0.00000  Uiso   1.00
N1751  N     0.98892   0.13123   0.78314   0.00000  Uiso   1.00
H1752  H     0.67497   0.10286   0.78802   0.00000  Uiso   1.00
H1753  H     0.99428   0.14377   0.75125   0.00000  Uiso   1.00
N1754  N     0.67561   0.20464   0.88126   0.00000  Uiso   1.00
H1755  H     0.69880   0.19000   0.90869   0.00000  Uiso   1.00
H1756  H     0.69671   0.22774   0.86571   0.00000  Uiso   1.00
O1757  O     0.89654   0.29604   0.77592   0.00000  Uiso   1.00
C1758  C     0.94787   0.29167   0.79972   0.00000  Uiso   1.00
H1759  H     0.96356   0.26208   0.78981   0.00000  Uiso   1.00
H1760  H     0.94988   0.28919   0.83747   0.00000  Uiso   1.00
C1761  C     0.98308   0.32752   0.78632   0.00000  Uiso   1.00
H1762  H     0.98035   0.32959   0.74876   0.00000  Uiso   1.00
H1763  H     0.97007   0.02406   0.79802   0.00000  Uiso   1.00
C1764  C     0.70638   0.32099   0.80732   0.00000  Uiso   1.00
H1765  H     0.70977   0.31901   0.84493   0.00000  Uiso   1.00
H1766  H     0.73081   0.01435   0.79745   0.00000  Uiso   1.00
H1767  H     0.72114   0.29191   0.79515   0.00000  Uiso   1.00
O1768  O     0.82427   0.03713   0.91559   0.00000  Uiso   1.00
C1769  C     0.86278   0.02287   0.95163   0.00000  Uiso   1.00
H1770  H     0.88541   0.32878   0.94416   0.00000  Uiso   1.00
H1771  H     0.84258   0.01243   0.98046   0.00000  Uiso   1.00
C1772  C     0.90101   0.05829   0.96751   0.00000  Uiso   1.00
H1773  H     0.87933   0.08712   0.97038   0.00000  Uiso   1.00
H1774  H     0.92203   0.04977   0.66846   0.00000  Uiso   1.00
C1775  C     0.94126   0.06672   0.93554   0.00000  Uiso   1.00
H1776  H     0.96625   0.03916   0.93524   0.00000  Uiso   1.00
H1777  H     0.96595   0.09408   0.94710   0.00000  Uiso   1.00
H1778  H     0.92242   0.07395   0.90049   0.00000  Uiso   1.00
N1779  N     0.88168   0.23179   0.71538   0.00000  Uiso   1.00
H1780  H     0.90272   0.22224   0.74634   0.00000  Uiso   1.00
H1781  H     0.84976   0.24940   0.72016   0.00000  Uiso   1.00
N1782  N     0.76077   0.11849   0.94364   0.00000  Uiso   1.00
H1783  H     0.72436   0.12514   0.95238   0.00000  Uiso   1.00
H1784  H     0.76707   0.08665   0.94805   0.00000  Uiso   1.00
O1785  O     0.89150   0.22535   0.95916   0.00000  Uiso   1.00
C1786  C     0.94481   0.21534   0.96230   0.00000  Uiso   1.00
H1787  H     0.95915   0.23360   0.93437   0.00000  Uiso   1.00
H1788  H     0.95098   0.18165   0.95756   0.00000  Uiso   1.00
C1789  C     0.97785   0.22881   0.67331   0.00000  Uiso   1.00
H1790  H     0.96769   0.26094   0.68088   0.00000  Uiso   1.00
H1791  H     0.97030   0.20718   0.70157   0.00000  Uiso   1.00
C1792  C     0.70276   0.22738   0.67040   0.00000  Uiso   1.00
H1793  H     0.71363   0.19527   0.99689   0.00000  Uiso   1.00
H1794  H     0.72557   0.23673   0.70312   0.00000  Uiso   1.00
H1795  H     0.71289   0.24902   0.97628   0.00000  Uiso   1.00
O1796  O     0.76567   0.11534   0.70800   0.00000  Uiso   1.00
C1797  C     0.77452   0.07213   0.70592   0.00000  Uiso   1.00
H1798  H     0.78965   0.05981   0.74022   0.00000  Uiso   1.00
H1799  H     0.80353   0.06423   0.68372   0.00000  Uiso   1.00
C1800  C     0.72268   0.04941   0.69154   0.00000  Uiso   1.00
H1801  H     0.69645   0.05385   0.71720   0.00000  Uiso   1.00
H1802  H     0.70369   0.06279   0.99212   0.00000  Uiso   1.00
C1803  C     0.73011   0.00299   0.68640   0.00000  Uiso   1.00
H1804  H     0.75311   0.33133   0.99190   0.00000  Uiso   1.00
H1805  H     0.69137   0.32092   0.67775   0.00000  Uiso   1.00
H1806  H     0.75036   0.32192   0.71848   0.00000  Uiso   1.00
C1807  C     0.16895   0.42007   0.83451   0.00000  Uiso   1.00
C1808  C     0.16883   0.57999   0.83314   0.00000  Uiso   1.00
C1809  C     0.06735   0.49937   0.82167   0.00000  Uiso   1.00
C1810  C     0.26603   0.50059   0.84490   0.00000  Uiso   1.00
C1811  C     0.01290   0.49254   0.81720   0.00000  Uiso   1.00
C1812  C     0.32028   0.50777   0.84900   0.00000  Uiso   1.00
C1813  C     0.19604   0.35709   0.80273   0.00000  Uiso   1.00
C1814  C     0.15735   0.64337   0.87109   0.00000  Uiso   1.00
C1815  C     0.19918   0.64765   0.80336   0.00000  Uiso   1.00
C1816  C     0.16414   0.35235   0.87544   0.00000  Uiso   1.00
C1817  C     0.17353   0.62430   0.83432   0.00000  Uiso   1.00
C1818  C     0.17558   0.37601   0.83749   0.00000  Uiso   1.00
C1819  C     0.19456   0.52905   0.69262   0.00000  Uiso   1.00
C1820  C     0.13336   0.47419   0.97251   0.00000  Uiso   1.00
C1821  C     0.19782   0.52724   0.97907   0.00000  Uiso   1.00
C1822  C     0.13527   0.47242   0.68791   0.00000  Uiso   1.00
H1823  H     0.21164   0.37541   0.77637   0.00000  Uiso   1.00
H1824  H     0.14152   0.62557   0.89772   0.00000  Uiso   1.00
N1825  N     0.16665   0.49999   0.95240   0.00000  Uiso   1.00
N1826  N     0.16668   0.50001   0.71427   0.00000  Uiso   1.00
O1827  O     0.16666   0.43892   0.87154   0.00000  Uiso   1.00
O1828  O     0.16667   0.56108   0.79513   0.00000  Uiso   1.00
O1829  O     0.16666   0.43893   0.79510   0.00000  Uiso   1.00
O1830  O     0.16667   0.56107   0.87157   0.00000  Uiso   1.00
O1831  O     0.09058   0.50000   0.86261   0.00000  Uiso   1.00
O1832  O     0.24275   0.50000   0.80405   0.00000  Uiso   1.00
O1833  O     0.09058   0.50000   0.78617   0.00000  Uiso   1.00
O1834  O     0.24275   0.50000   0.88050   0.00000  Uiso   1.00
Zn1835 Zn    0.16667   0.49999   0.88437   0.00000  Uiso   1.00
Zn1836 Zn    0.16667   0.50001   0.78229   0.00000  Uiso   1.00
N1837  N     0.32225   0.46456   0.78314   0.00000  Uiso   1.00
H1838  H     0.00830   0.43620   0.78802   0.00000  Uiso   1.00
H1839  H     0.32761   0.47711   0.75125   0.00000  Uiso   1.00
N1840  N     0.00894   0.53797   0.88126   0.00000  Uiso   1.00
H1841  H     0.03213   0.52334   0.90869   0.00000  Uiso   1.00
H1842  H     0.03004   0.56108   0.86571   0.00000  Uiso   1.00
O1843  O     0.22987   0.62937   0.77592   0.00000  Uiso   1.00
C1844  C     0.28120   0.62501   0.79972   0.00000  Uiso   1.00
H1845  H     0.29689   0.59541   0.78981   0.00000  Uiso   1.00
H1846  H     0.28321   0.62252   0.83747   0.00000  Uiso   1.00
C1847  C     0.31642   0.66085   0.78632   0.00000  Uiso   1.00
H1848  H     0.31368   0.66292   0.74876   0.00000  Uiso   1.00
H1849  H     0.30340   0.35739   0.79802   0.00000  Uiso   1.00
C1850  C     0.03971   0.65432   0.80732   0.00000  Uiso   1.00
H1851  H     0.04311   0.65234   0.84493   0.00000  Uiso   1.00
H1852  H     0.06414   0.34768   0.79745   0.00000  Uiso   1.00
H1853  H     0.05448   0.62524   0.79515   0.00000  Uiso   1.00
O1854  O     0.15760   0.37046   0.91559   0.00000  Uiso   1.00
C1855  C     0.19611   0.35620   0.95163   0.00000  Uiso   1.00
H1856  H     0.21875   0.66212   0.94416   0.00000  Uiso   1.00
H1857  H     0.17591   0.34576   0.98046   0.00000  Uiso   1.00
C1858  C     0.23434   0.39162   0.96751   0.00000  Uiso   1.00
H1859  H     0.21266   0.42046   0.97038   0.00000  Uiso   1.00
H1860  H     0.25537   0.38311   0.66846   0.00000  Uiso   1.00
C1861  C     0.27459   0.40006   0.93554   0.00000  Uiso   1.00
H1862  H     0.29958   0.37250   0.93524   0.00000  Uiso   1.00
H1863  H     0.29928   0.42742   0.94710   0.00000  Uiso   1.00
H1864  H     0.25576   0.40728   0.90049   0.00000  Uiso   1.00
N1865  N     0.21501   0.56512   0.71538   0.00000  Uiso   1.00
H1866  H     0.23605   0.55558   0.74634   0.00000  Uiso   1.00
H1867  H     0.18310   0.58274   0.72016   0.00000  Uiso   1.00
N1868  N     0.09410   0.45182   0.94364   0.00000  Uiso   1.00
H1869  H     0.05770   0.45847   0.95238   0.00000  Uiso   1.00
H1870  H     0.10040   0.41998   0.94805   0.00000  Uiso   1.00
O1871  O     0.22483   0.55869   0.95916   0.00000  Uiso   1.00
C1872  C     0.27814   0.54867   0.96230   0.00000  Uiso   1.00
H1873  H     0.29248   0.56694   0.93437   0.00000  Uiso   1.00
H1874  H     0.28431   0.51499   0.95756   0.00000  Uiso   1.00
C1875  C     0.31118   0.56215   0.67331   0.00000  Uiso   1.00
H1876  H     0.30103   0.59427   0.68088   0.00000  Uiso   1.00
H1877  H     0.30363   0.54051   0.70157   0.00000  Uiso   1.00
C1878  C     0.03609   0.56071   0.67040   0.00000  Uiso   1.00
H1879  H     0.04696   0.52861   0.99689   0.00000  Uiso   1.00
H1880  H     0.05891   0.57006   0.70312   0.00000  Uiso   1.00
H1881  H     0.04622   0.58235   0.97628   0.00000  Uiso   1.00
O1882  O     0.09900   0.44867   0.70800   0.00000  Uiso   1.00
C1883  C     0.10785   0.40547   0.70592   0.00000  Uiso   1.00
H1884  H     0.12298   0.39314   0.74022   0.00000  Uiso   1.00
H1885  H     0.13686   0.39756   0.68372   0.00000  Uiso   1.00
C1886  C     0.05601   0.38274   0.69154   0.00000  Uiso   1.00
H1887  H     0.02978   0.38718   0.71720   0.00000  Uiso   1.00
H1888  H     0.03702   0.39612   0.99212   0.00000  Uiso   1.00
C1889  C     0.06344   0.33632   0.68640   0.00000  Uiso   1.00
H1890  H     0.08645   0.66466   0.99190   0.00000  Uiso   1.00
H1891  H     0.02471   0.65426   0.67775   0.00000  Uiso   1.00
H1892  H     0.08369   0.65525   0.71848   0.00000  Uiso   1.00
C1893  C     0.50228   0.42007   0.83451   0.00000  Uiso   1.00
C1894  C     0.50217   0.57999   0.83314   0.00000  Uiso   1.00
C1895  C     0.40068   0.49937   0.82167   0.00000  Uiso   1.00
C1896  C     0.59937   0.50059   0.84490   0.00000  Uiso   1.00
C1897  C     0.34623   0.49254   0.81720   0.00000  Uiso   1.00
C1898  C     0.65361   0.50777   0.84900   0.00000  Uiso   1.00
C1899  C     0.52938   0.35709   0.80273   0.00000  Uiso   1.00
C1900  C     0.49068   0.64337   0.87109   0.00000  Uiso   1.00
C1901  C     0.53251   0.64765   0.80336   0.00000  Uiso   1.00
C1902  C     0.49747   0.35235   0.87544   0.00000  Uiso   1.00
C1903  C     0.50686   0.62430   0.83432   0.00000  Uiso   1.00
C1904  C     0.50891   0.37601   0.83749   0.00000  Uiso   1.00
C1905  C     0.52790   0.52905   0.69262   0.00000  Uiso   1.00
C1906  C     0.46670   0.47419   0.97251   0.00000  Uiso   1.00
C1907  C     0.53115   0.52724   0.97907   0.00000  Uiso   1.00
C1908  C     0.46860   0.47242   0.68791   0.00000  Uiso   1.00
H1909  H     0.54497   0.37541   0.77637   0.00000  Uiso   1.00
H1910  H     0.47485   0.62557   0.89772   0.00000  Uiso   1.00
N1911  N     0.49999   0.49999   0.95240   0.00000  Uiso   1.00
N1912  N     0.50001   0.50001   0.71427   0.00000  Uiso   1.00
O1913  O     0.50000   0.43892   0.87154   0.00000  Uiso   1.00
O1914  O     0.50000   0.56108   0.79513   0.00000  Uiso   1.00
O1915  O     0.50000   0.43893   0.79510   0.00000  Uiso   1.00
O1916  O     0.50000   0.56107   0.87157   0.00000  Uiso   1.00
O1917  O     0.42392   0.50000   0.86261   0.00000  Uiso   1.00
O1918  O     0.57608   0.50000   0.80405   0.00000  Uiso   1.00
O1919  O     0.42392   0.50000   0.78617   0.00000  Uiso   1.00
O1920  O     0.57608   0.50000   0.88050   0.00000  Uiso   1.00
Zn1921 Zn    0.50000   0.49999   0.88437   0.00000  Uiso   1.00
Zn1922 Zn    0.50000   0.50001   0.78229   0.00000  Uiso   1.00
N1923  N     0.65559   0.46456   0.78314   0.00000  Uiso   1.00
H1924  H     0.34163   0.43620   0.78802   0.00000  Uiso   1.00
H1925  H     0.66094   0.47711   0.75125   0.00000  Uiso   1.00
N1926  N     0.34227   0.53797   0.88126   0.00000  Uiso   1.00
H1927  H     0.36546   0.52334   0.90869   0.00000  Uiso   1.00
H1928  H     0.36338   0.56108   0.86571   0.00000  Uiso   1.00
O1929  O     0.56321   0.62937   0.77592   0.00000  Uiso   1.00
C1930  C     0.61453   0.62501   0.79972   0.00000  Uiso   1.00
H1931  H     0.63023   0.59541   0.78981   0.00000  Uiso   1.00
H1932  H     0.61654   0.62252   0.83747   0.00000  Uiso   1.00
C1933  C     0.64975   0.66085   0.78632   0.00000  Uiso   1.00
H1934  H     0.64702   0.66292   0.74876   0.00000  Uiso   1.00
H1935  H     0.63673   0.35739   0.79802   0.00000  Uiso   1.00
C1936  C     0.37305   0.65432   0.80732   0.00000  Uiso   1.00
H1937  H     0.37644   0.65234   0.84493   0.00000  Uiso   1.00
H1938  H     0.39747   0.34768   0.79745   0.00000  Uiso   1.00
H1939  H     0.38781   0.62524   0.79515   0.00000  Uiso   1.00
O1940  O     0.49093   0.37046   0.91559   0.00000  Uiso   1.00
C1941  C     0.52945   0.35620   0.95163   0.00000  Uiso   1.00
H1942  H     0.55208   0.66212   0.94416   0.00000  Uiso   1.00
H1943  H     0.50924   0.34576   0.98046   0.00000  Uiso   1.00
C1944  C     0.56767   0.39162   0.96751   0.00000  Uiso   1.00
H1945  H     0.54599   0.42046   0.97038   0.00000  Uiso   1.00
H1946  H     0.58870   0.38311   0.66846   0.00000  Uiso   1.00
C1947  C     0.60792   0.40006   0.93554   0.00000  Uiso   1.00
H1948  H     0.63292   0.37250   0.93524   0.00000  Uiso   1.00
H1949  H     0.63261   0.42742   0.94710   0.00000  Uiso   1.00
H1950  H     0.58909   0.40728   0.90049   0.00000  Uiso   1.00
N1951  N     0.54835   0.56512   0.71538   0.00000  Uiso   1.00
H1952  H     0.56938   0.55558   0.74634   0.00000  Uiso   1.00
H1953  H     0.51643   0.58274   0.72016   0.00000  Uiso   1.00
N1954  N     0.42743   0.45182   0.94364   0.00000  Uiso   1.00
H1955  H     0.39103   0.45847   0.95238   0.00000  Uiso   1.00
H1956  H     0.43374   0.41998   0.94805   0.00000  Uiso   1.00
O1957  O     0.55817   0.55869   0.95916   0.00000  Uiso   1.00
C1958  C     0.61148   0.54867   0.96230   0.00000  Uiso   1.00
H1959  H     0.62582   0.56694   0.93437   0.00000  Uiso   1.00
H1960  H     0.61765   0.51499   0.95756   0.00000  Uiso   1.00
C1961  C     0.64451   0.56215   0.67331   0.00000  Uiso   1.00
H1962  H     0.63436   0.59427   0.68088   0.00000  Uiso   1.00
H1963  H     0.63697   0.54051   0.70157   0.00000  Uiso   1.00
C1964  C     0.36942   0.56071   0.67040   0.00000  Uiso   1.00
H1965  H     0.38030   0.52861   0.99689   0.00000  Uiso   1.00
H1966  H     0.39224   0.57006   0.70312   0.00000  Uiso   1.00
H1967  H     0.37956   0.58235   0.97628   0.00000  Uiso   1.00
O1968  O     0.43233   0.44867   0.70800   0.00000  Uiso   1.00
C1969  C     0.44119   0.40547   0.70592   0.00000  Uiso   1.00
H1970  H     0.45631   0.39314   0.74022   0.00000  Uiso   1.00
H1971  H     0.47019   0.39756   0.68372   0.00000  Uiso   1.00
C1972  C     0.38934   0.38274   0.69154   0.00000  Uiso   1.00
H1973  H     0.36311   0.38718   0.71720   0.00000  Uiso   1.00
H1974  H     0.37035   0.39612   0.99212   0.00000  Uiso   1.00
C1975  C     0.39678   0.33632   0.68640   0.00000  Uiso   1.00
H1976  H     0.41978   0.66466   0.99190   0.00000  Uiso   1.00
H1977  H     0.35804   0.65426   0.67775   0.00000  Uiso   1.00
H1978  H     0.41703   0.65525   0.71848   0.00000  Uiso   1.00
C1979  C     0.83561   0.42007   0.83451   0.00000  Uiso   1.00
C1980  C     0.83550   0.57999   0.83314   0.00000  Uiso   1.00
C1981  C     0.73401   0.49937   0.82167   0.00000  Uiso   1.00
C1982  C     0.93270   0.50059   0.84490   0.00000  Uiso   1.00
C1983  C     0.67956   0.49254   0.81720   0.00000  Uiso   1.00
C1984  C     0.98695   0.50777   0.84900   0.00000  Uiso   1.00
C1985  C     0.86271   0.35709   0.80273   0.00000  Uiso   1.00
C1986  C     0.82402   0.64337   0.87109   0.00000  Uiso   1.00
C1987  C     0.86585   0.64765   0.80336   0.00000  Uiso   1.00
C1988  C     0.83080   0.35235   0.87544   0.00000  Uiso   1.00
C1989  C     0.84019   0.62430   0.83432   0.00000  Uiso   1.00
C1990  C     0.84225   0.37601   0.83749   0.00000  Uiso   1.00
C1991  C     0.86123   0.52905   0.69262   0.00000  Uiso   1.00
C1992  C     0.80003   0.47419   0.97251   0.00000  Uiso   1.00
C1993  C     0.86449   0.52724   0.97907   0.00000  Uiso   1.00
C1994  C     0.80194   0.47242   0.68791   0.00000  Uiso   1.00
H1995  H     0.87831   0.37541   0.77637   0.00000  Uiso   1.00
H1996  H     0.80819   0.62557   0.89772   0.00000  Uiso   1.00
N1997  N     0.83332   0.49999   0.95240   0.00000  Uiso   1.00
N1998  N     0.83335   0.50001   0.71427   0.00000  Uiso   1.00
O1999  O     0.83333   0.43892   0.87154   0.00000  Uiso   1.00
O2000  O     0.83334   0.56108   0.79513   0.00000  Uiso   1.00
O2001  O     0.83333   0.43893   0.79510   0.00000  Uiso   1.00
O2002  O     0.83334   0.56107   0.87157   0.00000  Uiso   1.00
O2003  O     0.75725   0.50000   0.86261   0.00000  Uiso   1.00
O2004  O     0.90942   0.50000   0.80405   0.00000  Uiso   1.00
O2005  O     0.75725   0.50000   0.78617   0.00000  Uiso   1.00
O2006  O     0.90942   0.50000   0.88050   0.00000  Uiso   1.00
Zn2007 Zn    0.83333   0.49999   0.88437   0.00000  Uiso   1.00
Zn2008 Zn    0.83333   0.50001   0.78229   0.00000  Uiso   1.00
N2009  N     0.98892   0.46456   0.78314   0.00000  Uiso   1.00
H2010  H     0.67497   0.43620   0.78802   0.00000  Uiso   1.00
H2011  H     0.99428   0.47711   0.75125   0.00000  Uiso   1.00
N2012  N     0.67561   0.53797   0.88126   0.00000  Uiso   1.00
H2013  H     0.69880   0.52334   0.90869   0.00000  Uiso   1.00
H2014  H     0.69671   0.56108   0.86571   0.00000  Uiso   1.00
O2015  O     0.89654   0.62937   0.77592   0.00000  Uiso   1.00
C2016  C     0.94787   0.62501   0.79972   0.00000  Uiso   1.00
H2017  H     0.96356   0.59541   0.78981   0.00000  Uiso   1.00
H2018  H     0.94988   0.62252   0.83747   0.00000  Uiso   1.00
C2019  C     0.98308   0.66085   0.78632   0.00000  Uiso   1.00
H2020  H     0.98035   0.66292   0.74876   0.00000  Uiso   1.00
H2021  H     0.97007   0.35739   0.79802   0.00000  Uiso   1.00
C2022  C     0.70638   0.65432   0.80732   0.00000  Uiso   1.00
H2023  H     0.70977   0.65234   0.84493   0.00000  Uiso   1.00
H2024  H     0.73081   0.34768   0.79745   0.00000  Uiso   1.00
H2025  H     0.72114   0.62524   0.79515   0.00000  Uiso   1.00
O2026  O     0.82427   0.37046   0.91559   0.00000  Uiso   1.00
C2027  C     0.86278   0.35620   0.95163   0.00000  Uiso   1.00
H2028  H     0.88541   0.66212   0.94416   0.00000  Uiso   1.00
H2029  H     0.84258   0.34576   0.98046   0.00000  Uiso   1.00
C2030  C     0.90101   0.39162   0.96751   0.00000  Uiso   1.00
H2031  H     0.87933   0.42046   0.97038   0.00000  Uiso   1.00
H2032  H     0.92203   0.38311   0.66846   0.00000  Uiso   1.00
C2033  C     0.94126   0.40006   0.93554   0.00000  Uiso   1.00
H2034  H     0.96625   0.37250   0.93524   0.00000  Uiso   1.00
H2035  H     0.96595   0.42742   0.94710   0.00000  Uiso   1.00
H2036  H     0.92242   0.40728   0.90049   0.00000  Uiso   1.00
N2037  N     0.88168   0.56512   0.71538   0.00000  Uiso   1.00
H2038  H     0.90272   0.55558   0.74634   0.00000  Uiso   1.00
H2039  H     0.84976   0.58274   0.72016   0.00000  Uiso   1.00
N2040  N     0.76077   0.45182   0.94364   0.00000  Uiso   1.00
H2041  H     0.72436   0.45847   0.95238   0.00000  Uiso   1.00
H2042  H     0.76707   0.41998   0.94805   0.00000  Uiso   1.00
O2043  O     0.89150   0.55869   0.95916   0.00000  Uiso   1.00
C2044  C     0.94481   0.54867   0.96230   0.00000  Uiso   1.00
H2045  H     0.95915   0.56694   0.93437   0.00000  Uiso   1.00
H2046  H     0.95098   0.51499   0.95756   0.00000  Uiso   1.00
C2047  C     0.97785   0.56215   0.67331   0.00000  Uiso   1.00
H2048  H     0.96769   0.59427   0.68088   0.00000  Uiso   1.00
H2049  H     0.97030   0.54051   0.70157   0.00000  Uiso   1.00
C2050  C     0.70276   0.56071   0.67040   0.00000  Uiso   1.00
H2051  H     0.71363   0.52861   0.99689   0.00000  Uiso   1.00
H2052  H     0.72557   0.57006   0.70312   0.00000  Uiso   1.00
H2053  H     0.71289   0.58235   0.97628   0.00000  Uiso   1.00
O2054  O     0.76567   0.44867   0.70800   0.00000  Uiso   1.00
C2055  C     0.77452   0.40547   0.70592   0.00000  Uiso   1.00
H2056  H     0.78965   0.39314   0.74022   0.00000  Uiso   1.00
H2057  H     0.80353   0.39756   0.68372   0.00000  Uiso   1.00
C2058  C     0.72268   0.38274   0.69154   0.00000  Uiso   1.00
H2059  H     0.69645   0.38718   0.71720   0.00000  Uiso   1.00
H2060  H     0.70369   0.39612   0.99212   0.00000  Uiso   1.00
C2061  C     0.73011   0.33632   0.68640   0.00000  Uiso   1.00
H2062  H     0.75311   0.66466   0.99190   0.00000  Uiso   1.00
H2063  H     0.69137   0.65426   0.67775   0.00000  Uiso   1.00
H2064  H     0.75036   0.65525   0.71848   0.00000  Uiso   1.00
C2065  C     0.16895   0.75341   0.83451   0.00000  Uiso   1.00
C2066  C     0.16883   0.91332   0.83314   0.00000  Uiso   1.00
C2067  C     0.06735   0.83270   0.82167   0.00000  Uiso   1.00
C2068  C     0.26603   0.83392   0.84490   0.00000  Uiso   1.00
C2069  C     0.01290   0.82587   0.81720   0.00000  Uiso   1.00
C2070  C     0.32028   0.84110   0.84900   0.00000  Uiso   1.00
C2071  C     0.19604   0.69043   0.80273   0.00000  Uiso   1.00
C2072  C     0.15735   0.97670   0.87109   0.00000  Uiso   1.00
C2073  C     0.19918   0.98099   0.80336   0.00000  Uiso   1.00
C2074  C     0.16414   0.68568   0.87544   0.00000  Uiso   1.00
C2075  C     0.17353   0.95763   0.83432   0.00000  Uiso   1.00
C2076  C     0.17558   0.70934   0.83749   0.00000  Uiso   1.00
C2077  C     0.19456   0.86239   0.69262   0.00000  Uiso   1.00
C2078  C     0.13336   0.80753   0.97251   0.00000  Uiso   1.00
C2079  C     0.19782   0.86058   0.97907   0.00000  Uiso   1.00
C2080  C     0.13527   0.80576   0.68791   0.00000  Uiso   1.00
H2081  H     0.21164   0.70874   0.77637   0.00000  Uiso   1.00
H2082  H     0.14152   0.95891   0.89772   0.00000  Uiso   1.00
N2083  N     0.16665   0.83332   0.95240   0.00000  Uiso   1.00
N2084  N     0.16668   0.83334   0.71427   0.00000  Uiso   1.00
O2085  O     0.16666   0.77225   0.87154   0.00000  Uiso   1.00
O2086  O     0.16667   0.89442   0.79513   0.00000  Uiso   1.00
O2087  O     0.16666   0.77226   0.79510   0.00000  Uiso   1.00
O2088  O     0.16667   0.89441   0.87157   0.00000  Uiso   1.00
O2089  O     0.09058   0.83333   0.86261   0.00000  Uiso   1.00
O2090  O     0.24275   0.83334   0.80405   0.00000  Uiso   1.00
O2091  O     0.09058   0.83334   0.78617   0.00000  Uiso   1.00
O2092  O     0.24275   0.83333   0.88050   0.00000  Uiso   1.00
Zn2093 Zn    0.16667   0.83333   0.88437   0.00000  Uiso   1.00
Zn2094 Zn    0.16667   0.83334   0.78229   0.00000  Uiso   1.00
N2095  N     0.32225   0.79789   0.78314   0.00000  Uiso   1.00
H2096  H     0.00830   0.76953   0.78802   0.00000  Uiso   1.00
H2097  H     0.32761   0.81044   0.75125   0.00000  Uiso   1.00
N2098  N     0.00894   0.87131   0.88126   0.00000  Uiso   1.00
H2099  H     0.03213   0.85667   0.90869   0.00000  Uiso   1.00
H2100  H     0.03004   0.89441   0.86571   0.00000  Uiso   1.00
O2101  O     0.22987   0.96271   0.77592   0.00000  Uiso   1.00
C2102  C     0.28120   0.95834   0.79972   0.00000  Uiso   1.00
H2103  H     0.29689   0.92875   0.78981   0.00000  Uiso   1.00
H2104  H     0.28321   0.95585   0.83747   0.00000  Uiso   1.00
C2105  C     0.31642   0.99418   0.78632   0.00000  Uiso   1.00
H2106  H     0.31368   0.99625   0.74876   0.00000  Uiso   1.00
H2107  H     0.30340   0.69072   0.79802   0.00000  Uiso   1.00
C2108  C     0.03971   0.98766   0.80732   0.00000  Uiso   1.00
H2109  H     0.04311   0.98567   0.84493   0.00000  Uiso   1.00
H2110  H     0.06414   0.68101   0.79745   0.00000  Uiso   1.00
H2111  H     0.05448   0.95857   0.79515   0.00000  Uiso   1.00
O2112  O     0.15760   0.70379   0.91559   0.00000  Uiso   1.00
C2113  C     0.19611   0.68953   0.95163   0.00000  Uiso   1.00
H2114  H     0.21875   0.99545   0.94416   0.00000  Uiso   1.00
H2115  H     0.17591   0.67910   0.98046   0.00000  Uiso   1.00
C2116  C     0.23434   0.72495   0.96751   0.00000  Uiso   1.00
H2117  H     0.21266   0.75379   0.97038   0.00000  Uiso   1.00
H2118  H     0.25537   0.71644   0.66846   0.00000  Uiso   1.00
C2119  C     0.27459   0.73339   0.93554   0.00000  Uiso   1.00
H2120  H     0.29958   0.70583   0.93524   0.00000  Uiso   1.00
H2121  H     0.29928   0.76075   0.94710   0.00000  Uiso   1.00
H2122  H     0.25576   0.74061   0.90049   0.00000  Uiso   1.00
N2123  N     0.21501   0.89845   0.71538   0.00000  Uiso   1.00
H2124  H     0.23605   0.88891   0.74634   0.00000  Uiso   1.00
H2125  H     0.18310   0.91607   0.72016   0.00000  Uiso   1.00
N2126  N     0.09410   0.78515   0.94364   0.00000  Uiso   1.00
H2127  H     0.05770   0.79181   0.95238   0.00000  Uiso   1.00
H2128  H     0.10040   0.75331   0.94805   0.00000  Uiso   1.00
O2129  O     0.22483   0.89202   0.95916   0.00000  Uiso   1.00
C2130  C     0.27814   0.88201   0.96230   0.00000  Uiso   1.00
H2131  H     0.29248   0.90027   0.93437   0.00000  Uiso   1.00
H2132  H     0.28431   0.84832   0.95756   0.00000  Uiso   1.00
C2133  C     0.31118   0.89548   0.67331   0.00000  Uiso   1.00
H2134  H     0.30103   0.92761   0.68088   0.00000  Uiso   1.00
H2135  H     0.30363   0.87384   0.70157   0.00000  Uiso   1.00
C2136  C     0.03609   0.89405   0.67040   0.00000  Uiso   1.00
H2137  H     0.04696   0.86194   0.99689   0.00000  Uiso   1.00
H2138  H     0.05891   0.90339   0.70312   0.00000  Uiso   1.00
H2139  H     0.04622   0.91569   0.97628   0.00000  Uiso   1.00
O2140  O     0.09900   0.78200   0.70800   0.00000  Uiso   1.00
C2141  C     0.10785   0.73880   0.70592   0.00000  Uiso   1.00
H2142  H     0.12298   0.72648   0.74022   0.00000  Uiso   1.00
H2143  H     0.13686   0.73089   0.68372   0.00000  Uiso   1.00
C2144  C     0.05601   0.71607   0.69154   0.00000  Uiso   1.00
H2145  H     0.02978   0.72052   0.71720   0.00000  Uiso   1.00
H2146  H     0.03702   0.72946   0.99212   0.00000  Uiso   1.00
C2147  C     0.06344   0.66966   0.68640   0.00000  Uiso   1.00
H2148  H     0.08645   0.99800   0.99190   0.00000  Uiso   1.00
H2149  H     0.02471   0.98759   0.67775   0.00000  Uiso   1.00
H2150  H     0.08369   0.98859   0.71848   0.00000  Uiso   1.00
C2151  C     0.50228   0.75341   0.83451   0.00000  Uiso   1.00
C2152  C     0.50217   0.91332   0.83314   0.00000  Uiso   1.00
C2153  C     0.40068   0.83270   0.82167   0.00000  Uiso   1.00
C2154  C     0.59937   0.83392   0.84490   0.00000  Uiso   1.00
C2155  C     0.34623   0.82587   0.81720   0.00000  Uiso   1.00
C2156  C     0.65361   0.84110   0.84900   0.00000  Uiso   1.00
C2157  C     0.52938   0.69043   0.80273   0.00000  Uiso   1.00
C2158  C     0.49068   0.97670   0.87109   0.00000  Uiso   1.00
C2159  C     0.53251   0.98099   0.80336   0.00000  Uiso   1.00
C2160  C     0.49747   0.68568   0.87544   0.00000  Uiso   1.00
C2161  C     0.50686   0.95763   0.83432   0.00000  Uiso   1.00
C2162  C     0.50891   0.70934   0.83749   0.00000  Uiso   1.00
C2163  C     0.52790   0.86239   0.69262   0.00000  Uiso   1.00
C2164  C     0.46670   0.80753   0.97251   0.00000  Uiso   1.00
C2165  C     0.53115   0.86058   0.97907   0.00000  Uiso   1.00
C2166  C     0.46860   0.80576   0.68791   0.00000  Uiso   1.00
H2167  H     0.54497   0.70874   0.77637   0.00000  Uiso   1.00
H2168  H     0.47485   0.95891   0.89772   0.00000  Uiso   1.00
N2169  N     0.49999   0.83332   0.95240   0.00000  Uiso   1.00
N2170  N     0.50001   0.83334   0.71427   0.00000  Uiso   1.00
O2171  O     0.50000   0.77225   0.87154   0.00000  Uiso   1.00
O2172  O     0.50000   0.89442   0.79513   0.00000  Uiso   1.00
O2173  O     0.50000   0.77226   0.79510   0.00000  Uiso   1.00
O2174  O     0.50000   0.89441   0.87157   0.00000  Uiso   1.00
O2175  O     0.42392   0.83333   0.86261   0.00000  Uiso   1.00
O2176  O     0.57608   0.83334   0.80405   0.00000  Uiso   1.00
O2177  O     0.42392   0.83334   0.78617   0.00000  Uiso   1.00
O2178  O     0.57608   0.83333   0.88050   0.00000  Uiso   1.00
Zn2179 Zn    0.50000   0.83333   0.88437   0.00000  Uiso   1.00
Zn2180 Zn    0.50000   0.83334   0.78229   0.00000  Uiso   1.00
N2181  N     0.65559   0.79789   0.78314   0.00000  Uiso   1.00
H2182  H     0.34163   0.76953   0.78802   0.00000  Uiso   1.00
H2183  H     0.66094   0.81044   0.75125   0.00000  Uiso   1.00
N2184  N     0.34227   0.87131   0.88126   0.00000  Uiso   1.00
H2185  H     0.36546   0.85667   0.90869   0.00000  Uiso   1.00
H2186  H     0.36338   0.89441   0.86571   0.00000  Uiso   1.00
O2187  O     0.56321   0.96271   0.77592   0.00000  Uiso   1.00
C2188  C     0.61453   0.95834   0.79972   0.00000  Uiso   1.00
H2189  H     0.63023   0.92875   0.78981   0.00000  Uiso   1.00
H2190  H     0.61654   0.95585   0.83747   0.00000  Uiso   1.00
C2191  C     0.64975   0.99418   0.78632   0.00000  Uiso   1.00
H2192  H     0.64702   0.99625   0.74876   0.00000  Uiso   1.00
H2193  H     0.63673   0.69072   0.79802   0.00000  Uiso   1.00
C2194  C     0.37305   0.98766   0.80732   0.00000  Uiso   1.00
H2195  H     0.37644   0.98567   0.84493   0.00000  Uiso   1.00
H2196  H     0.39747   0.68101   0.79745   0.00000  Uiso   1.00
H2197  H     0.38781   0.95857   0.79515   0.00000  Uiso   1.00
O2198  O     0.49093   0.70379   0.91559   0.00000  Uiso   1.00
C2199  C     0.52945   0.68953   0.95163   0.00000  Uiso   1.00
H2200  H     0.55208   0.99545   0.94416   0.00000  Uiso   1.00
H2201  H     0.50924   0.67910   0.98046   0.00000  Uiso   1.00
C2202  C     0.56767   0.72495   0.96751   0.00000  Uiso   1.00
H2203  H     0.54599   0.75379   0.97038   0.00000  Uiso   1.00
H2204  H     0.58870   0.71644   0.66846   0.00000  Uiso   1.00
C2205  C     0.60792   0.73339   0.93554   0.00000  Uiso   1.00
H2206  H     0.63292   0.70583   0.93524   0.00000  Uiso   1.00
H2207  H     0.63261   0.76075   0.94710   0.00000  Uiso   1.00
H2208  H     0.58909   0.74061   0.90049   0.00000  Uiso   1.00
N2209  N     0.54835   0.89845   0.71538   0.00000  Uiso   1.00
H2210  H     0.56938   0.88891   0.74634   0.00000  Uiso   1.00
H2211  H     0.51643   0.91607   0.72016   0.00000  Uiso   1.00
N2212  N     0.42743   0.78515   0.94364   0.00000  Uiso   1.00
H2213  H     0.39103   0.79181   0.95238   0.00000  Uiso   1.00
H2214  H     0.43374   0.75331   0.94805   0.00000  Uiso   1.00
O2215  O     0.55817   0.89202   0.95916   0.00000  Uiso   1.00
C2216  C     0.61148   0.88201   0.96230   0.00000  Uiso   1.00
H2217  H     0.62582   0.90027   0.93437   0.00000  Uiso   1.00
H2218  H     0.61765   0.84832   0.95756   0.00000  Uiso   1.00
C2219  C     0.64451   0.89548   0.67331   0.00000  Uiso   1.00
H2220  H     0.63436   0.92761   0.68088   0.00000  Uiso   1.00
H2221  H     0.63697   0.87384   0.70157   0.00000  Uiso   1.00
C2222  C     0.36942   0.89405   0.67040   0.00000  Uiso   1.00
H2223  H     0.38030   0.86194   0.99689   0.00000  Uiso   1.00
H2224  H     0.39224   0.90339   0.70312   0.00000  Uiso   1.00
H2225  H     0.37956   0.91569   0.97628   0.00000  Uiso   1.00
O2226  O     0.43233   0.78200   0.70800   0.00000  Uiso   1.00
C2227  C     0.44119   0.73880   0.70592   0.00000  Uiso   1.00
H2228  H     0.45631   0.72648   0.74022   0.00000  Uiso   1.00
H2229  H     0.47019   0.73089   0.68372   0.00000  Uiso   1.00
C2230  C     0.38934   0.71607   0.69154   0.00000  Uiso   1.00
H2231  H     0.36311   0.72052   0.71720   0.00000  Uiso   1.00
H2232  H     0.37035   0.72946   0.99212   0.00000  Uiso   1.00
C2233  C     0.39678   0.66966   0.68640   0.00000  Uiso   1.00
H2234  H     0.41978   0.99800   0.99190   0.00000  Uiso   1.00
H2235  H     0.35804   0.98759   0.67775   0.00000  Uiso   1.00
H2236  H     0.41703   0.98859   0.71848   0.00000  Uiso   1.00
C2237  C     0.83561   0.75341   0.83451   0.00000  Uiso   1.00
C2238  C     0.83550   0.91332   0.83314   0.00000  Uiso   1.00
C2239  C     0.73401   0.83270   0.82167   0.00000  Uiso   1.00
C2240  C     0.93270   0.83392   0.84490   0.00000  Uiso   1.00
C2241  C     0.67956   0.82587   0.81720   0.00000  Uiso   1.00
C2242  C     0.98695   0.84110   0.84900   0.00000  Uiso   1.00
C2243  C     0.86271   0.69043   0.80273   0.00000  Uiso   1.00
C2244  C     0.82402   0.97670   0.87109   0.00000  Uiso   1.00
C2245  C     0.86585   0.98099   0.80336   0.00000  Uiso   1.00
C2246  C     0.83080   0.68568   0.87544   0.00000  Uiso   1.00
C2247  C     0.84019   0.95763   0.83432   0.00000  Uiso   1.00
C2248  C     0.84225   0.70934   0.83749   0.00000  Uiso   1.00
C2249  C     0.86123   0.86239   0.69262   0.00000  Uiso   1.00
C2250  C     0.80003   0.80753   0.97251   0.00000  Uiso   1.00
C2251  C     0.86449   0.86058   0.97907   0.00000  Uiso   1.00
C2252  C     0.80194   0.80576   0.68791   0.00000  Uiso   1.00
H2253  H     0.87831   0.70874   0.77637   0.00000  Uiso   1.00
H2254  H     0.80819   0.95891   0.89772   0.00000  Uiso   1.00
N2255  N     0.83332   0.83332   0.95240   0.00000  Uiso   1.00
N2256  N     0.83335   0.83334   0.71427   0.00000  Uiso   1.00
O2257  O     0.83333   0.77225   0.87154   0.00000  Uiso   1.00
O2258  O     0.83334   0.89442   0.79513   0.00000  Uiso   1.00
O2259  O     0.83333   0.77226   0.79510   0.00000  Uiso   1.00
O2260  O     0.83334   0.89441   0.87157   0.00000  Uiso   1.00
O2261  O     0.75725   0.83333   0.86261   0.00000  Uiso   1.00
O2262  O     0.90942   0.83334   0.80405   0.00000  Uiso   1.00
O2263  O     0.75725   0.83334   0.78617   0.00000  Uiso   1.00
O2264  O     0.90942   0.83333   0.88050   0.00000  Uiso   1.00
Zn2265 Zn    0.83333   0.83333   0.88437   0.00000  Uiso   1.00
Zn2266 Zn    0.83333   0.83334   0.78229   0.00000  Uiso   1.00
N2267  N     0.98892   0.79789   0.78314   0.00000  Uiso   1.00
H2268  H     0.67497   0.76953   0.78802   0.00000  Uiso   1.00
H2269  H     0.99428   0.81044   0.75125   0.00000  Uiso   1.00
N2270  N     0.67561   0.87131   0.88126   0.00000  Uiso   1.00
H2271  H     0.69880   0.85667   0.90869   0.00000  Uiso   1.00
H2272  H     0.69671   0.89441   0.86571   0.00000  Uiso   1.00
O2273  O     0.89654   0.96271   0.77592   0.00000  Uiso   1.00
C2274  C     0.94787   0.95834   0.79972   0.00000  Uiso   1.00
H2275  H     0.96356   0.92875   0.78981   0.00000  Uiso   1.00
H2276  H     0.94988   0.95585   0.83747   0.00000  Uiso   1.00
C2277  C     0.98308   0.99418   0.78632   0.00000  Uiso   1.00
H2278  H     0.98035   0.99625   0.74876   0.00000  Uiso   1.00
H2279  H     0.97007   0.69072   0.79802   0.00000  Uiso   1.00
C2280  C     0.70638   0.98766   0.80732   0.00000  Uiso   1.00
H2281  H     0.70977   0.98567   0.84493   0.00000  Uiso   1.00
H2282  H     0.73081   0.68101   0.79745   0.00000  Uiso   1.00
H2283  H     0.72114   0.95857   0.79515   0.00000  Uiso   1.00
O2284  O     0.82427   0.70379   0.91559   0.00000  Uiso   1.00
C2285  C     0.86278   0.68953   0.95163   0.00000  Uiso   1.00
H2286  H     0.88541   0.99545   0.94416   0.00000  Uiso   1.00
H2287  H     0.84258   0.67910   0.98046   0.00000  Uiso   1.00
C2288  C     0.90101   0.72495   0.96751   0.00000  Uiso   1.00
H2289  H     0.87933   0.75379   0.97038   0.00000  Uiso   1.00
H2290  H     0.92203   0.71644   0.66846   0.00000  Uiso   1.00
C2291  C     0.94126   0.73339   0.93554   0.00000  Uiso   1.00
H2292  H     0.96625   0.70583   0.93524   0.00000  Uiso   1.00
H2293  H     0.96595   0.76075   0.94710   0.00000  Uiso   1.00
H2294  H     0.92242   0.74061   0.90049   0.00000  Uiso   1.00
N2295  N     0.88168   0.89845   0.71538   0.00000  Uiso   1.00
H2296  H     0.90272   0.88891   0.74634   0.00000  Uiso   1.00
H2297  H     0.84976   0.91607   0.72016   0.00000  Uiso   1.00
N2298  N     0.76077   0.78515   0.94364   0.00000  Uiso   1.00
H2299  H     0.72436   0.79181   0.95238   0.00000  Uiso   1.00
H2300  H     0.76707   0.75331   0.94805   0.00000  Uiso   1.00
O2301  O     0.89150   0.89202   0.95916   0.00000  Uiso   1.00
C2302  C     0.94481   0.88201   0.96230   0.00000  Uiso   1.00
H2303  H     0.95915   0.90027   0.93437   0.00000  Uiso   1.00
H2304  H     0.95098   0.84832   0.95756   0.00000  Uiso   1.00
C2305  C     0.97785   0.89548   0.67331   0.00000  Uiso   1.00
H2306  H     0.96769   0.92761   0.68088   0.00000  Uiso   1.00
H2307  H     0.97030   0.87384   0.70157   0.00000  Uiso   1.00
C2308  C     0.70276   0.89405   0.67040   0.00000  Uiso   1.00
H2309  H     0.71363   0.86194   0.99689   0.00000  Uiso   1.00
H2310  H     0.72557   0.90339   0.70312   0.00000  Uiso   1.00
H2311  H     0.71289   0.91569   0.97628   0.00000  Uiso   1.00
O2312  O     0.76567   0.78200   0.70800   0.00000  Uiso   1.00
C2313  C     0.77452   0.73880   0.70592   0.00000  Uiso   1.00
H2314  H     0.78965   0.72648   0.74022   0.00000  Uiso   1.00
H2315  H     0.80353   0.73089   0.68372   0.00000  Uiso   1.00
C2316  C     0.72268   0.71607   0.69154   0.00000  Uiso   1.00
H2317  H     0.69645   0.72052   0.71720   0.00000  Uiso   1.00
H2318  H     0.70369   0.72946   0.99212   0.00000  Uiso   1.00
C2319  C     0.73011   0.66966   0.68640   0.00000  Uiso   1.00
H2320  H     0.75311   0.99800   0.99190   0.00000  Uiso   1.00
H2321  H     0.69137   0.98759   0.67775   0.00000  Uiso   1.00
H2322  H     0.75036   0.98859   0.71848   0.00000  Uiso   1.00
loop_
_geom_bond_atom_site_label_1
_geom_bond_atom_site_label_2
_geom_bond_distance
_geom_bond_site_symmetry_2
_ccdc_geom_bond_type
C1     O21     1.288   .     A
C1     C12     1.428   .     S
C1     O23     1.295   .     A
C2     O22     1.299   .     A
C2     C11     1.427   .     S
C2     O24     1.284   .     A
C3     O25     1.279   .     A
C3     C5      1.411   .     S
C3     O27     1.292   .     A
C4     O28     1.295   .     A
C4     C6      1.408   .     S
C4     O26     1.277   .     A
C5     C178    1.353   1_455 S
C5     N203    1.442   1_455 S
C6     C91     1.353   .     S
C6     N120    1.440   .     S
C7     C12     1.397   .     A
C7     H17     1.084   .     S
C7     C525    1.378   1_545 S
C8     H18     1.084   .     S
C8     C11     1.397   .     A
C8     C268    1.375   .     S
C9     O37     1.378   .     S
C9     C11     1.401   .     A
C9     C265    1.378   .     S
C10    O48     1.384   .     S
C10    C12     1.403   .     A
C10    C524    1.375   1_545 S
C13    N20     1.367   .     A
C13    N59     1.417   .     S
C13    C1563   1.416   1_554 S
C14    N62     1.430   .     S
C14    N19     1.368   .     A
C14    C790    1.445   .     S
C15    N19     1.371   .     A
C15    O65     1.381   .     S
C15    C787    1.416   .     S
C16    N20     1.376   .     A
C16    O76     1.387   .     S
C16    C1562   1.445   1_554 S
N19    Zn29    2.028   .     S
N20    Zn30    2.028   .     S
O21    Zn29    2.013   .     S
O22    Zn30    2.013   .     S
O23    Zn30    1.985   .     S
O24    Zn29    1.985   .     S
O25    Zn29    1.983   .     S
O26    Zn30    1.983   .     S
O27    Zn30    1.993   .     S
O28    Zn29    1.993   .     S
N31    H33     1.045   .     S
N31    C91     1.442   .     S
N31    H118    1.046   .     S
H32    N203    1.046   1_455 S
N34    H35     1.044   .     S
N34    H36     1.046   .     S
N34    C178    1.440   1_455 S
O37    C38     1.420   .     S
C38    C41     1.530   .     S
C38    H40     1.118   .     S
C38    H39     1.110   .     S
C41    H42     1.111   .     S
C41    H301    1.110   .     S
C41    C130    1.524   .     S
H43    C557    1.110   1_545 S
C44    H45     1.111   .     S
C44    H47     1.111   .     S
C44    C213    1.524   1_455 S
C44    H304    1.110   .     S
H46    C560    1.110   1_545 S
O48    C49     1.424   .     S
C49    H51     1.108   .     S
C49    C52     1.532   .     S
C49    H566    1.117   1_545 S
H50    C307    1.117   .     S
C52    H53     1.108   .     S
C52    C55     1.527   .     S
C52    H828    1.112   .     S
H54    C1600   1.112   1_554 S
C55    H56     1.111   .     S
C55    H57     1.110   .     S
C55    H58     1.104   .     S
N59    H60     1.039   .     S
N59    H61     1.044   .     S
N62    H64     1.040   .     S
N62    H63     1.045   .     S
O65    C66     1.415   .     S
C66    H68     1.115   .     S
C66    H67     1.105   .     S
C66    C843    1.535   .     S
C69    H71     1.108   .     S
C69    H70     1.111   .     S
C69    C1614   1.535   1_554 S
C69    C158    1.527   .     S
C72    H74     1.111   .     S
C72    C241    1.527   1_455 S
C72    H1621   1.110   1_554 S
C72    H1623   1.111   1_554 S
H73    C846    1.110   .     S
H75    C846    1.111   .     S
O76    C77     1.417   .     S
C77    H78     1.101   .     S
C77    H79     1.112   .     S
C77    C80     1.526   .     S
C80    C83     1.524   .     S
C80    H81     1.111   .     S
C80    H1630   1.103   1_554 S
H82    C854    1.103   .     S
C83    H2148   1.110   1_544 S
C83    H601    1.108   1_545 S
C83    H602    1.110   1_545 S
H84    C1115   1.110   .     S
H85    C341    1.108   .     S
H86    C341    1.110   .     S
C87    O107    1.288   .     A
C87    C98     1.428   .     S
C87    O109    1.295   .     A
C88    O108    1.299   .     A
C88    C97     1.427   .     S
C88    O110    1.284   .     A
C89    O111    1.279   .     A
C89    C91     1.411   .     S
C89    O113    1.292   .     A
C90    O114    1.295   .     A
C90    C92     1.408   .     S
C90    O112    1.277   .     A
C92    C177    1.353   .     S
C92    N206    1.440   .     S
C93    C98     1.397   .     A
C93    H103    1.084   .     S
C93    C611    1.378   1_545 S
C94    H104    1.084   .     S
C94    C97     1.397   .     A
C94    C354    1.375   .     S
C95    O123    1.378   .     S
C95    C97     1.401   .     A
C95    C351    1.378   .     S
C96    O134    1.384   .     S
C96    C98     1.403   .     A
C96    C610    1.375   1_545 S
C99    N106    1.367   .     A
C99    N145    1.417   .     S
C99    C1649   1.416   1_554 S
C100   N148    1.430   .     S
C100   N105    1.368   .     A
C100   C876    1.445   .     S
C101   N105    1.371   .     A
C101   O151    1.381   .     S
C101   C873    1.416   .     S
C102   N106    1.376   .     A
C102   O162    1.387   .     S
C102   C1648   1.445   1_554 S
N105   Zn115   2.028   .     S
N106   Zn116   2.028   .     S
O107   Zn115   2.013   .     S
O108   Zn116   2.013   .     S
O109   Zn116   1.985   .     S
O110   Zn115   1.985   .     S
O111   Zn115   1.983   .     S
O112   Zn116   1.983   .     S
O113   Zn116   1.993   .     S
O114   Zn115   1.993   .     S
N117   H119    1.045   .     S
N117   C177    1.442   .     S
N117   H204    1.046   .     S
N120   H121    1.044   .     S
N120   H122    1.046   .     S
O123   C124    1.420   .     S
C124   C127    1.530   .     S
C124   H126    1.118   .     S
C124   H125    1.110   .     S
C127   H128    1.111   .     S
C127   H387    1.110   .     S
C127   C216    1.524   .     S
H129   C643    1.110   1_545 S
C130   H131    1.111   .     S
C130   H133    1.111   .     S
C130   H390    1.110   .     S
H132   C646    1.110   1_545 S
O134   C135    1.424   .     S
C135   H137    1.108   .     S
C135   C138    1.532   .     S
C135   H652    1.117   1_545 S
H136   C393    1.117   .     S
C138   H139    1.108   .     S
C138   C141    1.527   .     S
C138   H914    1.112   .     S
H140   C1686   1.112   1_554 S
C141   H142    1.111   .     S
C141   H143    1.110   .     S
C141   H144    1.104   .     S
N145   H146    1.039   .     S
N145   H147    1.044   .     S
N148   H150    1.040   .     S
N148   H149    1.045   .     S
O151   C152    1.415   .     S
C152   H154    1.115   .     S
C152   H153    1.105   .     S
C152   C929    1.535   .     S
C155   H157    1.108   .     S
C155   H156    1.111   .     S
C155   C1700   1.535   1_554 S
C155   C244    1.527   .     S
C158   H160    1.111   .     S
C158   H1707   1.110   1_554 S
C158   H1709   1.111   1_554 S
H159   C932    1.110   .     S
H161   C932    1.111   .     S
O162   C163    1.417   .     S
C163   H164    1.101   .     S
C163   H165    1.112   .     S
C163   C166    1.526   .     S
C166   C169    1.524   .     S
C166   H167    1.111   .     S
C166   H1716   1.103   1_554 S
H168   C940    1.103   .     S
C169   H2234   1.110   1_544 S
C169   H687    1.108   1_545 S
C169   H688    1.110   1_545 S
H170   C1201   1.110   .     S
H171   C427    1.108   .     S
H172   C427    1.110   .     S
C173   O193    1.288   .     A
C173   C184    1.428   .     S
C173   O195    1.295   .     A
C174   O194    1.299   .     A
C174   C183    1.427   .     S
C174   O196    1.284   .     A
C175   O197    1.279   .     A
C175   C177    1.411   .     S
C175   O199    1.292   .     A
C176   O200    1.295   .     A
C176   C178    1.408   .     S
C176   O198    1.277   .     A
C178   C5      1.353   1_655 S
C178   N34     1.440   1_655 S
C179   C184    1.397   .     A
C179   H189    1.084   .     S
C179   C697    1.378   1_545 S
C180   H190    1.084   .     S
C180   C183    1.397   .     A
C180   C440    1.375   .     S
C181   O209    1.378   .     S
C181   C183    1.401   .     A
C181   C437    1.378   .     S
C182   O220    1.384   .     S
C182   C184    1.403   .     A
C182   C696    1.375   1_545 S
C185   N192    1.367   .     A
C185   N231    1.417   .     S
C185   C1735   1.416   1_554 S
C186   N234    1.430   .     S
C186   N191    1.368   .     A
C186   C962    1.445   .     S
C187   N191    1.371   .     A
C187   O237    1.381   .     S
C187   C959    1.416   .     S
C188   N192    1.376   .     A
C188   O248    1.387   .     S
C188   C1734   1.445   1_554 S
N191   Zn201   2.028   .     S
N192   Zn202   2.028   .     S
O193   Zn201   2.013   .     S
O194   Zn202   2.013   .     S
O195   Zn202   1.985   .     S
O196   Zn201   1.985   .     S
O197   Zn201   1.983   .     S
O198   Zn202   1.983   .     S
O199   Zn202   1.993   .     S
O200   Zn201   1.993   .     S
N203   H205    1.045   .     S
N203   C5      1.442   1_655 S
N203   H32     1.046   1_655 S
N206   H207    1.044   .     S
N206   H208    1.046   .     S
O209   C210    1.420   .     S
C210   C213    1.530   .     S
C210   H212    1.118   .     S
C210   H211    1.110   .     S
C213   H214    1.111   .     S
C213   H473    1.110   .     S
C213   C44     1.524   1_655 S
H215   C729    1.110   1_545 S
C216   H217    1.111   .     S
C216   H219    1.111   .     S
C216   H476    1.110   .     S
H218   C732    1.110   1_545 S
O220   C221    1.424   .     S
C221   H223    1.108   .     S
C221   C224    1.532   .     S
C221   H738    1.117   1_545 S
H222   C479    1.117   .     S
C224   H225    1.108   .     S
C224   C227    1.527   .     S
C224   H1000   1.112   .     S
H226   C1772   1.112   1_554 S
C227   H228    1.111   .     S
C227   H229    1.110   .     S
C227   H230    1.104   .     S
N231   H232    1.039   .     S
N231   H233    1.044   .     S
N234   H236    1.040   .     S
N234   H235    1.045   .     S
O237   C238    1.415   .     S
C238   H240    1.115   .     S
C238   H239    1.105   .     S
C238   C1015   1.535   .     S
C241   H243    1.108   .     S
C241   H242    1.111   .     S
C241   C1786   1.535   1_554 S
C241   C72     1.527   1_655 S
C244   H246    1.111   .     S
C244   H1793   1.110   1_554 S
C244   H1795   1.111   1_554 S
H245   C1018   1.110   .     S
H247   C1018   1.111   .     S
O248   C249    1.417   .     S
C249   H250    1.101   .     S
C249   H251    1.112   .     S
C249   C252    1.526   .     S
C252   C255    1.524   .     S
C252   H253    1.111   .     S
C252   H1802   1.103   1_554 S
H254   C1026   1.103   .     S
C255   H2320   1.110   1_544 S
C255   H773    1.108   1_545 S
C255   H774    1.110   1_545 S
H256   C1287   1.110   .     S
H257   C513    1.108   .     S
H258   C513    1.110   .     S
C259   O279    1.288   .     A
C259   C270    1.428   .     S
C259   O281    1.295   .     A
C260   O280    1.299   .     A
C260   C269    1.427   .     S
C260   O282    1.284   .     A
C261   O283    1.279   .     A
C261   C263    1.411   .     S
C261   O285    1.292   .     A
C262   O286    1.295   .     A
C262   C264    1.408   .     S
C262   O284    1.277   .     A
C263   C436    1.353   1_455 S
C263   N461    1.442   1_455 S
C264   C349    1.353   .     S
C264   N378    1.440   .     S
C265   C270    1.397   .     A
C265   H275    1.084   .     S
C266   H276    1.084   .     S
C266   C269    1.397   .     A
C266   C526    1.375   .     S
C267   O295    1.378   .     S
C267   C269    1.401   .     A
C267   C523    1.378   .     S
C268   O306    1.384   .     S
C268   C270    1.403   .     A
C271   N278    1.367   .     A
C271   N317    1.417   .     S
C271   C1821   1.416   1_554 S
C272   N320    1.430   .     S
C272   N277    1.368   .     A
C272   C1048   1.445   .     S
C273   N277    1.371   .     A
C273   O323    1.381   .     S
C273   C1045   1.416   .     S
C274   N278    1.376   .     A
C274   O334    1.387   .     S
C274   C1820   1.445   1_554 S
N277   Zn287   2.028   .     S
N278   Zn288   2.028   .     S
O279   Zn287   2.013   .     S
O280   Zn288   2.013   .     S
O281   Zn288   1.985   .     S
O282   Zn287   1.985   .     S
O283   Zn287   1.983   .     S
O284   Zn288   1.983   .     S
O285   Zn288   1.993   .     S
O286   Zn287   1.993   .     S
N289   H291    1.045   .     S
N289   C349    1.442   .     S
N289   H376    1.046   .     S
H290   N461    1.046   1_455 S
N292   H293    1.044   .     S
N292   H294    1.046   .     S
N292   C436    1.440   1_455 S
O295   C296    1.420   .     S
C296   C299    1.530   .     S
C296   H298    1.118   .     S
C296   H297    1.110   .     S
C299   H300    1.111   .     S
C299   H559    1.110   .     S
C299   C388    1.524   .     S
C302   H303    1.111   .     S
C302   H305    1.111   .     S
C302   C471    1.524   1_455 S
C302   H562    1.110   .     S
O306   C307    1.424   .     S
C307   H309    1.108   .     S
C307   C310    1.532   .     S
H308   C565    1.117   .     S
C310   H311    1.108   .     S
C310   C313    1.527   .     S
C310   H1086   1.112   .     S
H312   C1858   1.112   1_554 S
C313   H314    1.111   .     S
C313   H315    1.110   .     S
C313   H316    1.104   .     S
N317   H318    1.039   .     S
N317   H319    1.044   .     S
N320   H322    1.040   .     S
N320   H321    1.045   .     S
O323   C324    1.415   .     S
C324   H326    1.115   .     S
C324   H325    1.105   .     S
C324   C1101   1.535   .     S
C327   H329    1.108   .     S
C327   H328    1.111   .     S
C327   C1872   1.535   1_554 S
C327   C416    1.527   .     S
C330   H332    1.111   .     S
C330   C499    1.527   1_455 S
C330   H1879   1.110   1_554 S
C330   H1881   1.111   1_554 S
H331   C1104   1.110   .     S
H333   C1104   1.111   .     S
O334   C335    1.417   .     S
C335   H336    1.101   .     S
C335   H337    1.112   .     S
C335   C338    1.526   .     S
C338   C341    1.524   .     S
C338   H339    1.111   .     S
C338   H1888   1.103   1_554 S
H340   C1112   1.103   .     S
C341   H1632   1.110   1_554 S
H342   C1373   1.110   .     S
H343   C599    1.108   .     S
H344   C599    1.110   .     S
C345   O365    1.288   .     A
C345   C356    1.428   .     S
C345   O367    1.295   .     A
C346   O366    1.299   .     A
C346   C355    1.427   .     S
C346   O368    1.284   .     A
C347   O369    1.279   .     A
C347   C349    1.411   .     S
C347   O371    1.292   .     A
C348   O372    1.295   .     A
C348   C350    1.408   .     S
C348   O370    1.277   .     A
C350   C435    1.353   .     S
C350   N464    1.440   .     S
C351   C356    1.397   .     A
C351   H361    1.084   .     S
C352   H362    1.084   .     S
C352   C355    1.397   .     A
C352   C612    1.375   .     S
C353   O381    1.378   .     S
C353   C355    1.401   .     A
C353   C609    1.378   .     S
C354   O392    1.384   .     S
C354   C356    1.403   .     A
C357   N364    1.367   .     A
C357   N403    1.417   .     S
C357   C1907   1.416   1_554 S
C358   N406    1.430   .     S
C358   N363    1.368   .     A
C358   C1134   1.445   .     S
C359   N363    1.371   .     A
C359   O409    1.381   .     S
C359   C1131   1.416   .     S
C360   N364    1.376   .     A
C360   O420    1.387   .     S
C360   C1906   1.445   1_554 S
N363   Zn373   2.028   .     S
N364   Zn374   2.028   .     S
O365   Zn373   2.013   .     S
O366   Zn374   2.013   .     S
O367   Zn374   1.985   .     S
O368   Zn373   1.985   .     S
O369   Zn373   1.983   .     S
O370   Zn374   1.983   .     S
O371   Zn374   1.993   .     S
O372   Zn373   1.993   .     S
N375   H377    1.045   .     S
N375   C435    1.442   .     S
N375   H462    1.046   .     S
N378   H379    1.044   .     S
N378   H380    1.046   .     S
O381   C382    1.420   .     S
C382   C385    1.530   .     S
C382   H384    1.118   .     S
C382   H383    1.110   .     S
C385   H386    1.111   .     S
C385   H645    1.110   .     S
C385   C474    1.524   .     S
C388   H389    1.111   .     S
C388   H391    1.111   .     S
C388   H648    1.110   .     S
O392   C393    1.424   .     S
C393   H395    1.108   .     S
C393   C396    1.532   .     S
H394   C651    1.117   .     S
C396   H397    1.108   .     S
C396   C399    1.527   .     S
C396   H1172   1.112   .     S
H398   C1944   1.112   1_554 S
C399   H400    1.111   .     S
C399   H401    1.110   .     S
C399   H402    1.104   .     S
N403   H404    1.039   .     S
N403   H405    1.044   .     S
N406   H408    1.040   .     S
N406   H407    1.045   .     S
O409   C410    1.415   .     S
C410   H412    1.115   .     S
C410   H411    1.105   .     S
C410   C1187   1.535   .     S
C413   H415    1.108   .     S
C413   H414    1.111   .     S
C413   C1958   1.535   1_554 S
C413   C502    1.527   .     S
C416   H418    1.111   .     S
C416   H1965   1.110   1_554 S
C416   H1967   1.111   1_554 S
H417   C1190   1.110   .     S
H419   C1190   1.111   .     S
O420   C421    1.417   .     S
C421   H422    1.101   .     S
C421   H423    1.112   .     S
C421   C424    1.526   .     S
C424   C427    1.524   .     S
C424   H425    1.111   .     S
C424   H1974   1.103   1_554 S
H426   C1198   1.103   .     S
C427   H1718   1.110   1_554 S
H428   C1459   1.110   .     S
H429   C685    1.108   .     S
H430   C685    1.110   .     S
C431   O451    1.288   .     A
C431   C442    1.428   .     S
C431   O453    1.295   .     A
C432   O452    1.299   .     A
C432   C441    1.427   .     S
C432   O454    1.284   .     A
C433   O455    1.279   .     A
C433   C435    1.411   .     S
C433   O457    1.292   .     A
C434   O458    1.295   .     A
C434   C436    1.408   .     S
C434   O456    1.277   .     A
C436   C263    1.353   1_655 S
C436   N292    1.440   1_655 S
C437   C442    1.397   .     A
C437   H447    1.084   .     S
C438   H448    1.084   .     S
C438   C441    1.397   .     A
C438   C698    1.375   .     S
C439   O467    1.378   .     S
C439   C441    1.401   .     A
C439   C695    1.378   .     S
C440   O478    1.384   .     S
C440   C442    1.403   .     A
C443   N450    1.367   .     A
C443   N489    1.417   .     S
C443   C1993   1.416   1_554 S
C444   N492    1.430   .     S
C444   N449    1.368   .     A
C444   C1220   1.445   .     S
C445   N449    1.371   .     A
C445   O495    1.381   .     S
C445   C1217   1.416   .     S
C446   N450    1.376   .     A
C446   O506    1.387   .     S
C446   C1992   1.445   1_554 S
N449   Zn459   2.028   .     S
N450   Zn460   2.028   .     S
O451   Zn459   2.013   .     S
O452   Zn460   2.013   .     S
O453   Zn460   1.985   .     S
O454   Zn459   1.985   .     S
O455   Zn459   1.983   .     S
O456   Zn460   1.983   .     S
O457   Zn460   1.993   .     S
O458   Zn459   1.993   .     S
N461   H463    1.045   .     S
N461   C263    1.442   1_655 S
N461   H290    1.046   1_655 S
N464   H465    1.044   .     S
N464   H466    1.046   .     S
O467   C468    1.420   .     S
C468   C471    1.530   .     S
C468   H470    1.118   .     S
C468   H469    1.110   .     S
C471   H472    1.111   .     S
C471   H731    1.110   .     S
C471   C302    1.524   1_655 S
C474   H475    1.111   .     S
C474   H477    1.111   .     S
C474   H734    1.110   .     S
O478   C479    1.424   .     S
C479   H481    1.108   .     S
C479   C482    1.532   .     S
H480   C737    1.117   .     S
C482   H483    1.108   .     S
C482   C485    1.527   .     S
C482   H1258   1.112   .     S
H484   C2030   1.112   1_554 S
C485   H486    1.111   .     S
C485   H487    1.110   .     S
C485   H488    1.104   .     S
N489   H490    1.039   .     S
N489   H491    1.044   .     S
N492   H494    1.040   .     S
N492   H493    1.045   .     S
O495   C496    1.415   .     S
C496   H498    1.115   .     S
C496   H497    1.105   .     S
C496   C1273   1.535   .     S
C499   H501    1.108   .     S
C499   H500    1.111   .     S
C499   C2044   1.535   1_554 S
C499   C330    1.527   1_655 S
C502   H504    1.111   .     S
C502   H2051   1.110   1_554 S
C502   H2053   1.111   1_554 S
H503   C1276   1.110   .     S
H505   C1276   1.111   .     S
O506   C507    1.417   .     S
C507   H508    1.101   .     S
C507   H509    1.112   .     S
C507   C510    1.526   .     S
C510   C513    1.524   .     S
C510   H511    1.111   .     S
C510   H2060   1.103   1_554 S
H512   C1284   1.103   .     S
C513   H1804   1.110   1_554 S
H514   C1545   1.110   .     S
H515   C771    1.108   .     S
H516   C771    1.110   .     S
C517   O537    1.288   .     A
C517   C528    1.428   .     S
C517   O539    1.295   .     A
C518   O538    1.299   .     A
C518   C527    1.427   .     S
C518   O540    1.284   .     A
C519   O541    1.279   .     A
C519   C521    1.411   .     S
C519   O543    1.292   .     A
C520   O544    1.295   .     A
C520   C522    1.408   .     S
C520   O542    1.277   .     A
C521   C694    1.353   1_455 S
C521   N719    1.442   1_455 S
C522   C607    1.353   .     S
C522   N636    1.440   .     S
C523   C528    1.397   .     A
C523   H533    1.084   .     S
C524   H534    1.084   .     S
C524   C527    1.397   .     A
C524   C10     1.375   1_565 S
C525   O553    1.378   .     S
C525   C527    1.401   .     A
C525   C7      1.378   1_565 S
C526   O564    1.384   .     S
C526   C528    1.403   .     A
C529   N536    1.367   .     A
C529   N575    1.417   .     S
C529   C2079   1.416   1_554 S
C530   N578    1.430   .     S
C530   N535    1.368   .     A
C530   C1306   1.445   .     S
C531   N535    1.371   .     A
C531   O581    1.381   .     S
C531   C1303   1.416   .     S
C532   N536    1.376   .     A
C532   O592    1.387   .     S
C532   C2078   1.445   1_554 S
N535   Zn545   2.028   .     S
N536   Zn546   2.028   .     S
O537   Zn545   2.013   .     S
O538   Zn546   2.013   .     S
O539   Zn546   1.985   .     S
O540   Zn545   1.985   .     S
O541   Zn545   1.983   .     S
O542   Zn546   1.983   .     S
O543   Zn546   1.993   .     S
O544   Zn545   1.993   .     S
N547   H549    1.045   .     S
N547   C607    1.442   .     S
N547   H634    1.046   .     S
H548   N719    1.046   1_455 S
N550   H551    1.044   .     S
N550   H552    1.046   .     S
N550   C694    1.440   1_455 S
O553   C554    1.420   .     S
C554   C557    1.530   .     S
C554   H556    1.118   .     S
C554   H555    1.110   .     S
C557   H558    1.111   .     S
C557   H43     1.110   1_565 S
C557   C646    1.524   .     S
C560   H561    1.111   .     S
C560   H563    1.111   .     S
C560   C729    1.524   1_455 S
C560   H46     1.110   1_565 S
O564   C565    1.424   .     S
C565   H567    1.108   .     S
C565   C568    1.532   .     S
H566   C49     1.117   1_565 S
C568   H569    1.108   .     S
C568   C571    1.527   .     S
C568   H1344   1.112   .     S
H570   C2116   1.112   1_554 S
C571   H572    1.111   .     S
C571   H573    1.110   .     S
C571   H574    1.104   .     S
N575   H576    1.039   .     S
N575   H577    1.044   .     S
N578   H580    1.040   .     S
N578   H579    1.045   .     S
O581   C582    1.415   .     S
C582   H584    1.115   .     S
C582   H583    1.105   .     S
C582   C1359   1.535   .     S
C585   H587    1.108   .     S
C585   H586    1.111   .     S
C585   C2130   1.535   1_554 S
C585   C674    1.527   .     S
C588   H590    1.111   .     S
C588   C757    1.527   1_455 S
C588   H2137   1.110   1_554 S
C588   H2139   1.111   1_554 S
H589   C1362   1.110   .     S
H591   C1362   1.111   .     S
O592   C593    1.417   .     S
C593   H594    1.101   .     S
C593   H595    1.112   .     S
C593   C596    1.526   .     S
C596   C599    1.524   .     S
C596   H597    1.111   .     S
C596   H2146   1.103   1_554 S
H598   C1370   1.103   .     S
C599   H1890   1.110   1_554 S
H600   C857    1.110   1_565 S
H601   C83     1.108   1_565 S
H602   C83     1.110   1_565 S
C603   O623    1.288   .     A
C603   C614    1.428   .     S
C603   O625    1.295   .     A
C604   O624    1.299   .     A
C604   C613    1.427   .     S
C604   O626    1.284   .     A
C605   O627    1.279   .     A
C605   C607    1.411   .     S
C605   O629    1.292   .     A
C606   O630    1.295   .     A
C606   C608    1.408   .     S
C606   O628    1.277   .     A
C608   C693    1.353   .     S
C608   N722    1.440   .     S
C609   C614    1.397   .     A
C609   H619    1.084   .     S
C610   H620    1.084   .     S
C610   C613    1.397   .     A
C610   C96     1.375   1_565 S
C611   O639    1.378   .     S
C611   C613    1.401   .     A
C611   C93     1.378   1_565 S
C612   O650    1.384   .     S
C612   C614    1.403   .     A
C615   N622    1.367   .     A
C615   N661    1.417   .     S
C615   C2165   1.416   1_554 S
C616   N664    1.430   .     S
C616   N621    1.368   .     A
C616   C1392   1.445   .     S
C617   N621    1.371   .     A
C617   O667    1.381   .     S
C617   C1389   1.416   .     S
C618   N622    1.376   .     A
C618   O678    1.387   .     S
C618   C2164   1.445   1_554 S
N621   Zn631   2.028   .     S
N622   Zn632   2.028   .     S
O623   Zn631   2.013   .     S
O624   Zn632   2.013   .     S
O625   Zn632   1.985   .     S
O626   Zn631   1.985   .     S
O627   Zn631   1.983   .     S
O628   Zn632   1.983   .     S
O629   Zn632   1.993   .     S
O630   Zn631   1.993   .     S
N633   H635    1.045   .     S
N633   C693    1.442   .     S
N633   H720    1.046   .     S
N636   H637    1.044   .     S
N636   H638    1.046   .     S
O639   C640    1.420   .     S
C640   C643    1.530   .     S
C640   H642    1.118   .     S
C640   H641    1.110   .     S
C643   H644    1.111   .     S
C643   H129    1.110   1_565 S
C643   C732    1.524   .     S
C646   H647    1.111   .     S
C646   H649    1.111   .     S
C646   H132    1.110   1_565 S
O650   C651    1.424   .     S
C651   H653    1.108   .     S
C651   C654    1.532   .     S
H652   C135    1.117   1_565 S
C654   H655    1.108   .     S
C654   C657    1.527   .     S
C654   H1430   1.112   .     S
H656   C2202   1.112   1_554 S
C657   H658    1.111   .     S
C657   H659    1.110   .     S
C657   H660    1.104   .     S
N661   H662    1.039   .     S
N661   H663    1.044   .     S
N664   H666    1.040   .     S
N664   H665    1.045   .     S
O667   C668    1.415   .     S
C668   H670    1.115   .     S
C668   H669    1.105   .     S
C668   C1445   1.535   .     S
C671   H673    1.108   .     S
C671   H672    1.111   .     S
C671   C2216   1.535   1_554 S
C671   C760    1.527   .     S
C674   H676    1.111   .     S
C674   H2223   1.110   1_554 S
C674   H2225   1.111   1_554 S
H675   C1448   1.110   .     S
H677   C1448   1.111   .     S
O678   C679    1.417   .     S
C679   H680    1.101   .     S
C679   H681    1.112   .     S
C679   C682    1.526   .     S
C682   C685    1.524   .     S
C682   H683    1.111   .     S
C682   H2232   1.103   1_554 S
H684   C1456   1.103   .     S
C685   H1976   1.110   1_554 S
H686   C943    1.110   1_565 S
H687   C169    1.108   1_565 S
H688   C169    1.110   1_565 S
C689   O709    1.288   .     A
C689   C700    1.428   .     S
C689   O711    1.295   .     A
C690   O710    1.299   .     A
C690   C699    1.427   .     S
C690   O712    1.284   .     A
C691   O713    1.279   .     A
C691   C693    1.411   .     S
C691   O715    1.292   .     A
C692   O716    1.295   .     A
C692   C694    1.408   .     S
C692   O714    1.277   .     A
C694   C521    1.353   1_655 S
C694   N550    1.440   1_655 S
C695   C700    1.397   .     A
C695   H705    1.084   .     S
C696   H706    1.084   .     S
C696   C699    1.397   .     A
C696   C182    1.375   1_565 S
C697   O725    1.378   .     S
C697   C699    1.401   .     A
C697   C179    1.378   1_565 S
C698   O736    1.384   .     S
C698   C700    1.403   .     A
C701   N708    1.367   .     A
C701   N747    1.417   .     S
C701   C2251   1.416   1_554 S
C702   N750    1.430   .     S
C702   N707    1.368   .     A
C702   C1478   1.445   .     S
C703   N707    1.371   .     A
C703   O753    1.381   .     S
C703   C1475   1.416   .     S
C704   N708    1.376   .     A
C704   O764    1.387   .     S
C704   C2250   1.445   1_554 S
N707   Zn717   2.028   .     S
N708   Zn718   2.028   .     S
O709   Zn717   2.013   .     S
O710   Zn718   2.013   .     S
O711   Zn718   1.985   .     S
O712   Zn717   1.985   .     S
O713   Zn717   1.983   .     S
O714   Zn718   1.983   .     S
O715   Zn718   1.993   .     S
O716   Zn717   1.993   .     S
N719   H721    1.045   .     S
N719   C521    1.442   1_655 S
N719   H548    1.046   1_655 S
N722   H723    1.044   .     S
N722   H724    1.046   .     S
O725   C726    1.420   .     S
C726   C729    1.530   .     S
C726   H728    1.118   .     S
C726   H727    1.110   .     S
C729   H730    1.111   .     S
C729   H215    1.110   1_565 S
C729   C560    1.524   1_655 S
C732   H733    1.111   .     S
C732   H735    1.111   .     S
C732   H218    1.110   1_565 S
O736   C737    1.424   .     S
C737   H739    1.108   .     S
C737   C740    1.532   .     S
H738   C221    1.117   1_565 S
C740   H741    1.108   .     S
C740   C743    1.527   .     S
C740   H1516   1.112   .     S
H742   C2288   1.112   1_554 S
C743   H744    1.111   .     S
C743   H745    1.110   .     S
C743   H746    1.104   .     S
N747   H748    1.039   .     S
N747   H749    1.044   .     S
N750   H752    1.040   .     S
N750   H751    1.045   .     S
O753   C754    1.415   .     S
C754   H756    1.115   .     S
C754   H755    1.105   .     S
C754   C1531   1.535   .     S
C757   H759    1.108   .     S
C757   H758    1.111   .     S
C757   C2302   1.535   1_554 S
C757   C588    1.527   1_655 S
C760   H762    1.111   .     S
C760   H2309   1.110   1_554 S
C760   H2311   1.111   1_554 S
H761   C1534   1.110   .     S
H763   C1534   1.111   .     S
O764   C765    1.417   .     S
C765   H766    1.101   .     S
C765   H767    1.112   .     S
C765   C768    1.526   .     S
C768   C771    1.524   .     S
C768   H769    1.111   .     S
C768   H2318   1.103   1_554 S
H770   C1542   1.103   .     S
C771   H2062   1.110   1_554 S
H772   C1029   1.110   1_565 S
H773   C255    1.108   1_565 S
H774   C255    1.110   1_565 S
C775   O795    1.288   .     A
C775   C786    1.428   .     S
C775   O797    1.295   .     A
C776   O796    1.299   .     A
C776   C785    1.427   .     S
C776   O798    1.284   .     A
C777   O799    1.279   .     A
C777   C779    1.411   .     S
C777   O801    1.292   .     A
C778   O802    1.295   .     A
C778   C780    1.408   .     S
C778   O800    1.277   .     A
C779   C952    1.353   1_455 S
C779   N977    1.442   1_455 S
C780   C865    1.353   .     S
C780   N894    1.440   .     S
C781   C786    1.397   .     A
C781   H791    1.084   .     S
C781   C1299   1.378   1_545 S
C782   H792    1.084   .     S
C782   C785    1.397   .     A
C782   C1042   1.375   .     S
C783   O811    1.378   .     S
C783   C785    1.401   .     A
C783   C1039   1.378   .     S
C784   O822    1.384   .     S
C784   C786    1.403   .     A
C784   C1298   1.375   1_545 S
C787   N794    1.367   .     A
C787   N833    1.417   .     S
C788   N836    1.430   .     S
C788   N793    1.368   .     A
C788   C1564   1.445   .     S
C789   N793    1.371   .     A
C789   O839    1.381   .     S
C789   C1561   1.416   .     S
C790   N794    1.376   .     A
C790   O850    1.387   .     S
N793   Zn803   2.028   .     S
N794   Zn804   2.028   .     S
O795   Zn803   2.013   .     S
O796   Zn804   2.013   .     S
O797   Zn804   1.985   .     S
O798   Zn803   1.985   .     S
O799   Zn803   1.983   .     S
O800   Zn804   1.983   .     S
O801   Zn804   1.993   .     S
O802   Zn803   1.993   .     S
N805   H807    1.045   .     S
N805   C865    1.442   .     S
N805   H892    1.046   .     S
H806   N977    1.046   1_455 S
N808   H809    1.044   .     S
N808   H810    1.046   .     S
N808   C952    1.440   1_455 S
O811   C812    1.420   .     S
C812   C815    1.530   .     S
C812   H814    1.118   .     S
C812   H813    1.110   .     S
C815   H816    1.111   .     S
C815   H1075   1.110   .     S
C815   C904    1.524   .     S
H817   C1331   1.110   1_545 S
C818   H819    1.111   .     S
C818   H821    1.111   .     S
C818   C987    1.524   1_455 S
C818   H1078   1.110   .     S
H820   C1334   1.110   1_545 S
O822   C823    1.424   .     S
C823   H825    1.108   .     S
C823   C826    1.532   .     S
C823   H1340   1.117   1_545 S
H824   C1081   1.117   .     S
C826   H827    1.108   .     S
C826   C829    1.527   .     S
C826   H1602   1.112   .     S
C829   H830    1.111   .     S
C829   H831    1.110   .     S
C829   H832    1.104   .     S
N833   H834    1.039   .     S
N833   H835    1.044   .     S
N836   H838    1.040   .     S
N836   H837    1.045   .     S
O839   C840    1.415   .     S
C840   H842    1.115   .     S
C840   H841    1.105   .     S
C840   C1617   1.535   .     S
C843   H845    1.108   .     S
C843   H844    1.111   .     S
C843   C932    1.527   .     S
C846   H848    1.111   .     S
C846   C1015   1.527   1_455 S
H847   C1620   1.110   .     S
H849   C1620   1.111   .     S
O850   C851    1.417   .     S
C851   H852    1.101   .     S
C851   H853    1.112   .     S
C851   C854    1.526   .     S
C854   C857    1.524   .     S
C854   H855    1.111   .     S
H856   C1628   1.103   .     S
C857   H600    1.110   1_545 S
C857   H1375   1.108   1_545 S
C857   H1376   1.110   1_545 S
H858   C1889   1.110   .     S
H859   C1115   1.108   .     S
H860   C1115   1.110   .     S
C861   O881    1.288   .     A
C861   C872    1.428   .     S
C861   O883    1.295   .     A
C862   O882    1.299   .     A
C862   C871    1.427   .     S
C862   O884    1.284   .     A
C863   O885    1.279   .     A
C863   C865    1.411   .     S
C863   O887    1.292   .     A
C864   O888    1.295   .     A
C864   C866    1.408   .     S
C864   O886    1.277   .     A
C866   C951    1.353   .     S
C866   N980    1.440   .     S
C867   C872    1.397   .     A
C867   H877    1.084   .     S
C867   C1385   1.378   1_545 S
C868   H878    1.084   .     S
C868   C871    1.397   .     A
C868   C1128   1.375   .     S
C869   O897    1.378   .     S
C869   C871    1.401   .     A
C869   C1125   1.378   .     S
C870   O908    1.384   .     S
C870   C872    1.403   .     A
C870   C1384   1.375   1_545 S
C873   N880    1.367   .     A
C873   N919    1.417   .     S
C874   N922    1.430   .     S
C874   N879    1.368   .     A
C874   C1650   1.445   .     S
C875   N879    1.371   .     A
C875   O925    1.381   .     S
C875   C1647   1.416   .     S
C876   N880    1.376   .     A
C876   O936    1.387   .     S
N879   Zn889   2.028   .     S
N880   Zn890   2.028   .     S
O881   Zn889   2.013   .     S
O882   Zn890   2.013   .     S
O883   Zn890   1.985   .     S
O884   Zn889   1.985   .     S
O885   Zn889   1.983   .     S
O886   Zn890   1.983   .     S
O887   Zn890   1.993   .     S
O888   Zn889   1.993   .     S
N891   H893    1.045   .     S
N891   C951    1.442   .     S
N891   H978    1.046   .     S
N894   H895    1.044   .     S
N894   H896    1.046   .     S
O897   C898    1.420   .     S
C898   C901    1.530   .     S
C898   H900    1.118   .     S
C898   H899    1.110   .     S
C901   H902    1.111   .     S
C901   H1161   1.110   .     S
C901   C990    1.524   .     S
H903   C1417   1.110   1_545 S
C904   H905    1.111   .     S
C904   H907    1.111   .     S
C904   H1164   1.110   .     S
H906   C1420   1.110   1_545 S
O908   C909    1.424   .     S
C909   H911    1.108   .     S
C909   C912    1.532   .     S
C909   H1426   1.117   1_545 S
H910   C1167   1.117   .     S
C912   H913    1.108   .     S
C912   C915    1.527   .     S
C912   H1688   1.112   .     S
C915   H916    1.111   .     S
C915   H917    1.110   .     S
C915   H918    1.104   .     S
N919   H920    1.039   .     S
N919   H921    1.044   .     S
N922   H924    1.040   .     S
N922   H923    1.045   .     S
O925   C926    1.415   .     S
C926   H928    1.115   .     S
C926   H927    1.105   .     S
C926   C1703   1.535   .     S
C929   H931    1.108   .     S
C929   H930    1.111   .     S
C929   C1018   1.527   .     S
C932   H934    1.111   .     S
H933   C1706   1.110   .     S
H935   C1706   1.111   .     S
O936   C937    1.417   .     S
C937   H938    1.101   .     S
C937   H939    1.112   .     S
C937   C940    1.526   .     S
C940   C943    1.524   .     S
C940   H941    1.111   .     S
H942   C1714   1.103   .     S
C943   H686    1.110   1_545 S
C943   H1461   1.108   1_545 S
C943   H1462   1.110   1_545 S
H944   C1975   1.110   .     S
H945   C1201   1.108   .     S
H946   C1201   1.110   .     S
C947   O967    1.288   .     A
C947   C958    1.428   .     S
C947   O969    1.295   .     A
C948   O968    1.299   .     A
C948   C957    1.427   .     S
C948   O970    1.284   .     A
C949   O971    1.279   .     A
C949   C951    1.411   .     S
C949   O973    1.292   .     A
C950   O974    1.295   .     A
C950   C952    1.408   .     S
C950   O972    1.277   .     A
C952   C779    1.353   1_655 S
C952   N808    1.440   1_655 S
C953   C958    1.397   .     A
C953   H963    1.084   .     S
C953   C1471   1.378   1_545 S
C954   H964    1.084   .     S
C954   C957    1.397   .     A
C954   C1214   1.375   .     S
C955   O983    1.378   .     S
C955   C957    1.401   .     A
C955   C1211   1.378   .     S
C956   O994    1.384   .     S
C956   C958    1.403   .     A
C956   C1470   1.375   1_545 S
C959   N966    1.367   .     A
C959   N1005   1.417   .     S
C960   N1008   1.430   .     S
C960   N965    1.368   .     A
C960   C1736   1.445   .     S
C961   N965    1.371   .     A
C961   O1011   1.381   .     S
C961   C1733   1.416   .     S
C962   N966    1.376   .     A
C962   O1022   1.387   .     S
N965   Zn975   2.028   .     S
N966   Zn976   2.028   .     S
O967   Zn975   2.013   .     S
O968   Zn976   2.013   .     S
O969   Zn976   1.985   .     S
O970   Zn975   1.985   .     S
O971   Zn975   1.983   .     S
O972   Zn976   1.983   .     S
O973   Zn976   1.993   .     S
O974   Zn975   1.993   .     S
N977   H979    1.045   .     S
N977   C779    1.442   1_655 S
N977   H806    1.046   1_655 S
N980   H981    1.044   .     S
N980   H982    1.046   .     S
O983   C984    1.420   .     S
C984   C987    1.530   .     S
C984   H986    1.118   .     S
C984   H985    1.110   .     S
C987   H988    1.111   .     S
C987   H1247   1.110   .     S
C987   C818    1.524   1_655 S
H989   C1503   1.110   1_545 S
C990   H991    1.111   .     S
C990   H993    1.111   .     S
C990   H1250   1.110   .     S
H992   C1506   1.110   1_545 S
O994   C995    1.424   .     S
C995   H997    1.108   .     S
C995   C998    1.532   .     S
C995   H1512   1.117   1_545 S
H996   C1253   1.117   .     S
C998   H999    1.108   .     S
C998   C1001   1.527   .     S
C998   H1774   1.112   .     S
C1001  H1002   1.111   .     S
C1001  H1003   1.110   .     S
C1001  H1004   1.104   .     S
N1005  H1006   1.039   .     S
N1005  H1007   1.044   .     S
N1008  H1010   1.040   .     S
N1008  H1009   1.045   .     S
O1011  C1012   1.415   .     S
C1012  H1014   1.115   .     S
C1012  H1013   1.105   .     S
C1012  C1789   1.535   .     S
C1015  H1017   1.108   .     S
C1015  H1016   1.111   .     S
C1015  C846    1.527   1_655 S
C1018  H1020   1.111   .     S
H1019  C1792   1.110   .     S
H1021  C1792   1.111   .     S
O1022  C1023   1.417   .     S
C1023  H1024   1.101   .     S
C1023  H1025   1.112   .     S
C1023  C1026   1.526   .     S
C1026  C1029   1.524   .     S
C1026  H1027   1.111   .     S
H1028  C1800   1.103   .     S
C1029  H772    1.110   1_545 S
C1029  H1547   1.108   1_545 S
C1029  H1548   1.110   1_545 S
H1030  C2061   1.110   .     S
H1031  C1287   1.108   .     S
H1032  C1287   1.110   .     S
C1033  O1053   1.288   .     A
C1033  C1044   1.428   .     S
C1033  O1055   1.295   .     A
C1034  O1054   1.299   .     A
C1034  C1043   1.427   .     S
C1034  O1056   1.284   .     A
C1035  O1057   1.279   .     A
C1035  C1037   1.411   .     S
C1035  O1059   1.292   .     A
C1036  O1060   1.295   .     A
C1036  C1038   1.408   .     S
C1036  O1058   1.277   .     A
C1037  C1210   1.353   1_455 S
C1037  N1235   1.442   1_455 S
C1038  C1123   1.353   .     S
C1038  N1152   1.440   .     S
C1039  C1044   1.397   .     A
C1039  H1049   1.084   .     S
C1040  H1050   1.084   .     S
C1040  C1043   1.397   .     A
C1040  C1300   1.375   .     S
C1041  O1069   1.378   .     S
C1041  C1043   1.401   .     A
C1041  C1297   1.378   .     S
C1042  O1080   1.384   .     S
C1042  C1044   1.403   .     A
C1045  N1052   1.367   .     A
C1045  N1091   1.417   .     S
C1046  N1094   1.430   .     S
C1046  N1051   1.368   .     A
C1046  C1822   1.445   .     S
C1047  N1051   1.371   .     A
C1047  O1097   1.381   .     S
C1047  C1819   1.416   .     S
C1048  N1052   1.376   .     A
C1048  O1108   1.387   .     S
N1051  Zn1061  2.028   .     S
N1052  Zn1062  2.028   .     S
O1053  Zn1061  2.013   .     S
O1054  Zn1062  2.013   .     S
O1055  Zn1062  1.985   .     S
O1056  Zn1061  1.985   .     S
O1057  Zn1061  1.983   .     S
O1058  Zn1062  1.983   .     S
O1059  Zn1062  1.993   .     S
O1060  Zn1061  1.993   .     S
N1063  H1065   1.045   .     S
N1063  C1123   1.442   .     S
N1063  H1150   1.046   .     S
H1064  N1235   1.046   1_455 S
N1066  H1067   1.044   .     S
N1066  H1068   1.046   .     S
N1066  C1210   1.440   1_455 S
O1069  C1070   1.420   .     S
C1070  C1073   1.530   .     S
C1070  H1072   1.118   .     S
C1070  H1071   1.110   .     S
C1073  H1074   1.111   .     S
C1073  H1333   1.110   .     S
C1073  C1162   1.524   .     S
C1076  H1077   1.111   .     S
C1076  H1079   1.111   .     S
C1076  C1245   1.524   1_455 S
C1076  H1336   1.110   .     S
O1080  C1081   1.424   .     S
C1081  H1083   1.108   .     S
C1081  C1084   1.532   .     S
H1082  C1339   1.117   .     S
C1084  H1085   1.108   .     S
C1084  C1087   1.527   .     S
C1084  H1860   1.112   .     S
C1087  H1088   1.111   .     S
C1087  H1089   1.110   .     S
C1087  H1090   1.104   .     S
N1091  H1092   1.039   .     S
N1091  H1093   1.044   .     S
N1094  H1096   1.040   .     S
N1094  H1095   1.045   .     S
O1097  C1098   1.415   .     S
C1098  H1100   1.115   .     S
C1098  H1099   1.105   .     S
C1098  C1875   1.535   .     S
C1101  H1103   1.108   .     S
C1101  H1102   1.111   .     S
C1101  C1190   1.527   .     S
C1104  H1106   1.111   .     S
C1104  C1273   1.527   1_455 S
H1105  C1878   1.110   .     S
H1107  C1878   1.111   .     S
O1108  C1109   1.417   .     S
C1109  H1110   1.101   .     S
C1109  H1111   1.112   .     S
C1109  C1112   1.526   .     S
C1112  C1115   1.524   .     S
C1112  H1113   1.111   .     S
H1114  C1886   1.103   .     S
H1116  C2147   1.110   .     S
H1117  C1373   1.108   .     S
H1118  C1373   1.110   .     S
C1119  O1139   1.288   .     A
C1119  C1130   1.428   .     S
C1119  O1141   1.295   .     A
C1120  O1140   1.299   .     A
C1120  C1129   1.427   .     S
C1120  O1142   1.284   .     A
C1121  O1143   1.279   .     A
C1121  C1123   1.411   .     S
C1121  O1145   1.292   .     A
C1122  O1146   1.295   .     A
C1122  C1124   1.408   .     S
C1122  O1144   1.277   .     A
C1124  C1209   1.353   .     S
C1124  N1238   1.440   .     S
C1125  C1130   1.397   .     A
C1125  H1135   1.084   .     S
C1126  H1136   1.084   .     S
C1126  C1129   1.397   .     A
C1126  C1386   1.375   .     S
C1127  O1155   1.378   .     S
C1127  C1129   1.401   .     A
C1127  C1383   1.378   .     S
C1128  O1166   1.384   .     S
C1128  C1130   1.403   .     A
C1131  N1138   1.367   .     A
C1131  N1177   1.417   .     S
C1132  N1180   1.430   .     S
C1132  N1137   1.368   .     A
C1132  C1908   1.445   .     S
C1133  N1137   1.371   .     A
C1133  O1183   1.381   .     S
C1133  C1905   1.416   .     S
C1134  N1138   1.376   .     A
C1134  O1194   1.387   .     S
N1137  Zn1147  2.028   .     S
N1138  Zn1148  2.028   .     S
O1139  Zn1147  2.013   .     S
O1140  Zn1148  2.013   .     S
O1141  Zn1148  1.985   .     S
O1142  Zn1147  1.985   .     S
O1143  Zn1147  1.983   .     S
O1144  Zn1148  1.983   .     S
O1145  Zn1148  1.993   .     S
O1146  Zn1147  1.993   .     S
N1149  H1151   1.045   .     S
N1149  C1209   1.442   .     S
N1149  H1236   1.046   .     S
N1152  H1153   1.044   .     S
N1152  H1154   1.046   .     S
O1155  C1156   1.420   .     S
C1156  C1159   1.530   .     S
C1156  H1158   1.118   .     S
C1156  H1157   1.110   .     S
C1159  H1160   1.111   .     S
C1159  H1419   1.110   .     S
C1159  C1248   1.524   .     S
C1162  H1163   1.111   .     S
C1162  H1165   1.111   .     S
C1162  H1422   1.110   .     S
O1166  C1167   1.424   .     S
C1167  H1169   1.108   .     S
C1167  C1170   1.532   .     S
H1168  C1425   1.117   .     S
C1170  H1171   1.108   .     S
C1170  C1173   1.527   .     S
C1170  H1946   1.112   .     S
C1173  H1174   1.111   .     S
C1173  H1175   1.110   .     S
C1173  H1176   1.104   .     S
N1177  H1178   1.039   .     S
N1177  H1179   1.044   .     S
N1180  H1182   1.040   .     S
N1180  H1181   1.045   .     S
O1183  C1184   1.415   .     S
C1184  H1186   1.115   .     S
C1184  H1185   1.105   .     S
C1184  C1961   1.535   .     S
C1187  H1189   1.108   .     S
C1187  H1188   1.111   .     S
C1187  C1276   1.527   .     S
C1190  H1192   1.111   .     S
H1191  C1964   1.110   .     S
H1193  C1964   1.111   .     S
O1194  C1195   1.417   .     S
C1195  H1196   1.101   .     S
C1195  H1197   1.112   .     S
C1195  C1198   1.526   .     S
C1198  C1201   1.524   .     S
C1198  H1199   1.111   .     S
H1200  C1972   1.103   .     S
H1202  C2233   1.110   .     S
H1203  C1459   1.108   .     S
H1204  C1459   1.110   .     S
C1205  O1225   1.288   .     A
C1205  C1216   1.428   .     S
C1205  O1227   1.295   .     A
C1206  O1226   1.299   .     A
C1206  C1215   1.427   .     S
C1206  O1228   1.284   .     A
C1207  O1229   1.279   .     A
C1207  C1209   1.411   .     S
C1207  O1231   1.292   .     A
C1208  O1232   1.295   .     A
C1208  C1210   1.408   .     S
C1208  O1230   1.277   .     A
C1210  C1037   1.353   1_655 S
C1210  N1066   1.440   1_655 S
C1211  C1216   1.397   .     A
C1211  H1221   1.084   .     S
C1212  H1222   1.084   .     S
C1212  C1215   1.397   .     A
C1212  C1472   1.375   .     S
C1213  O1241   1.378   .     S
C1213  C1215   1.401   .     A
C1213  C1469   1.378   .     S
C1214  O1252   1.384   .     S
C1214  C1216   1.403   .     A
C1217  N1224   1.367   .     A
C1217  N1263   1.417   .     S
C1218  N1266   1.430   .     S
C1218  N1223   1.368   .     A
C1218  C1994   1.445   .     S
C1219  N1223   1.371   .     A
C1219  O1269   1.381   .     S
C1219  C1991   1.416   .     S
C1220  N1224   1.376   .     A
C1220  O1280   1.387   .     S
N1223  Zn1233  2.028   .     S
N1224  Zn1234  2.028   .     S
O1225  Zn1233  2.013   .     S
O1226  Zn1234  2.013   .     S
O1227  Zn1234  1.985   .     S
O1228  Zn1233  1.985   .     S
O1229  Zn1233  1.983   .     S
O1230  Zn1234  1.983   .     S
O1231  Zn1234  1.993   .     S
O1232  Zn1233  1.993   .     S
N1235  H1237   1.045   .     S
N1235  C1037   1.442   1_655 S
N1235  H1064   1.046   1_655 S
N1238  H1239   1.044   .     S
N1238  H1240   1.046   .     S
O1241  C1242   1.420   .     S
C1242  C1245   1.530   .     S
C1242  H1244   1.118   .     S
C1242  H1243   1.110   .     S
C1245  H1246   1.111   .     S
C1245  H1505   1.110   .     S
C1245  C1076   1.524   1_655 S
C1248  H1249   1.111   .     S
C1248  H1251   1.111   .     S
C1248  H1508   1.110   .     S
O1252  C1253   1.424   .     S
C1253  H1255   1.108   .     S
C1253  C1256   1.532   .     S
H1254  C1511   1.117   .     S
C1256  H1257   1.108   .     S
C1256  C1259   1.527   .     S
C1256  H2032   1.112   .     S
C1259  H1260   1.111   .     S
C1259  H1261   1.110   .     S
C1259  H1262   1.104   .     S
N1263  H1264   1.039   .     S
N1263  H1265   1.044   .     S
N1266  H1268   1.040   .     S
N1266  H1267   1.045   .     S
O1269  C1270   1.415   .     S
C1270  H1272   1.115   .     S
C1270  H1271   1.105   .     S
C1270  C2047   1.535   .     S
C1273  H1275   1.108   .     S
C1273  H1274   1.111   .     S
C1273  C1104   1.527   1_655 S
C1276  H1278   1.111   .     S
H1277  C2050   1.110   .     S
H1279  C2050   1.111   .     S
O1280  C1281   1.417   .     S
C1281  H1282   1.101   .     S
C1281  H1283   1.112   .     S
C1281  C1284   1.526   .     S
C1284  C1287   1.524   .     S
C1284  H1285   1.111   .     S
H1286  C2058   1.103   .     S
H1288  C2319   1.110   .     S
H1289  C1545   1.108   .     S
H1290  C1545   1.110   .     S
C1291  O1311   1.288   .     A
C1291  C1302   1.428   .     S
C1291  O1313   1.295   .     A
C1292  O1312   1.299   .     A
C1292  C1301   1.427   .     S
C1292  O1314   1.284   .     A
C1293  O1315   1.279   .     A
C1293  C1295   1.411   .     S
C1293  O1317   1.292   .     A
C1294  O1318   1.295   .     A
C1294  C1296   1.408   .     S
C1294  O1316   1.277   .     A
C1295  C1468   1.353   1_455 S
C1295  N1493   1.442   1_455 S
C1296  C1381   1.353   .     S
C1296  N1410   1.440   .     S
C1297  C1302   1.397   .     A
C1297  H1307   1.084   .     S
C1298  H1308   1.084   .     S
C1298  C1301   1.397   .     A
C1298  C784    1.375   1_565 S
C1299  O1327   1.378   .     S
C1299  C1301   1.401   .     A
C1299  C781    1.378   1_565 S
C1300  O1338   1.384   .     S
C1300  C1302   1.403   .     A
C1303  N1310   1.367   .     A
C1303  N1349   1.417   .     S
C1304  N1352   1.430   .     S
C1304  N1309   1.368   .     A
C1304  C2080   1.445   .     S
C1305  N1309   1.371   .     A
C1305  O1355   1.381   .     S
C1305  C2077   1.416   .     S
C1306  N1310   1.376   .     A
C1306  O1366   1.387   .     S
N1309  Zn1319  2.028   .     S
N1310  Zn1320  2.028   .     S
O1311  Zn1319  2.013   .     S
O1312  Zn1320  2.013   .     S
O1313  Zn1320  1.985   .     S
O1314  Zn1319  1.985   .     S
O1315  Zn1319  1.983   .     S
O1316  Zn1320  1.983   .     S
O1317  Zn1320  1.993   .     S
O1318  Zn1319  1.993   .     S
N1321  H1323   1.045   .     S
N1321  C1381   1.442   .     S
N1321  H1408   1.046   .     S
H1322  N1493   1.046   1_455 S
N1324  H1325   1.044   .     S
N1324  H1326   1.046   .     S
N1324  C1468   1.440   1_455 S
O1327  C1328   1.420   .     S
C1328  C1331   1.530   .     S
C1328  H1330   1.118   .     S
C1328  H1329   1.110   .     S
C1331  H1332   1.111   .     S
C1331  H817    1.110   1_565 S
C1331  C1420   1.524   .     S
C1334  H1335   1.111   .     S
C1334  H1337   1.111   .     S
C1334  C1503   1.524   1_455 S
C1334  H820    1.110   1_565 S
O1338  C1339   1.424   .     S
C1339  H1341   1.108   .     S
C1339  C1342   1.532   .     S
H1340  C823    1.117   1_565 S
C1342  H1343   1.108   .     S
C1342  C1345   1.527   .     S
C1342  H2118   1.112   .     S
C1345  H1346   1.111   .     S
C1345  H1347   1.110   .     S
C1345  H1348   1.104   .     S
N1349  H1350   1.039   .     S
N1349  H1351   1.044   .     S
N1352  H1354   1.040   .     S
N1352  H1353   1.045   .     S
O1355  C1356   1.415   .     S
C1356  H1358   1.115   .     S
C1356  H1357   1.105   .     S
C1356  C2133   1.535   .     S
C1359  H1361   1.108   .     S
C1359  H1360   1.111   .     S
C1359  C1448   1.527   .     S
C1362  H1364   1.111   .     S
C1362  C1531   1.527   1_455 S
H1363  C2136   1.110   .     S
H1365  C2136   1.111   .     S
O1366  C1367   1.417   .     S
C1367  H1368   1.101   .     S
C1367  H1369   1.112   .     S
C1367  C1370   1.526   .     S
C1370  C1373   1.524   .     S
C1370  H1371   1.111   .     S
H1372  C2144   1.103   .     S
H1374  C1631   1.110   1_565 S
H1375  C857    1.108   1_565 S
H1376  C857    1.110   1_565 S
C1377  O1397   1.288   .     A
C1377  C1388   1.428   .     S
C1377  O1399   1.295   .     A
C1378  O1398   1.299   .     A
C1378  C1387   1.427   .     S
C1378  O1400   1.284   .     A
C1379  O1401   1.279   .     A
C1379  C1381   1.411   .     S
C1379  O1403   1.292   .     A
C1380  O1404   1.295   .     A
C1380  C1382   1.408   .     S
C1380  O1402   1.277   .     A
C1382  C1467   1.353   .     S
C1382  N1496   1.440   .     S
C1383  C1388   1.397   .     A
C1383  H1393   1.084   .     S
C1384  H1394   1.084   .     S
C1384  C1387   1.397   .     A
C1384  C870    1.375   1_565 S
C1385  O1413   1.378   .     S
C1385  C1387   1.401   .     A
C1385  C867    1.378   1_565 S
C1386  O1424   1.384   .     S
C1386  C1388   1.403   .     A
C1389  N1396   1.367   .     A
C1389  N1435   1.417   .     S
C1390  N1438   1.430   .     S
C1390  N1395   1.368   .     A
C1390  C2166   1.445   .     S
C1391  N1395   1.371   .     A
C1391  O1441   1.381   .     S
C1391  C2163   1.416   .     S
C1392  N1396   1.376   .     A
C1392  O1452   1.387   .     S
N1395  Zn1405  2.028   .     S
N1396  Zn1406  2.028   .     S
O1397  Zn1405  2.013   .     S
O1398  Zn1406  2.013   .     S
O1399  Zn1406  1.985   .     S
O1400  Zn1405  1.985   .     S
O1401  Zn1405  1.983   .     S
O1402  Zn1406  1.983   .     S
O1403  Zn1406  1.993   .     S
O1404  Zn1405  1.993   .     S
N1407  H1409   1.045   .     S
N1407  C1467   1.442   .     S
N1407  H1494   1.046   .     S
N1410  H1411   1.044   .     S
N1410  H1412   1.046   .     S
O1413  C1414   1.420   .     S
C1414  C1417   1.530   .     S
C1414  H1416   1.118   .     S
C1414  H1415   1.110   .     S
C1417  H1418   1.111   .     S
C1417  H903    1.110   1_565 S
C1417  C1506   1.524   .     S
C1420  H1421   1.111   .     S
C1420  H1423   1.111   .     S
C1420  H906    1.110   1_565 S
O1424  C1425   1.424   .     S
C1425  H1427   1.108   .     S
C1425  C1428   1.532   .     S
H1426  C909    1.117   1_565 S
C1428  H1429   1.108   .     S
C1428  C1431   1.527   .     S
C1428  H2204   1.112   .     S
C1431  H1432   1.111   .     S
C1431  H1433   1.110   .     S
C1431  H1434   1.104   .     S
N1435  H1436   1.039   .     S
N1435  H1437   1.044   .     S
N1438  H1440   1.040   .     S
N1438  H1439   1.045   .     S
O1441  C1442   1.415   .     S
C1442  H1444   1.115   .     S
C1442  H1443   1.105   .     S
C1442  C2219   1.535   .     S
C1445  H1447   1.108   .     S
C1445  H1446   1.111   .     S
C1445  C1534   1.527   .     S
C1448  H1450   1.111   .     S
H1449  C2222   1.110   .     S
H1451  C2222   1.111   .     S
O1452  C1453   1.417   .     S
C1453  H1454   1.101   .     S
C1453  H1455   1.112   .     S
C1453  C1456   1.526   .     S
C1456  C1459   1.524   .     S
C1456  H1457   1.111   .     S
H1458  C2230   1.103   .     S
H1460  C1717   1.110   1_565 S
H1461  C943    1.108   1_565 S
H1462  C943    1.110   1_565 S
C1463  O1483   1.288   .     A
C1463  C1474   1.428   .     S
C1463  O1485   1.295   .     A
C1464  O1484   1.299   .     A
C1464  C1473   1.427   .     S
C1464  O1486   1.284   .     A
C1465  O1487   1.279   .     A
C1465  C1467   1.411   .     S
C1465  O1489   1.292   .     A
C1466  O1490   1.295   .     A
C1466  C1468   1.408   .     S
C1466  O1488   1.277   .     A
C1468  C1295   1.353   1_655 S
C1468  N1324   1.440   1_655 S
C1469  C1474   1.397   .     A
C1469  H1479   1.084   .     S
C1470  H1480   1.084   .     S
C1470  C1473   1.397   .     A
C1470  C956    1.375   1_565 S
C1471  O1499   1.378   .     S
C1471  C1473   1.401   .     A
C1471  C953    1.378   1_565 S
C1472  O1510   1.384   .     S
C1472  C1474   1.403   .     A
C1475  N1482   1.367   .     A
C1475  N1521   1.417   .     S
C1476  N1524   1.430   .     S
C1476  N1481   1.368   .     A
C1476  C2252   1.445   .     S
C1477  N1481   1.371   .     A
C1477  O1527   1.381   .     S
C1477  C2249   1.416   .     S
C1478  N1482   1.376   .     A
C1478  O1538   1.387   .     S
N1481  Zn1491  2.028   .     S
N1482  Zn1492  2.028   .     S
O1483  Zn1491  2.013   .     S
O1484  Zn1492  2.013   .     S
O1485  Zn1492  1.985   .     S
O1486  Zn1491  1.985   .     S
O1487  Zn1491  1.983   .     S
O1488  Zn1492  1.983   .     S
O1489  Zn1492  1.993   .     S
O1490  Zn1491  1.993   .     S
N1493  H1495   1.045   .     S
N1493  C1295   1.442   1_655 S
N1493  H1322   1.046   1_655 S
N1496  H1497   1.044   .     S
N1496  H1498   1.046   .     S
O1499  C1500   1.420   .     S
C1500  C1503   1.530   .     S
C1500  H1502   1.118   .     S
C1500  H1501   1.110   .     S
C1503  H1504   1.111   .     S
C1503  H989    1.110   1_565 S
C1503  C1334   1.524   1_655 S
C1506  H1507   1.111   .     S
C1506  H1509   1.111   .     S
C1506  H992    1.110   1_565 S
O1510  C1511   1.424   .     S
C1511  H1513   1.108   .     S
C1511  C1514   1.532   .     S
H1512  C995    1.117   1_565 S
C1514  H1515   1.108   .     S
C1514  C1517   1.527   .     S
C1514  H2290   1.112   .     S
C1517  H1518   1.111   .     S
C1517  H1519   1.110   .     S
C1517  H1520   1.104   .     S
N1521  H1522   1.039   .     S
N1521  H1523   1.044   .     S
N1524  H1526   1.040   .     S
N1524  H1525   1.045   .     S
O1527  C1528   1.415   .     S
C1528  H1530   1.115   .     S
C1528  H1529   1.105   .     S
C1528  C2305   1.535   .     S
C1531  H1533   1.108   .     S
C1531  H1532   1.111   .     S
C1531  C1362   1.527   1_655 S
C1534  H1536   1.111   .     S
H1535  C2308   1.110   .     S
H1537  C2308   1.111   .     S
O1538  C1539   1.417   .     S
C1539  H1540   1.101   .     S
C1539  H1541   1.112   .     S
C1539  C1542   1.526   .     S
C1542  C1545   1.524   .     S
C1542  H1543   1.111   .     S
H1544  C2316   1.103   .     S
H1546  C1803   1.110   1_565 S
H1547  C1029   1.108   1_565 S
H1548  C1029   1.110   1_565 S
C1549  O1569   1.288   .     A
C1549  C1560   1.428   .     S
C1549  O1571   1.295   .     A
C1550  O1570   1.299   .     A
C1550  C1559   1.427   .     S
C1550  O1572   1.284   .     A
C1551  O1573   1.279   .     A
C1551  C1553   1.411   .     S
C1551  O1575   1.292   .     A
C1552  O1576   1.295   .     A
C1552  C1554   1.408   .     S
C1552  O1574   1.277   .     A
C1553  C1726   1.353   1_455 S
C1553  N1751   1.442   1_455 S
C1554  C1639   1.353   .     S
C1554  N1668   1.440   .     S
C1555  C1560   1.397   .     A
C1555  H1565   1.084   .     S
C1555  C2073   1.378   1_545 S
C1556  H1566   1.084   .     S
C1556  C1559   1.397   .     A
C1556  C1816   1.375   .     S
C1557  O1585   1.378   .     S
C1557  C1559   1.401   .     A
C1557  C1813   1.378   .     S
C1558  O1596   1.384   .     S
C1558  C1560   1.403   .     A
C1558  C2072   1.375   1_545 S
C1561  N1568   1.367   .     A
C1561  N1607   1.417   .     S
C1562  N1610   1.430   .     S
C1562  N1567   1.368   .     A
C1562  C16     1.445   1_556 S
C1563  N1567   1.371   .     A
C1563  O1613   1.381   .     S
C1563  C13     1.416   1_556 S
C1564  N1568   1.376   .     A
C1564  O1624   1.387   .     S
N1567  Zn1577  2.028   .     S
N1568  Zn1578  2.028   .     S
O1569  Zn1577  2.013   .     S
O1570  Zn1578  2.013   .     S
O1571  Zn1578  1.985   .     S
O1572  Zn1577  1.985   .     S
O1573  Zn1577  1.983   .     S
O1574  Zn1578  1.983   .     S
O1575  Zn1578  1.993   .     S
O1576  Zn1577  1.993   .     S
N1579  H1581   1.045   .     S
N1579  C1639   1.442   .     S
N1579  H1666   1.046   .     S
H1580  N1751   1.046   1_455 S
N1582  H1583   1.044   .     S
N1582  H1584   1.046   .     S
N1582  C1726   1.440   1_455 S
O1585  C1586   1.420   .     S
C1586  C1589   1.530   .     S
C1586  H1588   1.118   .     S
C1586  H1587   1.110   .     S
C1589  H1590   1.111   .     S
C1589  H1849   1.110   .     S
C1589  C1678   1.524   .     S
H1591  C2105   1.110   1_545 S
C1592  H1593   1.111   .     S
C1592  H1595   1.111   .     S
C1592  C1761   1.524   1_455 S
C1592  H1852   1.110   .     S
H1594  C2108   1.110   1_545 S
O1596  C1597   1.424   .     S
C1597  H1599   1.108   .     S
C1597  C1600   1.532   .     S
C1597  H2114   1.117   1_545 S
H1598  C1855   1.117   .     S
C1600  H1601   1.108   .     S
C1600  C1603   1.527   .     S
C1600  H54     1.112   1_556 S
C1603  H1604   1.111   .     S
C1603  H1605   1.110   .     S
C1603  H1606   1.104   .     S
N1607  H1608   1.039   .     S
N1607  H1609   1.044   .     S
N1610  H1612   1.040   .     S
N1610  H1611   1.045   .     S
O1613  C1614   1.415   .     S
C1614  H1616   1.115   .     S
C1614  H1615   1.105   .     S
C1614  C69     1.535   1_556 S
C1617  H1619   1.108   .     S
C1617  H1618   1.111   .     S
C1617  C1706   1.527   .     S
C1620  H1622   1.111   .     S
C1620  C1789   1.527   1_455 S
H1621  C72     1.110   1_556 S
H1623  C72     1.111   1_556 S
O1624  C1625   1.417   .     S
C1625  H1626   1.101   .     S
C1625  H1627   1.112   .     S
C1625  C1628   1.526   .     S
C1628  C1631   1.524   .     S
C1628  H1629   1.111   .     S
H1630  C80     1.103   1_556 S
C1631  H1374   1.110   1_545 S
C1631  H2149   1.108   1_545 S
C1631  H2150   1.110   1_545 S
H1632  C341    1.110   1_556 S
H1633  C1889   1.108   .     S
H1634  C1889   1.110   .     S
C1635  O1655   1.288   .     A
C1635  C1646   1.428   .     S
C1635  O1657   1.295   .     A
C1636  O1656   1.299   .     A
C1636  C1645   1.427   .     S
C1636  O1658   1.284   .     A
C1637  O1659   1.279   .     A
C1637  C1639   1.411   .     S
C1637  O1661   1.292   .     A
C1638  O1662   1.295   .     A
C1638  C1640   1.408   .     S
C1638  O1660   1.277   .     A
C1640  C1725   1.353   .     S
C1640  N1754   1.440   .     S
C1641  C1646   1.397   .     A
C1641  H1651   1.084   .     S
C1641  C2159   1.378   1_545 S
C1642  H1652   1.084   .     S
C1642  C1645   1.397   .     A
C1642  C1902   1.375   .     S
C1643  O1671   1.378   .     S
C1643  C1645   1.401   .     A
C1643  C1899   1.378   .     S
C1644  O1682   1.384   .     S
C1644  C1646   1.403   .     A
C1644  C2158   1.375   1_545 S
C1647  N1654   1.367   .     A
C1647  N1693   1.417   .     S
C1648  N1696   1.430   .     S
C1648  N1653   1.368   .     A
C1648  C102    1.445   1_556 S
C1649  N1653   1.371   .     A
C1649  O1699   1.381   .     S
C1649  C99     1.416   1_556 S
C1650  N1654   1.376   .     A
C1650  O1710   1.387   .     S
N1653  Zn1663  2.028   .     S
N1654  Zn1664  2.028   .     S
O1655  Zn1663  2.013   .     S
O1656  Zn1664  2.013   .     S
O1657  Zn1664  1.985   .     S
O1658  Zn1663  1.985   .     S
O1659  Zn1663  1.983   .     S
O1660  Zn1664  1.983   .     S
O1661  Zn1664  1.993   .     S
O1662  Zn1663  1.993   .     S
N1665  H1667   1.045   .     S
N1665  C1725   1.442   .     S
N1665  H1752   1.046   .     S
N1668  H1669   1.044   .     S
N1668  H1670   1.046   .     S
O1671  C1672   1.420   .     S
C1672  C1675   1.530   .     S
C1672  H1674   1.118   .     S
C1672  H1673   1.110   .     S
C1675  H1676   1.111   .     S
C1675  H1935   1.110   .     S
C1675  C1764   1.524   .     S
H1677  C2191   1.110   1_545 S
C1678  H1679   1.111   .     S
C1678  H1681   1.111   .     S
C1678  H1938   1.110   .     S
H1680  C2194   1.110   1_545 S
O1682  C1683   1.424   .     S
C1683  H1685   1.108   .     S
C1683  C1686   1.532   .     S
C1683  H2200   1.117   1_545 S
H1684  C1941   1.117   .     S
C1686  H1687   1.108   .     S
C1686  C1689   1.527   .     S
C1686  H140    1.112   1_556 S
C1689  H1690   1.111   .     S
C1689  H1691   1.110   .     S
C1689  H1692   1.104   .     S
N1693  H1694   1.039   .     S
N1693  H1695   1.044   .     S
N1696  H1698   1.040   .     S
N1696  H1697   1.045   .     S
O1699  C1700   1.415   .     S
C1700  H1702   1.115   .     S
C1700  H1701   1.105   .     S
C1700  C155    1.535   1_556 S
C1703  H1705   1.108   .     S
C1703  H1704   1.111   .     S
C1703  C1792   1.527   .     S
C1706  H1708   1.111   .     S
H1707  C158    1.110   1_556 S
H1709  C158    1.111   1_556 S
O1710  C1711   1.417   .     S
C1711  H1712   1.101   .     S
C1711  H1713   1.112   .     S
C1711  C1714   1.526   .     S
C1714  C1717   1.524   .     S
C1714  H1715   1.111   .     S
H1716  C166    1.103   1_556 S
C1717  H1460   1.110   1_545 S
C1717  H2235   1.108   1_545 S
C1717  H2236   1.110   1_545 S
H1718  C427    1.110   1_556 S
H1719  C1975   1.108   .     S
H1720  C1975   1.110   .     S
C1721  O1741   1.288   .     A
C1721  C1732   1.428   .     S
C1721  O1743   1.295   .     A
C1722  O1742   1.299   .     A
C1722  C1731   1.427   .     S
C1722  O1744   1.284   .     A
C1723  O1745   1.279   .     A
C1723  C1725   1.411   .     S
C1723  O1747   1.292   .     A
C1724  O1748   1.295   .     A
C1724  C1726   1.408   .     S
C1724  O1746   1.277   .     A
C1726  C1553   1.353   1_655 S
C1726  N1582   1.440   1_655 S
C1727  C1732   1.397   .     A
C1727  H1737   1.084   .     S
C1727  C2245   1.378   1_545 S
C1728  H1738   1.084   .     S
C1728  C1731   1.397   .     A
C1728  C1988   1.375   .     S
C1729  O1757   1.378   .     S
C1729  C1731   1.401   .     A
C1729  C1985   1.378   .     S
C1730  O1768   1.384   .     S
C1730  C1732   1.403   .     A
C1730  C2244   1.375   1_545 S
C1733  N1740   1.367   .     A
C1733  N1779   1.417   .     S
C1734  N1782   1.430   .     S
C1734  N1739   1.368   .     A
C1734  C188    1.445   1_556 S
C1735  N1739   1.371   .     A
C1735  O1785   1.381   .     S
C1735  C185    1.416   1_556 S
C1736  N1740   1.376   .     A
C1736  O1796   1.387   .     S
N1739  Zn1749  2.028   .     S
N1740  Zn1750  2.028   .     S
O1741  Zn1749  2.013   .     S
O1742  Zn1750  2.013   .     S
O1743  Zn1750  1.985   .     S
O1744  Zn1749  1.985   .     S
O1745  Zn1749  1.983   .     S
O1746  Zn1750  1.983   .     S
O1747  Zn1750  1.993   .     S
O1748  Zn1749  1.993   .     S
N1751  H1753   1.045   .     S
N1751  C1553   1.442   1_655 S
N1751  H1580   1.046   1_655 S
N1754  H1755   1.044   .     S
N1754  H1756   1.046   .     S
O1757  C1758   1.420   .     S
C1758  C1761   1.530   .     S
C1758  H1760   1.118   .     S
C1758  H1759   1.110   .     S
C1761  H1762   1.111   .     S
C1761  H2021   1.110   .     S
C1761  C1592   1.524   1_655 S
H1763  C2277   1.110   1_545 S
C1764  H1765   1.111   .     S
C1764  H1767   1.111   .     S
C1764  H2024   1.110   .     S
H1766  C2280   1.110   1_545 S
O1768  C1769   1.424   .     S
C1769  H1771   1.108   .     S
C1769  C1772   1.532   .     S
C1769  H2286   1.117   1_545 S
H1770  C2027   1.117   .     S
C1772  H1773   1.108   .     S
C1772  C1775   1.527   .     S
C1772  H226    1.112   1_556 S
C1775  H1776   1.111   .     S
C1775  H1777   1.110   .     S
C1775  H1778   1.104   .     S
N1779  H1780   1.039   .     S
N1779  H1781   1.044   .     S
N1782  H1784   1.040   .     S
N1782  H1783   1.045   .     S
O1785  C1786   1.415   .     S
C1786  H1788   1.115   .     S
C1786  H1787   1.105   .     S
C1786  C241    1.535   1_556 S
C1789  H1791   1.108   .     S
C1789  H1790   1.111   .     S
C1789  C1620   1.527   1_655 S
C1792  H1794   1.111   .     S
H1793  C244    1.110   1_556 S
H1795  C244    1.111   1_556 S
O1796  C1797   1.417   .     S
C1797  H1798   1.101   .     S
C1797  H1799   1.112   .     S
C1797  C1800   1.526   .     S
C1800  C1803   1.524   .     S
C1800  H1801   1.111   .     S
H1802  C252    1.103   1_556 S
C1803  H1546   1.110   1_545 S
C1803  H2321   1.108   1_545 S
C1803  H2322   1.110   1_545 S
H1804  C513    1.110   1_556 S
H1805  C2061   1.108   .     S
H1806  C2061   1.110   .     S
C1807  O1827   1.288   .     A
C1807  C1818   1.428   .     S
C1807  O1829   1.295   .     A
C1808  O1828   1.299   .     A
C1808  C1817   1.427   .     S
C1808  O1830   1.284   .     A
C1809  O1831   1.279   .     A
C1809  C1811   1.411   .     S
C1809  O1833   1.292   .     A
C1810  O1834   1.295   .     A
C1810  C1812   1.408   .     S
C1810  O1832   1.277   .     A
C1811  C1984   1.353   1_455 S
C1811  N2009   1.442   1_455 S
C1812  C1897   1.353   .     S
C1812  N1926   1.440   .     S
C1813  C1818   1.397   .     A
C1813  H1823   1.084   .     S
C1814  H1824   1.084   .     S
C1814  C1817   1.397   .     A
C1814  C2074   1.375   .     S
C1815  O1843   1.378   .     S
C1815  C1817   1.401   .     A
C1815  C2071   1.378   .     S
C1816  O1854   1.384   .     S
C1816  C1818   1.403   .     A
C1819  N1826   1.367   .     A
C1819  N1865   1.417   .     S
C1820  N1868   1.430   .     S
C1820  N1825   1.368   .     A
C1820  C274    1.445   1_556 S
C1821  N1825   1.371   .     A
C1821  O1871   1.381   .     S
C1821  C271    1.416   1_556 S
C1822  N1826   1.376   .     A
C1822  O1882   1.387   .     S
N1825  Zn1835  2.028   .     S
N1826  Zn1836  2.028   .     S
O1827  Zn1835  2.013   .     S
O1828  Zn1836  2.013   .     S
O1829  Zn1836  1.985   .     S
O1830  Zn1835  1.985   .     S
O1831  Zn1835  1.983   .     S
O1832  Zn1836  1.983   .     S
O1833  Zn1836  1.993   .     S
O1834  Zn1835  1.993   .     S
N1837  H1839   1.045   .     S
N1837  C1897   1.442   .     S
N1837  H1924   1.046   .     S
H1838  N2009   1.046   1_455 S
N1840  H1841   1.044   .     S
N1840  H1842   1.046   .     S
N1840  C1984   1.440   1_455 S
O1843  C1844   1.420   .     S
C1844  C1847   1.530   .     S
C1844  H1846   1.118   .     S
C1844  H1845   1.110   .     S
C1847  H1848   1.111   .     S
C1847  H2107   1.110   .     S
C1847  C1936   1.524   .     S
C1850  H1851   1.111   .     S
C1850  H1853   1.111   .     S
C1850  C2019   1.524   1_455 S
C1850  H2110   1.110   .     S
O1854  C1855   1.424   .     S
C1855  H1857   1.108   .     S
C1855  C1858   1.532   .     S
H1856  C2113   1.117   .     S
C1858  H1859   1.108   .     S
C1858  C1861   1.527   .     S
C1858  H312    1.112   1_556 S
C1861  H1862   1.111   .     S
C1861  H1863   1.110   .     S
C1861  H1864   1.104   .     S
N1865  H1866   1.039   .     S
N1865  H1867   1.044   .     S
N1868  H1870   1.040   .     S
N1868  H1869   1.045   .     S
O1871  C1872   1.415   .     S
C1872  H1874   1.115   .     S
C1872  H1873   1.105   .     S
C1872  C327    1.535   1_556 S
C1875  H1877   1.108   .     S
C1875  H1876   1.111   .     S
C1875  C1964   1.527   .     S
C1878  H1880   1.111   .     S
C1878  C2047   1.527   1_455 S
H1879  C330    1.110   1_556 S
H1881  C330    1.111   1_556 S
O1882  C1883   1.417   .     S
C1883  H1884   1.101   .     S
C1883  H1885   1.112   .     S
C1883  C1886   1.526   .     S
C1886  C1889   1.524   .     S
C1886  H1887   1.111   .     S
H1888  C338    1.103   1_556 S
H1890  C599    1.110   1_556 S
H1891  C2147   1.108   .     S
H1892  C2147   1.110   .     S
C1893  O1913   1.288   .     A
C1893  C1904   1.428   .     S
C1893  O1915   1.295   .     A
C1894  O1914   1.299   .     A
C1894  C1903   1.427   .     S
C1894  O1916   1.284   .     A
C1895  O1917   1.279   .     A
C1895  C1897   1.411   .     S
C1895  O1919   1.292   .     A
C1896  O1920   1.295   .     A
C1896  C1898   1.408   .     S
C1896  O1918   1.277   .     A
C1898  C1983   1.353   .     S
C1898  N2012   1.440   .     S
C1899  C1904   1.397   .     A
C1899  H1909   1.084   .     S
C1900  H1910   1.084   .     S
C1900  C1903   1.397   .     A
C1900  C2160   1.375   .     S
C1901  O1929   1.378   .     S
C1901  C1903   1.401   .     A
C1901  C2157   1.378   .     S
C1902  O1940   1.384   .     S
C1902  C1904   1.403   .     A
C1905  N1912   1.367   .     A
C1905  N1951   1.417   .     S
C1906  N1954   1.430   .     S
C1906  N1911   1.368   .     A
C1906  C360    1.445   1_556 S
C1907  N1911   1.371   .     A
C1907  O1957   1.381   .     S
C1907  C357    1.416   1_556 S
C1908  N1912   1.376   .     A
C1908  O1968   1.387   .     S
N1911  Zn1921  2.028   .     S
N1912  Zn1922  2.028   .     S
O1913  Zn1921  2.013   .     S
O1914  Zn1922  2.013   .     S
O1915  Zn1922  1.985   .     S
O1916  Zn1921  1.985   .     S
O1917  Zn1921  1.983   .     S
O1918  Zn1922  1.983   .     S
O1919  Zn1922  1.993   .     S
O1920  Zn1921  1.993   .     S
N1923  H1925   1.045   .     S
N1923  C1983   1.442   .     S
N1923  H2010   1.046   .     S
N1926  H1927   1.044   .     S
N1926  H1928   1.046   .     S
O1929  C1930   1.420   .     S
C1930  C1933   1.530   .     S
C1930  H1932   1.118   .     S
C1930  H1931   1.110   .     S
C1933  H1934   1.111   .     S
C1933  H2193   1.110   .     S
C1933  C2022   1.524   .     S
C1936  H1937   1.111   .     S
C1936  H1939   1.111   .     S
C1936  H2196   1.110   .     S
O1940  C1941   1.424   .     S
C1941  H1943   1.108   .     S
C1941  C1944   1.532   .     S
H1942  C2199   1.117   .     S
C1944  H1945   1.108   .     S
C1944  C1947   1.527   .     S
C1944  H398    1.112   1_556 S
C1947  H1948   1.111   .     S
C1947  H1949   1.110   .     S
C1947  H1950   1.104   .     S
N1951  H1952   1.039   .     S
N1951  H1953   1.044   .     S
N1954  H1956   1.040   .     S
N1954  H1955   1.045   .     S
O1957  C1958   1.415   .     S
C1958  H1960   1.115   .     S
C1958  H1959   1.105   .     S
C1958  C413    1.535   1_556 S
C1961  H1963   1.108   .     S
C1961  H1962   1.111   .     S
C1961  C2050   1.527   .     S
C1964  H1966   1.111   .     S
H1965  C416    1.110   1_556 S
H1967  C416    1.111   1_556 S
O1968  C1969   1.417   .     S
C1969  H1970   1.101   .     S
C1969  H1971   1.112   .     S
C1969  C1972   1.526   .     S
C1972  C1975   1.524   .     S
C1972  H1973   1.111   .     S
H1974  C424    1.103   1_556 S
H1976  C685    1.110   1_556 S
H1977  C2233   1.108   .     S
H1978  C2233   1.110   .     S
C1979  O1999   1.288   .     A
C1979  C1990   1.428   .     S
C1979  O2001   1.295   .     A
C1980  O2000   1.299   .     A
C1980  C1989   1.427   .     S
C1980  O2002   1.284   .     A
C1981  O2003   1.279   .     A
C1981  C1983   1.411   .     S
C1981  O2005   1.292   .     A
C1982  O2006   1.295   .     A
C1982  C1984   1.408   .     S
C1982  O2004   1.277   .     A
C1984  C1811   1.353   1_655 S
C1984  N1840   1.440   1_655 S
C1985  C1990   1.397   .     A
C1985  H1995   1.084   .     S
C1986  H1996   1.084   .     S
C1986  C1989   1.397   .     A
C1986  C2246   1.375   .     S
C1987  O2015   1.378   .     S
C1987  C1989   1.401   .     A
C1987  C2243   1.378   .     S
C1988  O2026   1.384   .     S
C1988  C1990   1.403   .     A
C1991  N1998   1.367   .     A
C1991  N2037   1.417   .     S
C1992  N2040   1.430   .     S
C1992  N1997   1.368   .     A
C1992  C446    1.445   1_556 S
C1993  N1997   1.371   .     A
C1993  O2043   1.381   .     S
C1993  C443    1.416   1_556 S
C1994  N1998   1.376   .     A
C1994  O2054   1.387   .     S
N1997  Zn2007  2.028   .     S
N1998  Zn2008  2.028   .     S
O1999  Zn2007  2.013   .     S
O2000  Zn2008  2.013   .     S
O2001  Zn2008  1.985   .     S
O2002  Zn2007  1.985   .     S
O2003  Zn2007  1.983   .     S
O2004  Zn2008  1.983   .     S
O2005  Zn2008  1.993   .     S
O2006  Zn2007  1.993   .     S
N2009  H2011   1.045   .     S
N2009  C1811   1.442   1_655 S
N2009  H1838   1.046   1_655 S
N2012  H2013   1.044   .     S
N2012  H2014   1.046   .     S
O2015  C2016   1.420   .     S
C2016  C2019   1.530   .     S
C2016  H2018   1.118   .     S
C2016  H2017   1.110   .     S
C2019  H2020   1.111   .     S
C2019  H2279   1.110   .     S
C2019  C1850   1.524   1_655 S
C2022  H2023   1.111   .     S
C2022  H2025   1.111   .     S
C2022  H2282   1.110   .     S
O2026  C2027   1.424   .     S
C2027  H2029   1.108   .     S
C2027  C2030   1.532   .     S
H2028  C2285   1.117   .     S
C2030  H2031   1.108   .     S
C2030  C2033   1.527   .     S
C2030  H484    1.112   1_556 S
C2033  H2034   1.111   .     S
C2033  H2035   1.110   .     S
C2033  H2036   1.104   .     S
N2037  H2038   1.039   .     S
N2037  H2039   1.044   .     S
N2040  H2042   1.040   .     S
N2040  H2041   1.045   .     S
O2043  C2044   1.415   .     S
C2044  H2046   1.115   .     S
C2044  H2045   1.105   .     S
C2044  C499    1.535   1_556 S
C2047  H2049   1.108   .     S
C2047  H2048   1.111   .     S
C2047  C1878   1.527   1_655 S
C2050  H2052   1.111   .     S
H2051  C502    1.110   1_556 S
H2053  C502    1.111   1_556 S
O2054  C2055   1.417   .     S
C2055  H2056   1.101   .     S
C2055  H2057   1.112   .     S
C2055  C2058   1.526   .     S
C2058  C2061   1.524   .     S
C2058  H2059   1.111   .     S
H2060  C510    1.103   1_556 S
H2062  C771    1.110   1_556 S
H2063  C2319   1.108   .     S
H2064  C2319   1.110   .     S
C2065  O2085   1.288   .     A
C2065  C2076   1.428   .     S
C2065  O2087   1.295   .     A
C2066  O2086   1.299   .     A
C2066  C2075   1.427   .     S
C2066  O2088   1.284   .     A
C2067  O2089   1.279   .     A
C2067  C2069   1.411   .     S
C2067  O2091   1.292   .     A
C2068  O2092   1.295   .     A
C2068  C2070   1.408   .     S
C2068  O2090   1.277   .     A
C2069  C2242   1.353   1_455 S
C2069  N2267   1.442   1_455 S
C2070  C2155   1.353   .     S
C2070  N2184   1.440   .     S
C2071  C2076   1.397   .     A
C2071  H2081   1.084   .     S
C2072  H2082   1.084   .     S
C2072  C2075   1.397   .     A
C2072  C1558   1.375   1_565 S
C2073  O2101   1.378   .     S
C2073  C2075   1.401   .     A
C2073  C1555   1.378   1_565 S
C2074  O2112   1.384   .     S
C2074  C2076   1.403   .     A
C2077  N2084   1.367   .     A
C2077  N2123   1.417   .     S
C2078  N2126   1.430   .     S
C2078  N2083   1.368   .     A
C2078  C532    1.445   1_556 S
C2079  N2083   1.371   .     A
C2079  O2129   1.381   .     S
C2079  C529    1.416   1_556 S
C2080  N2084   1.376   .     A
C2080  O2140   1.387   .     S
N2083  Zn2093  2.028   .     S
N2084  Zn2094  2.028   .     S
O2085  Zn2093  2.013   .     S
O2086  Zn2094  2.013   .     S
O2087  Zn2094  1.985   .     S
O2088  Zn2093  1.985   .     S
O2089  Zn2093  1.983   .     S
O2090  Zn2094  1.983   .     S
O2091  Zn2094  1.993   .     S
O2092  Zn2093  1.993   .     S
N2095  H2097   1.045   .     S
N2095  C2155   1.442   .     S
N2095  H2182   1.046   .     S
H2096  N2267   1.046   1_455 S
N2098  H2099   1.044   .     S
N2098  H2100   1.046   .     S
N2098  C2242   1.440   1_455 S
O2101  C2102   1.420   .     S
C2102  C2105   1.530   .     S
C2102  H2104   1.118   .     S
C2102  H2103   1.110   .     S
C2105  H2106   1.111   .     S
C2105  H1591   1.110   1_565 S
C2105  C2194   1.524   .     S
C2108  H2109   1.111   .     S
C2108  H2111   1.111   .     S
C2108  C2277   1.524   1_455 S
C2108  H1594   1.110   1_565 S
O2112  C2113   1.424   .     S
C2113  H2115   1.108   .     S
C2113  C2116   1.532   .     S
H2114  C1597   1.117   1_565 S
C2116  H2117   1.108   .     S
C2116  C2119   1.527   .     S
C2116  H570    1.112   1_556 S
C2119  H2120   1.111   .     S
C2119  H2121   1.110   .     S
C2119  H2122   1.104   .     S
N2123  H2124   1.039   .     S
N2123  H2125   1.044   .     S
N2126  H2128   1.040   .     S
N2126  H2127   1.045   .     S
O2129  C2130   1.415   .     S
C2130  H2132   1.115   .     S
C2130  H2131   1.105   .     S
C2130  C585    1.535   1_556 S
C2133  H2135   1.108   .     S
C2133  H2134   1.111   .     S
C2133  C2222   1.527   .     S
C2136  H2138   1.111   .     S
C2136  C2305   1.527   1_455 S
H2137  C588    1.110   1_556 S
H2139  C588    1.111   1_556 S
O2140  C2141   1.417   .     S
C2141  H2142   1.101   .     S
C2141  H2143   1.112   .     S
C2141  C2144   1.526   .     S
C2144  C2147   1.524   .     S
C2144  H2145   1.111   .     S
H2146  C596    1.103   1_556 S
H2148  C83     1.110   1_566 S
H2149  C1631   1.108   1_565 S
H2150  C1631   1.110   1_565 S
C2151  O2171   1.288   .     A
C2151  C2162   1.428   .     S
C2151  O2173   1.295   .     A
C2152  O2172   1.299   .     A
C2152  C2161   1.427   .     S
C2152  O2174   1.284   .     A
C2153  O2175   1.279   .     A
C2153  C2155   1.411   .     S
C2153  O2177   1.292   .     A
C2154  O2178   1.295   .     A
C2154  C2156   1.408   .     S
C2154  O2176   1.277   .     A
C2156  C2241   1.353   .     S
C2156  N2270   1.440   .     S
C2157  C2162   1.397   .     A
C2157  H2167   1.084   .     S
C2158  H2168   1.084   .     S
C2158  C2161   1.397   .     A
C2158  C1644   1.375   1_565 S
C2159  O2187   1.378   .     S
C2159  C2161   1.401   .     A
C2159  C1641   1.378   1_565 S
C2160  O2198   1.384   .     S
C2160  C2162   1.403   .     A
C2163  N2170   1.367   .     A
C2163  N2209   1.417   .     S
C2164  N2212   1.430   .     S
C2164  N2169   1.368   .     A
C2164  C618    1.445   1_556 S
C2165  N2169   1.371   .     A
C2165  O2215   1.381   .     S
C2165  C615    1.416   1_556 S
C2166  N2170   1.376   .     A
C2166  O2226   1.387   .     S
N2169  Zn2179  2.028   .     S
N2170  Zn2180  2.028   .     S
O2171  Zn2179  2.013   .     S
O2172  Zn2180  2.013   .     S
O2173  Zn2180  1.985   .     S
O2174  Zn2179  1.985   .     S
O2175  Zn2179  1.983   .     S
O2176  Zn2180  1.983   .     S
O2177  Zn2180  1.993   .     S
O2178  Zn2179  1.993   .     S
N2181  H2183   1.045   .     S
N2181  C2241   1.442   .     S
N2181  H2268   1.046   .     S
N2184  H2185   1.044   .     S
N2184  H2186   1.046   .     S
O2187  C2188   1.420   .     S
C2188  C2191   1.530   .     S
C2188  H2190   1.118   .     S
C2188  H2189   1.110   .     S
C2191  H2192   1.111   .     S
C2191  H1677   1.110   1_565 S
C2191  C2280   1.524   .     S
C2194  H2195   1.111   .     S
C2194  H2197   1.111   .     S
C2194  H1680   1.110   1_565 S
O2198  C2199   1.424   .     S
C2199  H2201   1.108   .     S
C2199  C2202   1.532   .     S
H2200  C1683   1.117   1_565 S
C2202  H2203   1.108   .     S
C2202  C2205   1.527   .     S
C2202  H656    1.112   1_556 S
C2205  H2206   1.111   .     S
C2205  H2207   1.110   .     S
C2205  H2208   1.104   .     S
N2209  H2210   1.039   .     S
N2209  H2211   1.044   .     S
N2212  H2214   1.040   .     S
N2212  H2213   1.045   .     S
O2215  C2216   1.415   .     S
C2216  H2218   1.115   .     S
C2216  H2217   1.105   .     S
C2216  C671    1.535   1_556 S
C2219  H2221   1.108   .     S
C2219  H2220   1.111   .     S
C2219  C2308   1.527   .     S
C2222  H2224   1.111   .     S
H2223  C674    1.110   1_556 S
H2225  C674    1.111   1_556 S
O2226  C2227   1.417   .     S
C2227  H2228   1.101   .     S
C2227  H2229   1.112   .     S
C2227  C2230   1.526   .     S
C2230  C2233   1.524   .     S
C2230  H2231   1.111   .     S
H2232  C682    1.103   1_556 S
H2234  C169    1.110   1_566 S
H2235  C1717   1.108   1_565 S
H2236  C1717   1.110   1_565 S
C2237  O2257   1.288   .     A
C2237  C2248   1.428   .     S
C2237  O2259   1.295   .     A
C2238  O2258   1.299   .     A
C2238  C2247   1.427   .     S
C2238  O2260   1.284   .     A
C2239  O2261   1.279   .     A
C2239  C2241   1.411   .     S
C2239  O2263   1.292   .     A
C2240  O2264   1.295   .     A
C2240  C2242   1.408   .     S
C2240  O2262   1.277   .     A
C2242  C2069   1.353   1_655 S
C2242  N2098   1.440   1_655 S
C2243  C2248   1.397   .     A
C2243  H2253   1.084   .     S
C2244  H2254   1.084   .     S
C2244  C2247   1.397   .     A
C2244  C1730   1.375   1_565 S
C2245  O2273   1.378   .     S
C2245  C2247   1.401   .     A
C2245  C1727   1.378   1_565 S
C2246  O2284   1.384   .     S
C2246  C2248   1.403   .     A
C2249  N2256   1.367   .     A
C2249  N2295   1.417   .     S
C2250  N2298   1.430   .     S
C2250  N2255   1.368   .     A
C2250  C704    1.445   1_556 S
C2251  N2255   1.371   .     A
C2251  O2301   1.381   .     S
C2251  C701    1.416   1_556 S
C2252  N2256   1.376   .     A
C2252  O2312   1.387   .     S
N2255  Zn2265  2.028   .     S
N2256  Zn2266  2.028   .     S
O2257  Zn2265  2.013   .     S
O2258  Zn2266  2.013   .     S
O2259  Zn2266  1.985   .     S
O2260  Zn2265  1.985   .     S
O2261  Zn2265  1.983   .     S
O2262  Zn2266  1.983   .     S
O2263  Zn2266  1.993   .     S
O2264  Zn2265  1.993   .     S
N2267  H2269   1.045   .     S
N2267  C2069   1.442   1_655 S
N2267  H2096   1.046   1_655 S
N2270  H2271   1.044   .     S
N2270  H2272   1.046   .     S
O2273  C2274   1.420   .     S
C2274  C2277   1.530   .     S
C2274  H2276   1.118   .     S
C2274  H2275   1.110   .     S
C2277  H2278   1.111   .     S
C2277  H1763   1.110   1_565 S
C2277  C2108   1.524   1_655 S
C2280  H2281   1.111   .     S
C2280  H2283   1.111   .     S
C2280  H1766   1.110   1_565 S
O2284  C2285   1.424   .     S
C2285  H2287   1.108   .     S
C2285  C2288   1.532   .     S
H2286  C1769   1.117   1_565 S
C2288  H2289   1.108   .     S
C2288  C2291   1.527   .     S
C2288  H742    1.112   1_556 S
C2291  H2292   1.111   .     S
C2291  H2293   1.110   .     S
C2291  H2294   1.104   .     S
N2295  H2296   1.039   .     S
N2295  H2297   1.044   .     S
N2298  H2300   1.040   .     S
N2298  H2299   1.045   .     S
O2301  C2302   1.415   .     S
C2302  H2304   1.115   .     S
C2302  H2303   1.105   .     S
C2302  C757    1.535   1_556 S
C2305  H2307   1.108   .     S
C2305  H2306   1.111   .     S
C2305  C2136   1.527   1_655 S
C2308  H2310   1.111   .     S
H2309  C760    1.110   1_556 S
H2311  C760    1.111   1_556 S
O2312  C2313   1.417   .     S
C2313  H2314   1.101   .     S
C2313  H2315   1.112   .     S
C2313  C2316   1.526   .     S
C2316  C2319   1.524   .     S
C2316  H2317   1.111   .     S
H2318  C768    1.103   1_556 S
H2320  C255    1.110   1_566 S
H2321  C1803   1.108   1_565 S
H2322  C1803   1.110   1_565 S
