data_str_m3_o2_o5_pcu_sym.81
_audit_creation_date              2020-01-03
_audit_creation_method            'Materials Studio'
_symmetry_space_group_name_H-M    'P1'
_symmetry_Int_Tables_number       1
_symmetry_cell_setting            triclinic
loop_
_symmetry_equiv_pos_as_xyz
  x,y,z
_cell_length_a                    30.2502
_cell_length_b                    28.3725
_cell_length_c                    26.7402
_cell_angle_alpha                 89.9992
_cell_angle_beta                  90.0218
_cell_angle_gamma                 90.0246
loop_
_atom_site_label
_atom_site_type_symbol
_atom_site_fract_x
_atom_site_fract_y
_atom_site_fract_z
_atom_site_U_iso_or_equiv
_atom_site_adp_type
_atom_site_occupancy
C1     C     0.16377   0.24995   0.16702   0.00000  Uiso   1.00
C2     C     0.23417   0.44714   0.12538   0.00000  Uiso   1.00
C3     C     0.24999   0.25000   0.07286   0.00000  Uiso   1.00
C4     C     0.25001   0.25000   0.26048   0.00000  Uiso   1.00
C5     C     0.25001   0.02669   0.16667   0.00000  Uiso   1.00
C6     C     0.25000   0.47322   0.16667   0.00000  Uiso   1.00
C7     C     0.25000   0.25000   0.02179   0.00000  Uiso   1.00
C8     C     0.25001   0.25000   0.31155   0.00000  Uiso   1.00
C9     C     0.04586   0.28810   0.15232   0.00000  Uiso   1.00
C10    C     0.45322   0.20873   0.15284   0.00000  Uiso   1.00
C11    C     0.45360   0.28764   0.18711   0.00000  Uiso   1.00
C12    C     0.33623   0.24997   0.16658   0.00000  Uiso   1.00
C13    C     0.04718   0.20886   0.18566   0.00000  Uiso   1.00
C14    C     0.09182   0.29062   0.15429   0.00000  Uiso   1.00
C15    C     0.40740   0.20820   0.15348   0.00000  Uiso   1.00
C16    C     0.40779   0.29038   0.18275   0.00000  Uiso   1.00
C17    C     0.09293   0.20817   0.18270   0.00000  Uiso   1.00
C18    C     0.11562   0.24961   0.16790   0.00000  Uiso   1.00
C19    C     0.38436   0.24962   0.16748   0.00000  Uiso   1.00
C20    C     0.02385   0.24817   0.16949   0.00000  Uiso   1.00
C21    C     0.47609   0.24786   0.17044   0.00000  Uiso   1.00
C22    C     0.09554   0.37180   0.16318   0.00000  Uiso   1.00
C23    C     0.24727   0.10224   0.12265   0.00000  Uiso   1.00
C24    C     0.12973   0.41094   0.16497   0.00000  Uiso   1.00
C25    C     0.38829   0.13191   0.16983   0.00000  Uiso   1.00
C26    C     0.37140   0.08678   0.14584   0.00000  Uiso   1.00
C27    C     0.40441   0.37131   0.17259   0.00000  Uiso   1.00
C28    C     0.37049   0.41063   0.16958   0.00000  Uiso   1.00
C29    C     0.11122   0.13230   0.16352   0.00000  Uiso   1.00
C30    C     0.12839   0.08646   0.18564   0.00000  Uiso   1.00
C31    C     0.26508   0.39766   0.20738   0.00000  Uiso   1.00
C32    C     0.25274   0.10225   0.21069   0.00000  Uiso   1.00
C33    C     0.23490   0.39765   0.12597   0.00000  Uiso   1.00
C34    C     0.24782   0.05276   0.12176   0.00000  Uiso   1.00
C35    C     0.26580   0.44715   0.20797   0.00000  Uiso   1.00
C36    C     0.25219   0.05277   0.21159   0.00000  Uiso   1.00
H37    H     0.24537   0.12134   0.08777   0.00000  Uiso   1.00
H38    H     0.27969   0.46432   0.24042   0.00000  Uiso   1.00
H39    H     0.25272   0.03560   0.24763   0.00000  Uiso   1.00
H40    H     0.22028   0.46430   0.09293   0.00000  Uiso   1.00
H41    H     0.08487   0.36458   0.20241   0.00000  Uiso   1.00
H42    H     0.06692   0.38483   0.14108   0.00000  Uiso   1.00
H43    H     0.11506   0.44300   0.18205   0.00000  Uiso   1.00
H44    H     0.15839   0.39967   0.18797   0.00000  Uiso   1.00
H45    H     0.14086   0.41960   0.12649   0.00000  Uiso   1.00
H46    H     0.36748   0.13996   0.20308   0.00000  Uiso   1.00
H47    H     0.42285   0.12526   0.18240   0.00000  Uiso   1.00
H48    H     0.27755   0.37835   0.23926   0.00000  Uiso   1.00
H49    H     0.39338   0.07640   0.11445   0.00000  Uiso   1.00
H50    H     0.37073   0.05793   0.17391   0.00000  Uiso   1.00
H51    H     0.33756   0.09224   0.13118   0.00000  Uiso   1.00
H52    H     0.41566   0.36357   0.13369   0.00000  Uiso   1.00
H53    H     0.43276   0.38445   0.19507   0.00000  Uiso   1.00
H54    H     0.38559   0.44234   0.15224   0.00000  Uiso   1.00
H55    H     0.34207   0.39921   0.14627   0.00000  Uiso   1.00
H56    H     0.35892   0.41991   0.20772   0.00000  Uiso   1.00
H57    H     0.13116   0.14101   0.12978   0.00000  Uiso   1.00
H58    H     0.07627   0.12622   0.15200   0.00000  Uiso   1.00
H59    H     0.25464   0.12135   0.24557   0.00000  Uiso   1.00
H60    H     0.10732   0.07558   0.21763   0.00000  Uiso   1.00
H61    H     0.12784   0.05827   0.15683   0.00000  Uiso   1.00
H62    H     0.16274   0.09123   0.19900   0.00000  Uiso   1.00
H63    H     0.22243   0.37834   0.09409   0.00000  Uiso   1.00
H64    H     0.02702   0.31748   0.13774   0.00000  Uiso   1.00
H65    H     0.47093   0.17851   0.13824   0.00000  Uiso   1.00
H66    H     0.47199   0.31695   0.20258   0.00000  Uiso   1.00
H67    H     0.02989   0.17841   0.20040   0.00000  Uiso   1.00
H68    H     0.24730   0.03559   0.08572   0.00000  Uiso   1.00
N69    N     0.25000   0.12624   0.16667   0.00000  Uiso   1.00
N70    N     0.25000   0.37377   0.16667   0.00000  Uiso   1.00
O71    O     0.18453   0.28974   0.16667   0.00000  Uiso   1.00
O72    O     0.38550   0.16912   0.13474   0.00000  Uiso   1.00
O73    O     0.38535   0.33134   0.19605   0.00000  Uiso   1.00
O74    O     0.11528   0.16862   0.19950   0.00000  Uiso   1.00
O75    O     0.31547   0.21026   0.16666   0.00000  Uiso   1.00
O76    O     0.31547   0.28974   0.16666   0.00000  Uiso   1.00
O77    O     0.18453   0.21026   0.16667   0.00000  Uiso   1.00
O78    O     0.25000   0.28973   0.09511   0.00000  Uiso   1.00
O79    O     0.25000   0.21027   0.23822   0.00000  Uiso   1.00
O80    O     0.25000   0.28973   0.23822   0.00000  Uiso   1.00
O81    O     0.25000   0.21027   0.09511   0.00000  Uiso   1.00
O82    O     0.11399   0.33146   0.13986   0.00000  Uiso   1.00
Zn83   Zn    0.25000   0.30307   0.16667   0.00000  Uiso   1.00
Zn84   Zn    0.25000   0.19693   0.16667   0.00000  Uiso   1.00
C85    C     0.66377   0.24995   0.16702   0.00000  Uiso   1.00
C86    C     0.73417   0.44714   0.12538   0.00000  Uiso   1.00
C87    C     0.74999   0.25000   0.07286   0.00000  Uiso   1.00
C88    C     0.75001   0.25000   0.26048   0.00000  Uiso   1.00
C89    C     0.75001   0.02669   0.16667   0.00000  Uiso   1.00
C90    C     0.75000   0.47322   0.16667   0.00000  Uiso   1.00
C91    C     0.75000   0.25000   0.02179   0.00000  Uiso   1.00
C92    C     0.75001   0.25000   0.31155   0.00000  Uiso   1.00
C93    C     0.54586   0.28810   0.15232   0.00000  Uiso   1.00
C94    C     0.95322   0.20873   0.15284   0.00000  Uiso   1.00
C95    C     0.95360   0.28764   0.18711   0.00000  Uiso   1.00
C96    C     0.83623   0.24997   0.16658   0.00000  Uiso   1.00
C97    C     0.54718   0.20886   0.18566   0.00000  Uiso   1.00
C98    C     0.59182   0.29062   0.15429   0.00000  Uiso   1.00
C99    C     0.90740   0.20820   0.15348   0.00000  Uiso   1.00
C100   C     0.90779   0.29038   0.18275   0.00000  Uiso   1.00
C101   C     0.59293   0.20817   0.18270   0.00000  Uiso   1.00
C102   C     0.61562   0.24961   0.16790   0.00000  Uiso   1.00
C103   C     0.88436   0.24962   0.16748   0.00000  Uiso   1.00
C104   C     0.52385   0.24817   0.16949   0.00000  Uiso   1.00
C105   C     0.97609   0.24786   0.17044   0.00000  Uiso   1.00
C106   C     0.59554   0.37180   0.16318   0.00000  Uiso   1.00
C107   C     0.74727   0.10224   0.12265   0.00000  Uiso   1.00
C108   C     0.62973   0.41094   0.16497   0.00000  Uiso   1.00
C109   C     0.88829   0.13191   0.16983   0.00000  Uiso   1.00
C110   C     0.87140   0.08678   0.14584   0.00000  Uiso   1.00
C111   C     0.90441   0.37131   0.17259   0.00000  Uiso   1.00
C112   C     0.87049   0.41063   0.16958   0.00000  Uiso   1.00
C113   C     0.61122   0.13230   0.16352   0.00000  Uiso   1.00
C114   C     0.62839   0.08646   0.18564   0.00000  Uiso   1.00
C115   C     0.76508   0.39766   0.20738   0.00000  Uiso   1.00
C116   C     0.75274   0.10225   0.21069   0.00000  Uiso   1.00
C117   C     0.73490   0.39765   0.12597   0.00000  Uiso   1.00
C118   C     0.74782   0.05276   0.12176   0.00000  Uiso   1.00
C119   C     0.76580   0.44715   0.20797   0.00000  Uiso   1.00
C120   C     0.75219   0.05277   0.21159   0.00000  Uiso   1.00
H121   H     0.74537   0.12134   0.08777   0.00000  Uiso   1.00
H122   H     0.77969   0.46432   0.24042   0.00000  Uiso   1.00
H123   H     0.75272   0.03560   0.24763   0.00000  Uiso   1.00
H124   H     0.72028   0.46430   0.09293   0.00000  Uiso   1.00
H125   H     0.58487   0.36458   0.20241   0.00000  Uiso   1.00
H126   H     0.56692   0.38483   0.14108   0.00000  Uiso   1.00
H127   H     0.61506   0.44300   0.18205   0.00000  Uiso   1.00
H128   H     0.65839   0.39967   0.18797   0.00000  Uiso   1.00
H129   H     0.64086   0.41960   0.12649   0.00000  Uiso   1.00
H130   H     0.86748   0.13996   0.20308   0.00000  Uiso   1.00
H131   H     0.92285   0.12526   0.18240   0.00000  Uiso   1.00
H132   H     0.77755   0.37835   0.23926   0.00000  Uiso   1.00
H133   H     0.89338   0.07640   0.11445   0.00000  Uiso   1.00
H134   H     0.87073   0.05793   0.17391   0.00000  Uiso   1.00
H135   H     0.83756   0.09224   0.13118   0.00000  Uiso   1.00
H136   H     0.91566   0.36357   0.13369   0.00000  Uiso   1.00
H137   H     0.93276   0.38445   0.19507   0.00000  Uiso   1.00
H138   H     0.88559   0.44234   0.15224   0.00000  Uiso   1.00
H139   H     0.84207   0.39921   0.14627   0.00000  Uiso   1.00
H140   H     0.85892   0.41991   0.20772   0.00000  Uiso   1.00
H141   H     0.63116   0.14101   0.12978   0.00000  Uiso   1.00
H142   H     0.57627   0.12622   0.15200   0.00000  Uiso   1.00
H143   H     0.75464   0.12135   0.24557   0.00000  Uiso   1.00
H144   H     0.60732   0.07558   0.21763   0.00000  Uiso   1.00
H145   H     0.62784   0.05827   0.15683   0.00000  Uiso   1.00
H146   H     0.66274   0.09123   0.19900   0.00000  Uiso   1.00
H147   H     0.72243   0.37834   0.09409   0.00000  Uiso   1.00
H148   H     0.52702   0.31748   0.13774   0.00000  Uiso   1.00
H149   H     0.97093   0.17851   0.13824   0.00000  Uiso   1.00
H150   H     0.97199   0.31695   0.20258   0.00000  Uiso   1.00
H151   H     0.52989   0.17841   0.20040   0.00000  Uiso   1.00
H152   H     0.74730   0.03559   0.08572   0.00000  Uiso   1.00
N153   N     0.75000   0.12624   0.16667   0.00000  Uiso   1.00
N154   N     0.75000   0.37377   0.16667   0.00000  Uiso   1.00
O155   O     0.68453   0.28974   0.16667   0.00000  Uiso   1.00
O156   O     0.88550   0.16912   0.13474   0.00000  Uiso   1.00
O157   O     0.88535   0.33134   0.19605   0.00000  Uiso   1.00
O158   O     0.61528   0.16862   0.19950   0.00000  Uiso   1.00
O159   O     0.81547   0.21026   0.16666   0.00000  Uiso   1.00
O160   O     0.81547   0.28974   0.16666   0.00000  Uiso   1.00
O161   O     0.68453   0.21026   0.16667   0.00000  Uiso   1.00
O162   O     0.75000   0.28973   0.09511   0.00000  Uiso   1.00
O163   O     0.75000   0.21027   0.23822   0.00000  Uiso   1.00
O164   O     0.75000   0.28973   0.23822   0.00000  Uiso   1.00
O165   O     0.75000   0.21027   0.09511   0.00000  Uiso   1.00
O166   O     0.61399   0.33146   0.13986   0.00000  Uiso   1.00
Zn167  Zn    0.75000   0.30307   0.16667   0.00000  Uiso   1.00
Zn168  Zn    0.75000   0.19693   0.16667   0.00000  Uiso   1.00
C169   C     0.16377   0.74995   0.16702   0.00000  Uiso   1.00
C170   C     0.23417   0.94714   0.12538   0.00000  Uiso   1.00
C171   C     0.24999   0.75000   0.07286   0.00000  Uiso   1.00
C172   C     0.25001   0.75000   0.26048   0.00000  Uiso   1.00
C173   C     0.25001   0.52669   0.16667   0.00000  Uiso   1.00
C174   C     0.25000   0.97322   0.16667   0.00000  Uiso   1.00
C175   C     0.25000   0.75000   0.02179   0.00000  Uiso   1.00
C176   C     0.25001   0.75000   0.31155   0.00000  Uiso   1.00
C177   C     0.04586   0.78810   0.15232   0.00000  Uiso   1.00
C178   C     0.45322   0.70873   0.15284   0.00000  Uiso   1.00
C179   C     0.45360   0.78764   0.18711   0.00000  Uiso   1.00
C180   C     0.33623   0.74997   0.16658   0.00000  Uiso   1.00
C181   C     0.04718   0.70886   0.18566   0.00000  Uiso   1.00
C182   C     0.09182   0.79062   0.15429   0.00000  Uiso   1.00
C183   C     0.40740   0.70820   0.15348   0.00000  Uiso   1.00
C184   C     0.40779   0.79038   0.18275   0.00000  Uiso   1.00
C185   C     0.09293   0.70817   0.18270   0.00000  Uiso   1.00
C186   C     0.11562   0.74961   0.16790   0.00000  Uiso   1.00
C187   C     0.38436   0.74962   0.16748   0.00000  Uiso   1.00
C188   C     0.02385   0.74817   0.16949   0.00000  Uiso   1.00
C189   C     0.47609   0.74786   0.17044   0.00000  Uiso   1.00
C190   C     0.09554   0.87180   0.16318   0.00000  Uiso   1.00
C191   C     0.24727   0.60224   0.12265   0.00000  Uiso   1.00
C192   C     0.12973   0.91094   0.16497   0.00000  Uiso   1.00
C193   C     0.38829   0.63191   0.16983   0.00000  Uiso   1.00
C194   C     0.37140   0.58678   0.14584   0.00000  Uiso   1.00
C195   C     0.40441   0.87131   0.17259   0.00000  Uiso   1.00
C196   C     0.37049   0.91063   0.16958   0.00000  Uiso   1.00
C197   C     0.11122   0.63230   0.16352   0.00000  Uiso   1.00
C198   C     0.12839   0.58646   0.18564   0.00000  Uiso   1.00
C199   C     0.26508   0.89766   0.20738   0.00000  Uiso   1.00
C200   C     0.25274   0.60225   0.21069   0.00000  Uiso   1.00
C201   C     0.23490   0.89765   0.12597   0.00000  Uiso   1.00
C202   C     0.24782   0.55276   0.12176   0.00000  Uiso   1.00
C203   C     0.26580   0.94715   0.20797   0.00000  Uiso   1.00
C204   C     0.25219   0.55277   0.21159   0.00000  Uiso   1.00
H205   H     0.24537   0.62134   0.08777   0.00000  Uiso   1.00
H206   H     0.27969   0.96432   0.24042   0.00000  Uiso   1.00
H207   H     0.25272   0.53560   0.24763   0.00000  Uiso   1.00
H208   H     0.22028   0.96430   0.09293   0.00000  Uiso   1.00
H209   H     0.08487   0.86458   0.20241   0.00000  Uiso   1.00
H210   H     0.06692   0.88483   0.14108   0.00000  Uiso   1.00
H211   H     0.11506   0.94300   0.18205   0.00000  Uiso   1.00
H212   H     0.15839   0.89967   0.18797   0.00000  Uiso   1.00
H213   H     0.14086   0.91960   0.12649   0.00000  Uiso   1.00
H214   H     0.36748   0.63996   0.20308   0.00000  Uiso   1.00
H215   H     0.42285   0.62526   0.18240   0.00000  Uiso   1.00
H216   H     0.27755   0.87835   0.23926   0.00000  Uiso   1.00
H217   H     0.39338   0.57640   0.11445   0.00000  Uiso   1.00
H218   H     0.37073   0.55793   0.17391   0.00000  Uiso   1.00
H219   H     0.33756   0.59224   0.13118   0.00000  Uiso   1.00
H220   H     0.41566   0.86357   0.13369   0.00000  Uiso   1.00
H221   H     0.43276   0.88445   0.19507   0.00000  Uiso   1.00
H222   H     0.38559   0.94234   0.15224   0.00000  Uiso   1.00
H223   H     0.34207   0.89921   0.14627   0.00000  Uiso   1.00
H224   H     0.35892   0.91991   0.20772   0.00000  Uiso   1.00
H225   H     0.13116   0.64101   0.12978   0.00000  Uiso   1.00
H226   H     0.07627   0.62622   0.15200   0.00000  Uiso   1.00
H227   H     0.25464   0.62135   0.24557   0.00000  Uiso   1.00
H228   H     0.10732   0.57558   0.21763   0.00000  Uiso   1.00
H229   H     0.12784   0.55827   0.15683   0.00000  Uiso   1.00
H230   H     0.16274   0.59123   0.19900   0.00000  Uiso   1.00
H231   H     0.22243   0.87834   0.09409   0.00000  Uiso   1.00
H232   H     0.02702   0.81748   0.13774   0.00000  Uiso   1.00
H233   H     0.47093   0.67851   0.13824   0.00000  Uiso   1.00
H234   H     0.47199   0.81695   0.20258   0.00000  Uiso   1.00
H235   H     0.02989   0.67841   0.20040   0.00000  Uiso   1.00
H236   H     0.24730   0.53559   0.08572   0.00000  Uiso   1.00
N237   N     0.25000   0.62624   0.16667   0.00000  Uiso   1.00
N238   N     0.25000   0.87377   0.16667   0.00000  Uiso   1.00
O239   O     0.18453   0.78974   0.16667   0.00000  Uiso   1.00
O240   O     0.38550   0.66912   0.13474   0.00000  Uiso   1.00
O241   O     0.38535   0.83134   0.19605   0.00000  Uiso   1.00
O242   O     0.11528   0.66862   0.19950   0.00000  Uiso   1.00
O243   O     0.31547   0.71026   0.16666   0.00000  Uiso   1.00
O244   O     0.31547   0.78974   0.16666   0.00000  Uiso   1.00
O245   O     0.18453   0.71026   0.16667   0.00000  Uiso   1.00
O246   O     0.25000   0.78973   0.09511   0.00000  Uiso   1.00
O247   O     0.25000   0.71027   0.23822   0.00000  Uiso   1.00
O248   O     0.25000   0.78973   0.23822   0.00000  Uiso   1.00
O249   O     0.25000   0.71027   0.09511   0.00000  Uiso   1.00
O250   O     0.11399   0.83146   0.13986   0.00000  Uiso   1.00
Zn251  Zn    0.25000   0.80307   0.16667   0.00000  Uiso   1.00
Zn252  Zn    0.25000   0.69693   0.16667   0.00000  Uiso   1.00
C253   C     0.66377   0.74995   0.16702   0.00000  Uiso   1.00
C254   C     0.73417   0.94714   0.12538   0.00000  Uiso   1.00
C255   C     0.74999   0.75000   0.07286   0.00000  Uiso   1.00
C256   C     0.75001   0.75000   0.26048   0.00000  Uiso   1.00
C257   C     0.75001   0.52669   0.16667   0.00000  Uiso   1.00
C258   C     0.75000   0.97322   0.16667   0.00000  Uiso   1.00
C259   C     0.75000   0.75000   0.02179   0.00000  Uiso   1.00
C260   C     0.75001   0.75000   0.31155   0.00000  Uiso   1.00
C261   C     0.54586   0.78810   0.15232   0.00000  Uiso   1.00
C262   C     0.95322   0.70873   0.15284   0.00000  Uiso   1.00
C263   C     0.95360   0.78764   0.18711   0.00000  Uiso   1.00
C264   C     0.83623   0.74997   0.16658   0.00000  Uiso   1.00
C265   C     0.54718   0.70886   0.18566   0.00000  Uiso   1.00
C266   C     0.59182   0.79062   0.15429   0.00000  Uiso   1.00
C267   C     0.90740   0.70820   0.15348   0.00000  Uiso   1.00
C268   C     0.90779   0.79038   0.18275   0.00000  Uiso   1.00
C269   C     0.59293   0.70817   0.18270   0.00000  Uiso   1.00
C270   C     0.61562   0.74961   0.16790   0.00000  Uiso   1.00
C271   C     0.88436   0.74962   0.16748   0.00000  Uiso   1.00
C272   C     0.52385   0.74817   0.16949   0.00000  Uiso   1.00
C273   C     0.97609   0.74786   0.17044   0.00000  Uiso   1.00
C274   C     0.59554   0.87180   0.16318   0.00000  Uiso   1.00
C275   C     0.74727   0.60224   0.12265   0.00000  Uiso   1.00
C276   C     0.62973   0.91094   0.16497   0.00000  Uiso   1.00
C277   C     0.88829   0.63191   0.16983   0.00000  Uiso   1.00
C278   C     0.87140   0.58678   0.14584   0.00000  Uiso   1.00
C279   C     0.90441   0.87131   0.17259   0.00000  Uiso   1.00
C280   C     0.87049   0.91063   0.16958   0.00000  Uiso   1.00
C281   C     0.61122   0.63230   0.16352   0.00000  Uiso   1.00
C282   C     0.62839   0.58646   0.18564   0.00000  Uiso   1.00
C283   C     0.76508   0.89766   0.20738   0.00000  Uiso   1.00
C284   C     0.75274   0.60225   0.21069   0.00000  Uiso   1.00
C285   C     0.73490   0.89765   0.12597   0.00000  Uiso   1.00
C286   C     0.74782   0.55276   0.12176   0.00000  Uiso   1.00
C287   C     0.76580   0.94715   0.20797   0.00000  Uiso   1.00
C288   C     0.75219   0.55277   0.21159   0.00000  Uiso   1.00
H289   H     0.74537   0.62134   0.08777   0.00000  Uiso   1.00
H290   H     0.77969   0.96432   0.24042   0.00000  Uiso   1.00
H291   H     0.75272   0.53560   0.24763   0.00000  Uiso   1.00
H292   H     0.72028   0.96430   0.09293   0.00000  Uiso   1.00
H293   H     0.58487   0.86458   0.20241   0.00000  Uiso   1.00
H294   H     0.56692   0.88483   0.14108   0.00000  Uiso   1.00
H295   H     0.61506   0.94300   0.18205   0.00000  Uiso   1.00
H296   H     0.65839   0.89967   0.18797   0.00000  Uiso   1.00
H297   H     0.64086   0.91960   0.12649   0.00000  Uiso   1.00
H298   H     0.86748   0.63996   0.20308   0.00000  Uiso   1.00
H299   H     0.92285   0.62526   0.18240   0.00000  Uiso   1.00
H300   H     0.77755   0.87835   0.23926   0.00000  Uiso   1.00
H301   H     0.89338   0.57640   0.11445   0.00000  Uiso   1.00
H302   H     0.87073   0.55793   0.17391   0.00000  Uiso   1.00
H303   H     0.83756   0.59224   0.13118   0.00000  Uiso   1.00
H304   H     0.91566   0.86357   0.13369   0.00000  Uiso   1.00
H305   H     0.93276   0.88445   0.19507   0.00000  Uiso   1.00
H306   H     0.88559   0.94234   0.15224   0.00000  Uiso   1.00
H307   H     0.84207   0.89921   0.14627   0.00000  Uiso   1.00
H308   H     0.85892   0.91991   0.20772   0.00000  Uiso   1.00
H309   H     0.63116   0.64101   0.12978   0.00000  Uiso   1.00
H310   H     0.57627   0.62622   0.15200   0.00000  Uiso   1.00
H311   H     0.75464   0.62135   0.24557   0.00000  Uiso   1.00
H312   H     0.60732   0.57558   0.21763   0.00000  Uiso   1.00
H313   H     0.62784   0.55827   0.15683   0.00000  Uiso   1.00
H314   H     0.66274   0.59123   0.19900   0.00000  Uiso   1.00
H315   H     0.72243   0.87834   0.09409   0.00000  Uiso   1.00
H316   H     0.52702   0.81748   0.13774   0.00000  Uiso   1.00
H317   H     0.97093   0.67851   0.13824   0.00000  Uiso   1.00
H318   H     0.97199   0.81695   0.20258   0.00000  Uiso   1.00
H319   H     0.52989   0.67841   0.20040   0.00000  Uiso   1.00
H320   H     0.74730   0.53559   0.08572   0.00000  Uiso   1.00
N321   N     0.75000   0.62624   0.16667   0.00000  Uiso   1.00
N322   N     0.75000   0.87377   0.16667   0.00000  Uiso   1.00
O323   O     0.68453   0.78974   0.16667   0.00000  Uiso   1.00
O324   O     0.88550   0.66912   0.13474   0.00000  Uiso   1.00
O325   O     0.88535   0.83134   0.19605   0.00000  Uiso   1.00
O326   O     0.61528   0.66862   0.19950   0.00000  Uiso   1.00
O327   O     0.81547   0.71026   0.16666   0.00000  Uiso   1.00
O328   O     0.81547   0.78974   0.16666   0.00000  Uiso   1.00
O329   O     0.68453   0.71026   0.16667   0.00000  Uiso   1.00
O330   O     0.75000   0.78973   0.09511   0.00000  Uiso   1.00
O331   O     0.75000   0.71027   0.23822   0.00000  Uiso   1.00
O332   O     0.75000   0.78973   0.23822   0.00000  Uiso   1.00
O333   O     0.75000   0.71027   0.09511   0.00000  Uiso   1.00
O334   O     0.61399   0.83146   0.13986   0.00000  Uiso   1.00
Zn335  Zn    0.75000   0.80307   0.16667   0.00000  Uiso   1.00
Zn336  Zn    0.75000   0.69693   0.16667   0.00000  Uiso   1.00
C337   C     0.16377   0.24995   0.50035   0.00000  Uiso   1.00
C338   C     0.23417   0.44714   0.45871   0.00000  Uiso   1.00
C339   C     0.24999   0.25000   0.40619   0.00000  Uiso   1.00
C340   C     0.25001   0.25000   0.59381   0.00000  Uiso   1.00
C341   C     0.25001   0.02669   0.50001   0.00000  Uiso   1.00
C342   C     0.25000   0.47322   0.50001   0.00000  Uiso   1.00
C343   C     0.25000   0.25000   0.35512   0.00000  Uiso   1.00
C344   C     0.25001   0.25000   0.64488   0.00000  Uiso   1.00
C345   C     0.04586   0.28810   0.48566   0.00000  Uiso   1.00
C346   C     0.45322   0.20873   0.48618   0.00000  Uiso   1.00
C347   C     0.45360   0.28764   0.52044   0.00000  Uiso   1.00
C348   C     0.33623   0.24997   0.49991   0.00000  Uiso   1.00
C349   C     0.04718   0.20886   0.51900   0.00000  Uiso   1.00
C350   C     0.09182   0.29062   0.48763   0.00000  Uiso   1.00
C351   C     0.40740   0.20820   0.48681   0.00000  Uiso   1.00
C352   C     0.40779   0.29038   0.51608   0.00000  Uiso   1.00
C353   C     0.09293   0.20817   0.51604   0.00000  Uiso   1.00
C354   C     0.11562   0.24961   0.50124   0.00000  Uiso   1.00
C355   C     0.38436   0.24962   0.50082   0.00000  Uiso   1.00
C356   C     0.02385   0.24817   0.50282   0.00000  Uiso   1.00
C357   C     0.47609   0.24786   0.50377   0.00000  Uiso   1.00
C358   C     0.09554   0.37180   0.49652   0.00000  Uiso   1.00
C359   C     0.24727   0.10224   0.45598   0.00000  Uiso   1.00
C360   C     0.12973   0.41094   0.49830   0.00000  Uiso   1.00
C361   C     0.38829   0.13191   0.50316   0.00000  Uiso   1.00
C362   C     0.37140   0.08678   0.47917   0.00000  Uiso   1.00
C363   C     0.40441   0.37131   0.50592   0.00000  Uiso   1.00
C364   C     0.37049   0.41063   0.50292   0.00000  Uiso   1.00
C365   C     0.11122   0.13230   0.49686   0.00000  Uiso   1.00
C366   C     0.12839   0.08646   0.51897   0.00000  Uiso   1.00
C367   C     0.26508   0.39766   0.54071   0.00000  Uiso   1.00
C368   C     0.25274   0.10225   0.54402   0.00000  Uiso   1.00
C369   C     0.23490   0.39765   0.45930   0.00000  Uiso   1.00
C370   C     0.24782   0.05276   0.45509   0.00000  Uiso   1.00
C371   C     0.26580   0.44715   0.54130   0.00000  Uiso   1.00
C372   C     0.25219   0.05277   0.54492   0.00000  Uiso   1.00
H373   H     0.24537   0.12134   0.42110   0.00000  Uiso   1.00
H374   H     0.27969   0.46432   0.57375   0.00000  Uiso   1.00
H375   H     0.25272   0.03560   0.58096   0.00000  Uiso   1.00
H376   H     0.22028   0.46430   0.42627   0.00000  Uiso   1.00
H377   H     0.08487   0.36458   0.53574   0.00000  Uiso   1.00
H378   H     0.06692   0.38483   0.47442   0.00000  Uiso   1.00
H379   H     0.11506   0.44300   0.51538   0.00000  Uiso   1.00
H380   H     0.15839   0.39967   0.52131   0.00000  Uiso   1.00
H381   H     0.14086   0.41960   0.45983   0.00000  Uiso   1.00
H382   H     0.36748   0.13996   0.53641   0.00000  Uiso   1.00
H383   H     0.42285   0.12526   0.51574   0.00000  Uiso   1.00
H384   H     0.27755   0.37835   0.57259   0.00000  Uiso   1.00
H385   H     0.39338   0.07640   0.44779   0.00000  Uiso   1.00
H386   H     0.37073   0.05793   0.50724   0.00000  Uiso   1.00
H387   H     0.33756   0.09224   0.46451   0.00000  Uiso   1.00
H388   H     0.41566   0.36357   0.46702   0.00000  Uiso   1.00
H389   H     0.43276   0.38445   0.52841   0.00000  Uiso   1.00
H390   H     0.38559   0.44234   0.48557   0.00000  Uiso   1.00
H391   H     0.34207   0.39921   0.47961   0.00000  Uiso   1.00
H392   H     0.35892   0.41991   0.54105   0.00000  Uiso   1.00
H393   H     0.13116   0.14101   0.46311   0.00000  Uiso   1.00
H394   H     0.07627   0.12622   0.48533   0.00000  Uiso   1.00
H395   H     0.25464   0.12135   0.57890   0.00000  Uiso   1.00
H396   H     0.10732   0.07558   0.55097   0.00000  Uiso   1.00
H397   H     0.12784   0.05827   0.49016   0.00000  Uiso   1.00
H398   H     0.16274   0.09123   0.53233   0.00000  Uiso   1.00
H399   H     0.22243   0.37834   0.42742   0.00000  Uiso   1.00
H400   H     0.02702   0.31748   0.47107   0.00000  Uiso   1.00
H401   H     0.47093   0.17851   0.47158   0.00000  Uiso   1.00
H402   H     0.47199   0.31695   0.53592   0.00000  Uiso   1.00
H403   H     0.02989   0.17841   0.53373   0.00000  Uiso   1.00
H404   H     0.24730   0.03559   0.41905   0.00000  Uiso   1.00
N405   N     0.25000   0.12624   0.50000   0.00000  Uiso   1.00
N406   N     0.25000   0.37377   0.50000   0.00000  Uiso   1.00
O407   O     0.18453   0.28974   0.50000   0.00000  Uiso   1.00
O408   O     0.38550   0.16912   0.46807   0.00000  Uiso   1.00
O409   O     0.38535   0.33134   0.52939   0.00000  Uiso   1.00
O410   O     0.11528   0.16862   0.53283   0.00000  Uiso   1.00
O411   O     0.31547   0.21026   0.50000   0.00000  Uiso   1.00
O412   O     0.31547   0.28974   0.50000   0.00000  Uiso   1.00
O413   O     0.18453   0.21026   0.50000   0.00000  Uiso   1.00
O414   O     0.25000   0.28973   0.42845   0.00000  Uiso   1.00
O415   O     0.25000   0.21027   0.57155   0.00000  Uiso   1.00
O416   O     0.25000   0.28973   0.57155   0.00000  Uiso   1.00
O417   O     0.25000   0.21027   0.42845   0.00000  Uiso   1.00
O418   O     0.11399   0.33146   0.47320   0.00000  Uiso   1.00
Zn419  Zn    0.25000   0.30307   0.50000   0.00000  Uiso   1.00
Zn420  Zn    0.25000   0.19693   0.50000   0.00000  Uiso   1.00
C421   C     0.66377   0.24995   0.50035   0.00000  Uiso   1.00
C422   C     0.73417   0.44714   0.45871   0.00000  Uiso   1.00
C423   C     0.74999   0.25000   0.40619   0.00000  Uiso   1.00
C424   C     0.75001   0.25000   0.59381   0.00000  Uiso   1.00
C425   C     0.75001   0.02669   0.50001   0.00000  Uiso   1.00
C426   C     0.75000   0.47322   0.50001   0.00000  Uiso   1.00
C427   C     0.75000   0.25000   0.35512   0.00000  Uiso   1.00
C428   C     0.75001   0.25000   0.64488   0.00000  Uiso   1.00
C429   C     0.54586   0.28810   0.48566   0.00000  Uiso   1.00
C430   C     0.95322   0.20873   0.48618   0.00000  Uiso   1.00
C431   C     0.95360   0.28764   0.52044   0.00000  Uiso   1.00
C432   C     0.83623   0.24997   0.49991   0.00000  Uiso   1.00
C433   C     0.54718   0.20886   0.51900   0.00000  Uiso   1.00
C434   C     0.59182   0.29062   0.48763   0.00000  Uiso   1.00
C435   C     0.90740   0.20820   0.48681   0.00000  Uiso   1.00
C436   C     0.90779   0.29038   0.51608   0.00000  Uiso   1.00
C437   C     0.59293   0.20817   0.51604   0.00000  Uiso   1.00
C438   C     0.61562   0.24961   0.50124   0.00000  Uiso   1.00
C439   C     0.88436   0.24962   0.50082   0.00000  Uiso   1.00
C440   C     0.52385   0.24817   0.50282   0.00000  Uiso   1.00
C441   C     0.97609   0.24786   0.50377   0.00000  Uiso   1.00
C442   C     0.59554   0.37180   0.49652   0.00000  Uiso   1.00
C443   C     0.74727   0.10224   0.45598   0.00000  Uiso   1.00
C444   C     0.62973   0.41094   0.49830   0.00000  Uiso   1.00
C445   C     0.88829   0.13191   0.50316   0.00000  Uiso   1.00
C446   C     0.87140   0.08678   0.47917   0.00000  Uiso   1.00
C447   C     0.90441   0.37131   0.50592   0.00000  Uiso   1.00
C448   C     0.87049   0.41063   0.50292   0.00000  Uiso   1.00
C449   C     0.61122   0.13230   0.49686   0.00000  Uiso   1.00
C450   C     0.62839   0.08646   0.51897   0.00000  Uiso   1.00
C451   C     0.76508   0.39766   0.54071   0.00000  Uiso   1.00
C452   C     0.75274   0.10225   0.54402   0.00000  Uiso   1.00
C453   C     0.73490   0.39765   0.45930   0.00000  Uiso   1.00
C454   C     0.74782   0.05276   0.45509   0.00000  Uiso   1.00
C455   C     0.76580   0.44715   0.54130   0.00000  Uiso   1.00
C456   C     0.75219   0.05277   0.54492   0.00000  Uiso   1.00
H457   H     0.74537   0.12134   0.42110   0.00000  Uiso   1.00
H458   H     0.77969   0.46432   0.57375   0.00000  Uiso   1.00
H459   H     0.75272   0.03560   0.58096   0.00000  Uiso   1.00
H460   H     0.72028   0.46430   0.42627   0.00000  Uiso   1.00
H461   H     0.58487   0.36458   0.53574   0.00000  Uiso   1.00
H462   H     0.56692   0.38483   0.47442   0.00000  Uiso   1.00
H463   H     0.61506   0.44300   0.51538   0.00000  Uiso   1.00
H464   H     0.65839   0.39967   0.52131   0.00000  Uiso   1.00
H465   H     0.64086   0.41960   0.45983   0.00000  Uiso   1.00
H466   H     0.86748   0.13996   0.53641   0.00000  Uiso   1.00
H467   H     0.92285   0.12526   0.51574   0.00000  Uiso   1.00
H468   H     0.77755   0.37835   0.57259   0.00000  Uiso   1.00
H469   H     0.89338   0.07640   0.44779   0.00000  Uiso   1.00
H470   H     0.87073   0.05793   0.50724   0.00000  Uiso   1.00
H471   H     0.83756   0.09224   0.46451   0.00000  Uiso   1.00
H472   H     0.91566   0.36357   0.46702   0.00000  Uiso   1.00
H473   H     0.93276   0.38445   0.52841   0.00000  Uiso   1.00
H474   H     0.88559   0.44234   0.48557   0.00000  Uiso   1.00
H475   H     0.84207   0.39921   0.47961   0.00000  Uiso   1.00
H476   H     0.85892   0.41991   0.54105   0.00000  Uiso   1.00
H477   H     0.63116   0.14101   0.46311   0.00000  Uiso   1.00
H478   H     0.57627   0.12622   0.48533   0.00000  Uiso   1.00
H479   H     0.75464   0.12135   0.57890   0.00000  Uiso   1.00
H480   H     0.60732   0.07558   0.55097   0.00000  Uiso   1.00
H481   H     0.62784   0.05827   0.49016   0.00000  Uiso   1.00
H482   H     0.66274   0.09123   0.53233   0.00000  Uiso   1.00
H483   H     0.72243   0.37834   0.42742   0.00000  Uiso   1.00
H484   H     0.52702   0.31748   0.47107   0.00000  Uiso   1.00
H485   H     0.97093   0.17851   0.47158   0.00000  Uiso   1.00
H486   H     0.97199   0.31695   0.53592   0.00000  Uiso   1.00
H487   H     0.52989   0.17841   0.53373   0.00000  Uiso   1.00
H488   H     0.74730   0.03559   0.41905   0.00000  Uiso   1.00
N489   N     0.75000   0.12624   0.50000   0.00000  Uiso   1.00
N490   N     0.75000   0.37377   0.50000   0.00000  Uiso   1.00
O491   O     0.68453   0.28974   0.50000   0.00000  Uiso   1.00
O492   O     0.88550   0.16912   0.46807   0.00000  Uiso   1.00
O493   O     0.88535   0.33134   0.52939   0.00000  Uiso   1.00
O494   O     0.61528   0.16862   0.53283   0.00000  Uiso   1.00
O495   O     0.81547   0.21026   0.50000   0.00000  Uiso   1.00
O496   O     0.81547   0.28974   0.50000   0.00000  Uiso   1.00
O497   O     0.68453   0.21026   0.50000   0.00000  Uiso   1.00
O498   O     0.75000   0.28973   0.42845   0.00000  Uiso   1.00
O499   O     0.75000   0.21027   0.57155   0.00000  Uiso   1.00
O500   O     0.75000   0.28973   0.57155   0.00000  Uiso   1.00
O501   O     0.75000   0.21027   0.42845   0.00000  Uiso   1.00
O502   O     0.61399   0.33146   0.47320   0.00000  Uiso   1.00
Zn503  Zn    0.75000   0.30307   0.50000   0.00000  Uiso   1.00
Zn504  Zn    0.75000   0.19693   0.50000   0.00000  Uiso   1.00
C505   C     0.16377   0.74995   0.50035   0.00000  Uiso   1.00
C506   C     0.23417   0.94714   0.45871   0.00000  Uiso   1.00
C507   C     0.24999   0.75000   0.40619   0.00000  Uiso   1.00
C508   C     0.25001   0.75000   0.59381   0.00000  Uiso   1.00
C509   C     0.25001   0.52669   0.50001   0.00000  Uiso   1.00
C510   C     0.25000   0.97322   0.50001   0.00000  Uiso   1.00
C511   C     0.25000   0.75000   0.35512   0.00000  Uiso   1.00
C512   C     0.25001   0.75000   0.64488   0.00000  Uiso   1.00
C513   C     0.04586   0.78810   0.48566   0.00000  Uiso   1.00
C514   C     0.45322   0.70873   0.48618   0.00000  Uiso   1.00
C515   C     0.45360   0.78764   0.52044   0.00000  Uiso   1.00
C516   C     0.33623   0.74997   0.49991   0.00000  Uiso   1.00
C517   C     0.04718   0.70886   0.51900   0.00000  Uiso   1.00
C518   C     0.09182   0.79062   0.48763   0.00000  Uiso   1.00
C519   C     0.40740   0.70820   0.48681   0.00000  Uiso   1.00
C520   C     0.40779   0.79038   0.51608   0.00000  Uiso   1.00
C521   C     0.09293   0.70817   0.51604   0.00000  Uiso   1.00
C522   C     0.11562   0.74961   0.50124   0.00000  Uiso   1.00
C523   C     0.38436   0.74962   0.50082   0.00000  Uiso   1.00
C524   C     0.02385   0.74817   0.50282   0.00000  Uiso   1.00
C525   C     0.47609   0.74786   0.50377   0.00000  Uiso   1.00
C526   C     0.09554   0.87180   0.49652   0.00000  Uiso   1.00
C527   C     0.24727   0.60224   0.45598   0.00000  Uiso   1.00
C528   C     0.12973   0.91094   0.49830   0.00000  Uiso   1.00
C529   C     0.38829   0.63191   0.50316   0.00000  Uiso   1.00
C530   C     0.37140   0.58678   0.47917   0.00000  Uiso   1.00
C531   C     0.40441   0.87131   0.50592   0.00000  Uiso   1.00
C532   C     0.37049   0.91063   0.50292   0.00000  Uiso   1.00
C533   C     0.11122   0.63230   0.49686   0.00000  Uiso   1.00
C534   C     0.12839   0.58646   0.51897   0.00000  Uiso   1.00
C535   C     0.26508   0.89766   0.54071   0.00000  Uiso   1.00
C536   C     0.25274   0.60225   0.54402   0.00000  Uiso   1.00
C537   C     0.23490   0.89765   0.45930   0.00000  Uiso   1.00
C538   C     0.24782   0.55276   0.45509   0.00000  Uiso   1.00
C539   C     0.26580   0.94715   0.54130   0.00000  Uiso   1.00
C540   C     0.25219   0.55277   0.54492   0.00000  Uiso   1.00
H541   H     0.24537   0.62134   0.42110   0.00000  Uiso   1.00
H542   H     0.27969   0.96432   0.57375   0.00000  Uiso   1.00
H543   H     0.25272   0.53560   0.58096   0.00000  Uiso   1.00
H544   H     0.22028   0.96430   0.42627   0.00000  Uiso   1.00
H545   H     0.08487   0.86458   0.53574   0.00000  Uiso   1.00
H546   H     0.06692   0.88483   0.47442   0.00000  Uiso   1.00
H547   H     0.11506   0.94300   0.51538   0.00000  Uiso   1.00
H548   H     0.15839   0.89967   0.52131   0.00000  Uiso   1.00
H549   H     0.14086   0.91960   0.45983   0.00000  Uiso   1.00
H550   H     0.36748   0.63996   0.53641   0.00000  Uiso   1.00
H551   H     0.42285   0.62526   0.51574   0.00000  Uiso   1.00
H552   H     0.27755   0.87835   0.57259   0.00000  Uiso   1.00
H553   H     0.39338   0.57640   0.44779   0.00000  Uiso   1.00
H554   H     0.37073   0.55793   0.50724   0.00000  Uiso   1.00
H555   H     0.33756   0.59224   0.46451   0.00000  Uiso   1.00
H556   H     0.41566   0.86357   0.46702   0.00000  Uiso   1.00
H557   H     0.43276   0.88445   0.52841   0.00000  Uiso   1.00
H558   H     0.38559   0.94234   0.48557   0.00000  Uiso   1.00
H559   H     0.34207   0.89921   0.47961   0.00000  Uiso   1.00
H560   H     0.35892   0.91991   0.54105   0.00000  Uiso   1.00
H561   H     0.13116   0.64101   0.46311   0.00000  Uiso   1.00
H562   H     0.07627   0.62622   0.48533   0.00000  Uiso   1.00
H563   H     0.25464   0.62135   0.57890   0.00000  Uiso   1.00
H564   H     0.10732   0.57558   0.55097   0.00000  Uiso   1.00
H565   H     0.12784   0.55827   0.49016   0.00000  Uiso   1.00
H566   H     0.16274   0.59123   0.53233   0.00000  Uiso   1.00
H567   H     0.22243   0.87834   0.42742   0.00000  Uiso   1.00
H568   H     0.02702   0.81748   0.47107   0.00000  Uiso   1.00
H569   H     0.47093   0.67851   0.47158   0.00000  Uiso   1.00
H570   H     0.47199   0.81695   0.53592   0.00000  Uiso   1.00
H571   H     0.02989   0.67841   0.53373   0.00000  Uiso   1.00
H572   H     0.24730   0.53559   0.41905   0.00000  Uiso   1.00
N573   N     0.25000   0.62624   0.50000   0.00000  Uiso   1.00
N574   N     0.25000   0.87377   0.50000   0.00000  Uiso   1.00
O575   O     0.18453   0.78974   0.50000   0.00000  Uiso   1.00
O576   O     0.38550   0.66912   0.46807   0.00000  Uiso   1.00
O577   O     0.38535   0.83134   0.52939   0.00000  Uiso   1.00
O578   O     0.11528   0.66862   0.53283   0.00000  Uiso   1.00
O579   O     0.31547   0.71026   0.50000   0.00000  Uiso   1.00
O580   O     0.31547   0.78974   0.50000   0.00000  Uiso   1.00
O581   O     0.18453   0.71026   0.50000   0.00000  Uiso   1.00
O582   O     0.25000   0.78973   0.42845   0.00000  Uiso   1.00
O583   O     0.25000   0.71027   0.57155   0.00000  Uiso   1.00
O584   O     0.25000   0.78973   0.57155   0.00000  Uiso   1.00
O585   O     0.25000   0.71027   0.42845   0.00000  Uiso   1.00
O586   O     0.11399   0.83146   0.47320   0.00000  Uiso   1.00
Zn587  Zn    0.25000   0.80307   0.50000   0.00000  Uiso   1.00
Zn588  Zn    0.25000   0.69693   0.50000   0.00000  Uiso   1.00
C589   C     0.66377   0.74995   0.50035   0.00000  Uiso   1.00
C590   C     0.73417   0.94714   0.45871   0.00000  Uiso   1.00
C591   C     0.74999   0.75000   0.40619   0.00000  Uiso   1.00
C592   C     0.75001   0.75000   0.59381   0.00000  Uiso   1.00
C593   C     0.75001   0.52669   0.50001   0.00000  Uiso   1.00
C594   C     0.75000   0.97322   0.50001   0.00000  Uiso   1.00
C595   C     0.75000   0.75000   0.35512   0.00000  Uiso   1.00
C596   C     0.75001   0.75000   0.64488   0.00000  Uiso   1.00
C597   C     0.54586   0.78810   0.48566   0.00000  Uiso   1.00
C598   C     0.95322   0.70873   0.48618   0.00000  Uiso   1.00
C599   C     0.95360   0.78764   0.52044   0.00000  Uiso   1.00
C600   C     0.83623   0.74997   0.49991   0.00000  Uiso   1.00
C601   C     0.54718   0.70886   0.51900   0.00000  Uiso   1.00
C602   C     0.59182   0.79062   0.48763   0.00000  Uiso   1.00
C603   C     0.90740   0.70820   0.48681   0.00000  Uiso   1.00
C604   C     0.90779   0.79038   0.51608   0.00000  Uiso   1.00
C605   C     0.59293   0.70817   0.51604   0.00000  Uiso   1.00
C606   C     0.61562   0.74961   0.50124   0.00000  Uiso   1.00
C607   C     0.88436   0.74962   0.50082   0.00000  Uiso   1.00
C608   C     0.52385   0.74817   0.50282   0.00000  Uiso   1.00
C609   C     0.97609   0.74786   0.50377   0.00000  Uiso   1.00
C610   C     0.59554   0.87180   0.49652   0.00000  Uiso   1.00
C611   C     0.74727   0.60224   0.45598   0.00000  Uiso   1.00
C612   C     0.62973   0.91094   0.49830   0.00000  Uiso   1.00
C613   C     0.88829   0.63191   0.50316   0.00000  Uiso   1.00
C614   C     0.87140   0.58678   0.47917   0.00000  Uiso   1.00
C615   C     0.90441   0.87131   0.50592   0.00000  Uiso   1.00
C616   C     0.87049   0.91063   0.50292   0.00000  Uiso   1.00
C617   C     0.61122   0.63230   0.49686   0.00000  Uiso   1.00
C618   C     0.62839   0.58646   0.51897   0.00000  Uiso   1.00
C619   C     0.76508   0.89766   0.54071   0.00000  Uiso   1.00
C620   C     0.75274   0.60225   0.54402   0.00000  Uiso   1.00
C621   C     0.73490   0.89765   0.45930   0.00000  Uiso   1.00
C622   C     0.74782   0.55276   0.45509   0.00000  Uiso   1.00
C623   C     0.76580   0.94715   0.54130   0.00000  Uiso   1.00
C624   C     0.75219   0.55277   0.54492   0.00000  Uiso   1.00
H625   H     0.74537   0.62134   0.42110   0.00000  Uiso   1.00
H626   H     0.77969   0.96432   0.57375   0.00000  Uiso   1.00
H627   H     0.75272   0.53560   0.58096   0.00000  Uiso   1.00
H628   H     0.72028   0.96430   0.42627   0.00000  Uiso   1.00
H629   H     0.58487   0.86458   0.53574   0.00000  Uiso   1.00
H630   H     0.56692   0.88483   0.47442   0.00000  Uiso   1.00
H631   H     0.61506   0.94300   0.51538   0.00000  Uiso   1.00
H632   H     0.65839   0.89967   0.52131   0.00000  Uiso   1.00
H633   H     0.64086   0.91960   0.45983   0.00000  Uiso   1.00
H634   H     0.86748   0.63996   0.53641   0.00000  Uiso   1.00
H635   H     0.92285   0.62526   0.51574   0.00000  Uiso   1.00
H636   H     0.77755   0.87835   0.57259   0.00000  Uiso   1.00
H637   H     0.89338   0.57640   0.44779   0.00000  Uiso   1.00
H638   H     0.87073   0.55793   0.50724   0.00000  Uiso   1.00
H639   H     0.83756   0.59224   0.46451   0.00000  Uiso   1.00
H640   H     0.91566   0.86357   0.46702   0.00000  Uiso   1.00
H641   H     0.93276   0.88445   0.52841   0.00000  Uiso   1.00
H642   H     0.88559   0.94234   0.48557   0.00000  Uiso   1.00
H643   H     0.84207   0.89921   0.47961   0.00000  Uiso   1.00
H644   H     0.85892   0.91991   0.54105   0.00000  Uiso   1.00
H645   H     0.63116   0.64101   0.46311   0.00000  Uiso   1.00
H646   H     0.57627   0.62622   0.48533   0.00000  Uiso   1.00
H647   H     0.75464   0.62135   0.57890   0.00000  Uiso   1.00
H648   H     0.60732   0.57558   0.55097   0.00000  Uiso   1.00
H649   H     0.62784   0.55827   0.49016   0.00000  Uiso   1.00
H650   H     0.66274   0.59123   0.53233   0.00000  Uiso   1.00
H651   H     0.72243   0.87834   0.42742   0.00000  Uiso   1.00
H652   H     0.52702   0.81748   0.47107   0.00000  Uiso   1.00
H653   H     0.97093   0.67851   0.47158   0.00000  Uiso   1.00
H654   H     0.97199   0.81695   0.53592   0.00000  Uiso   1.00
H655   H     0.52989   0.67841   0.53373   0.00000  Uiso   1.00
H656   H     0.74730   0.53559   0.41905   0.00000  Uiso   1.00
N657   N     0.75000   0.62624   0.50000   0.00000  Uiso   1.00
N658   N     0.75000   0.87377   0.50000   0.00000  Uiso   1.00
O659   O     0.68453   0.78974   0.50000   0.00000  Uiso   1.00
O660   O     0.88550   0.66912   0.46807   0.00000  Uiso   1.00
O661   O     0.88535   0.83134   0.52939   0.00000  Uiso   1.00
O662   O     0.61528   0.66862   0.53283   0.00000  Uiso   1.00
O663   O     0.81547   0.71026   0.50000   0.00000  Uiso   1.00
O664   O     0.81547   0.78974   0.50000   0.00000  Uiso   1.00
O665   O     0.68453   0.71026   0.50000   0.00000  Uiso   1.00
O666   O     0.75000   0.78973   0.42845   0.00000  Uiso   1.00
O667   O     0.75000   0.71027   0.57155   0.00000  Uiso   1.00
O668   O     0.75000   0.78973   0.57155   0.00000  Uiso   1.00
O669   O     0.75000   0.71027   0.42845   0.00000  Uiso   1.00
O670   O     0.61399   0.83146   0.47320   0.00000  Uiso   1.00
Zn671  Zn    0.75000   0.80307   0.50000   0.00000  Uiso   1.00
Zn672  Zn    0.75000   0.69693   0.50000   0.00000  Uiso   1.00
C673   C     0.16377   0.24995   0.83368   0.00000  Uiso   1.00
C674   C     0.23417   0.44714   0.79205   0.00000  Uiso   1.00
C675   C     0.24999   0.25000   0.73952   0.00000  Uiso   1.00
C676   C     0.25001   0.25000   0.92714   0.00000  Uiso   1.00
C677   C     0.25001   0.02669   0.83334   0.00000  Uiso   1.00
C678   C     0.25000   0.47322   0.83334   0.00000  Uiso   1.00
C679   C     0.25000   0.25000   0.68845   0.00000  Uiso   1.00
C680   C     0.25001   0.25000   0.97821   0.00000  Uiso   1.00
C681   C     0.04586   0.28810   0.81899   0.00000  Uiso   1.00
C682   C     0.45322   0.20873   0.81951   0.00000  Uiso   1.00
C683   C     0.45360   0.28764   0.85377   0.00000  Uiso   1.00
C684   C     0.33623   0.24997   0.83325   0.00000  Uiso   1.00
C685   C     0.04718   0.20886   0.85233   0.00000  Uiso   1.00
C686   C     0.09182   0.29062   0.82096   0.00000  Uiso   1.00
C687   C     0.40740   0.20820   0.82014   0.00000  Uiso   1.00
C688   C     0.40779   0.29038   0.84942   0.00000  Uiso   1.00
C689   C     0.09293   0.20817   0.84937   0.00000  Uiso   1.00
C690   C     0.11562   0.24961   0.83457   0.00000  Uiso   1.00
C691   C     0.38436   0.24962   0.83415   0.00000  Uiso   1.00
C692   C     0.02385   0.24817   0.83616   0.00000  Uiso   1.00
C693   C     0.47609   0.24786   0.83711   0.00000  Uiso   1.00
C694   C     0.09554   0.37180   0.82985   0.00000  Uiso   1.00
C695   C     0.24727   0.10224   0.78932   0.00000  Uiso   1.00
C696   C     0.12973   0.41094   0.83163   0.00000  Uiso   1.00
C697   C     0.38829   0.13191   0.83649   0.00000  Uiso   1.00
C698   C     0.37140   0.08678   0.81250   0.00000  Uiso   1.00
C699   C     0.40441   0.37131   0.83926   0.00000  Uiso   1.00
C700   C     0.37049   0.41063   0.83625   0.00000  Uiso   1.00
C701   C     0.11122   0.13230   0.83019   0.00000  Uiso   1.00
C702   C     0.12839   0.08646   0.85231   0.00000  Uiso   1.00
C703   C     0.26508   0.39766   0.87404   0.00000  Uiso   1.00
C704   C     0.25274   0.10225   0.87735   0.00000  Uiso   1.00
C705   C     0.23490   0.39765   0.79264   0.00000  Uiso   1.00
C706   C     0.24782   0.05276   0.78842   0.00000  Uiso   1.00
C707   C     0.26580   0.44715   0.87464   0.00000  Uiso   1.00
C708   C     0.25219   0.05277   0.87825   0.00000  Uiso   1.00
H709   H     0.24537   0.12134   0.75443   0.00000  Uiso   1.00
H710   H     0.27969   0.46432   0.90709   0.00000  Uiso   1.00
H711   H     0.25272   0.03560   0.91429   0.00000  Uiso   1.00
H712   H     0.22028   0.46430   0.75960   0.00000  Uiso   1.00
H713   H     0.08487   0.36458   0.86908   0.00000  Uiso   1.00
H714   H     0.06692   0.38483   0.80775   0.00000  Uiso   1.00
H715   H     0.11506   0.44300   0.84872   0.00000  Uiso   1.00
H716   H     0.15839   0.39967   0.85464   0.00000  Uiso   1.00
H717   H     0.14086   0.41960   0.79316   0.00000  Uiso   1.00
H718   H     0.36748   0.13996   0.86974   0.00000  Uiso   1.00
H719   H     0.42285   0.12526   0.84907   0.00000  Uiso   1.00
H720   H     0.27755   0.37835   0.90592   0.00000  Uiso   1.00
H721   H     0.39338   0.07640   0.78112   0.00000  Uiso   1.00
H722   H     0.37073   0.05793   0.84057   0.00000  Uiso   1.00
H723   H     0.33756   0.09224   0.79785   0.00000  Uiso   1.00
H724   H     0.41566   0.36357   0.80036   0.00000  Uiso   1.00
H725   H     0.43276   0.38445   0.86174   0.00000  Uiso   1.00
H726   H     0.38559   0.44234   0.81890   0.00000  Uiso   1.00
H727   H     0.34207   0.39921   0.81294   0.00000  Uiso   1.00
H728   H     0.35892   0.41991   0.87439   0.00000  Uiso   1.00
H729   H     0.13116   0.14101   0.79645   0.00000  Uiso   1.00
H730   H     0.07627   0.12622   0.81866   0.00000  Uiso   1.00
H731   H     0.25464   0.12135   0.91223   0.00000  Uiso   1.00
H732   H     0.10732   0.07558   0.88430   0.00000  Uiso   1.00
H733   H     0.12784   0.05827   0.82349   0.00000  Uiso   1.00
H734   H     0.16274   0.09123   0.86566   0.00000  Uiso   1.00
H735   H     0.22243   0.37834   0.76075   0.00000  Uiso   1.00
H736   H     0.02702   0.31748   0.80440   0.00000  Uiso   1.00
H737   H     0.47093   0.17851   0.80491   0.00000  Uiso   1.00
H738   H     0.47199   0.31695   0.86925   0.00000  Uiso   1.00
H739   H     0.02989   0.17841   0.86706   0.00000  Uiso   1.00
H740   H     0.24730   0.03559   0.75239   0.00000  Uiso   1.00
N741   N     0.25000   0.12624   0.83333   0.00000  Uiso   1.00
N742   N     0.25000   0.37377   0.83333   0.00000  Uiso   1.00
O743   O     0.18453   0.28974   0.83334   0.00000  Uiso   1.00
O744   O     0.38550   0.16912   0.80140   0.00000  Uiso   1.00
O745   O     0.38535   0.33134   0.86272   0.00000  Uiso   1.00
O746   O     0.11528   0.16862   0.86616   0.00000  Uiso   1.00
O747   O     0.31547   0.21026   0.83333   0.00000  Uiso   1.00
O748   O     0.31547   0.28974   0.83333   0.00000  Uiso   1.00
O749   O     0.18453   0.21026   0.83334   0.00000  Uiso   1.00
O750   O     0.25000   0.28973   0.76178   0.00000  Uiso   1.00
O751   O     0.25000   0.21027   0.90489   0.00000  Uiso   1.00
O752   O     0.25000   0.28973   0.90489   0.00000  Uiso   1.00
O753   O     0.25000   0.21027   0.76178   0.00000  Uiso   1.00
O754   O     0.11399   0.33146   0.80653   0.00000  Uiso   1.00
Zn755  Zn    0.25000   0.30307   0.83333   0.00000  Uiso   1.00
Zn756  Zn    0.25000   0.19693   0.83333   0.00000  Uiso   1.00
C757   C     0.66377   0.24995   0.83368   0.00000  Uiso   1.00
C758   C     0.73417   0.44714   0.79205   0.00000  Uiso   1.00
C759   C     0.74999   0.25000   0.73952   0.00000  Uiso   1.00
C760   C     0.75001   0.25000   0.92714   0.00000  Uiso   1.00
C761   C     0.75001   0.02669   0.83334   0.00000  Uiso   1.00
C762   C     0.75000   0.47322   0.83334   0.00000  Uiso   1.00
C763   C     0.75000   0.25000   0.68845   0.00000  Uiso   1.00
C764   C     0.75001   0.25000   0.97821   0.00000  Uiso   1.00
C765   C     0.54586   0.28810   0.81899   0.00000  Uiso   1.00
C766   C     0.95322   0.20873   0.81951   0.00000  Uiso   1.00
C767   C     0.95360   0.28764   0.85377   0.00000  Uiso   1.00
C768   C     0.83623   0.24997   0.83325   0.00000  Uiso   1.00
C769   C     0.54718   0.20886   0.85233   0.00000  Uiso   1.00
C770   C     0.59182   0.29062   0.82096   0.00000  Uiso   1.00
C771   C     0.90740   0.20820   0.82014   0.00000  Uiso   1.00
C772   C     0.90779   0.29038   0.84942   0.00000  Uiso   1.00
C773   C     0.59293   0.20817   0.84937   0.00000  Uiso   1.00
C774   C     0.61562   0.24961   0.83457   0.00000  Uiso   1.00
C775   C     0.88436   0.24962   0.83415   0.00000  Uiso   1.00
C776   C     0.52385   0.24817   0.83616   0.00000  Uiso   1.00
C777   C     0.97609   0.24786   0.83711   0.00000  Uiso   1.00
C778   C     0.59554   0.37180   0.82985   0.00000  Uiso   1.00
C779   C     0.74727   0.10224   0.78932   0.00000  Uiso   1.00
C780   C     0.62973   0.41094   0.83163   0.00000  Uiso   1.00
C781   C     0.88829   0.13191   0.83649   0.00000  Uiso   1.00
C782   C     0.87140   0.08678   0.81250   0.00000  Uiso   1.00
C783   C     0.90441   0.37131   0.83926   0.00000  Uiso   1.00
C784   C     0.87049   0.41063   0.83625   0.00000  Uiso   1.00
C785   C     0.61122   0.13230   0.83019   0.00000  Uiso   1.00
C786   C     0.62839   0.08646   0.85231   0.00000  Uiso   1.00
C787   C     0.76508   0.39766   0.87404   0.00000  Uiso   1.00
C788   C     0.75274   0.10225   0.87735   0.00000  Uiso   1.00
C789   C     0.73490   0.39765   0.79264   0.00000  Uiso   1.00
C790   C     0.74782   0.05276   0.78842   0.00000  Uiso   1.00
C791   C     0.76580   0.44715   0.87464   0.00000  Uiso   1.00
C792   C     0.75219   0.05277   0.87825   0.00000  Uiso   1.00
H793   H     0.74537   0.12134   0.75443   0.00000  Uiso   1.00
H794   H     0.77969   0.46432   0.90709   0.00000  Uiso   1.00
H795   H     0.75272   0.03560   0.91429   0.00000  Uiso   1.00
H796   H     0.72028   0.46430   0.75960   0.00000  Uiso   1.00
H797   H     0.58487   0.36458   0.86908   0.00000  Uiso   1.00
H798   H     0.56692   0.38483   0.80775   0.00000  Uiso   1.00
H799   H     0.61506   0.44300   0.84872   0.00000  Uiso   1.00
H800   H     0.65839   0.39967   0.85464   0.00000  Uiso   1.00
H801   H     0.64086   0.41960   0.79316   0.00000  Uiso   1.00
H802   H     0.86748   0.13996   0.86974   0.00000  Uiso   1.00
H803   H     0.92285   0.12526   0.84907   0.00000  Uiso   1.00
H804   H     0.77755   0.37835   0.90592   0.00000  Uiso   1.00
H805   H     0.89338   0.07640   0.78112   0.00000  Uiso   1.00
H806   H     0.87073   0.05793   0.84057   0.00000  Uiso   1.00
H807   H     0.83756   0.09224   0.79785   0.00000  Uiso   1.00
H808   H     0.91566   0.36357   0.80036   0.00000  Uiso   1.00
H809   H     0.93276   0.38445   0.86174   0.00000  Uiso   1.00
H810   H     0.88559   0.44234   0.81890   0.00000  Uiso   1.00
H811   H     0.84207   0.39921   0.81294   0.00000  Uiso   1.00
H812   H     0.85892   0.41991   0.87439   0.00000  Uiso   1.00
H813   H     0.63116   0.14101   0.79645   0.00000  Uiso   1.00
H814   H     0.57627   0.12622   0.81866   0.00000  Uiso   1.00
H815   H     0.75464   0.12135   0.91223   0.00000  Uiso   1.00
H816   H     0.60732   0.07558   0.88430   0.00000  Uiso   1.00
H817   H     0.62784   0.05827   0.82349   0.00000  Uiso   1.00
H818   H     0.66274   0.09123   0.86566   0.00000  Uiso   1.00
H819   H     0.72243   0.37834   0.76075   0.00000  Uiso   1.00
H820   H     0.52702   0.31748   0.80440   0.00000  Uiso   1.00
H821   H     0.97093   0.17851   0.80491   0.00000  Uiso   1.00
H822   H     0.97199   0.31695   0.86925   0.00000  Uiso   1.00
H823   H     0.52989   0.17841   0.86706   0.00000  Uiso   1.00
H824   H     0.74730   0.03559   0.75239   0.00000  Uiso   1.00
N825   N     0.75000   0.12624   0.83333   0.00000  Uiso   1.00
N826   N     0.75000   0.37377   0.83333   0.00000  Uiso   1.00
O827   O     0.68453   0.28974   0.83334   0.00000  Uiso   1.00
O828   O     0.88550   0.16912   0.80140   0.00000  Uiso   1.00
O829   O     0.88535   0.33134   0.86272   0.00000  Uiso   1.00
O830   O     0.61528   0.16862   0.86616   0.00000  Uiso   1.00
O831   O     0.81547   0.21026   0.83333   0.00000  Uiso   1.00
O832   O     0.81547   0.28974   0.83333   0.00000  Uiso   1.00
O833   O     0.68453   0.21026   0.83334   0.00000  Uiso   1.00
O834   O     0.75000   0.28973   0.76178   0.00000  Uiso   1.00
O835   O     0.75000   0.21027   0.90489   0.00000  Uiso   1.00
O836   O     0.75000   0.28973   0.90489   0.00000  Uiso   1.00
O837   O     0.75000   0.21027   0.76178   0.00000  Uiso   1.00
O838   O     0.61399   0.33146   0.80653   0.00000  Uiso   1.00
Zn839  Zn    0.75000   0.30307   0.83333   0.00000  Uiso   1.00
Zn840  Zn    0.75000   0.19693   0.83333   0.00000  Uiso   1.00
C841   C     0.16377   0.74995   0.83368   0.00000  Uiso   1.00
C842   C     0.23417   0.94714   0.79205   0.00000  Uiso   1.00
C843   C     0.24999   0.75000   0.73952   0.00000  Uiso   1.00
C844   C     0.25001   0.75000   0.92714   0.00000  Uiso   1.00
C845   C     0.25001   0.52669   0.83334   0.00000  Uiso   1.00
C846   C     0.25000   0.97322   0.83334   0.00000  Uiso   1.00
C847   C     0.25000   0.75000   0.68845   0.00000  Uiso   1.00
C848   C     0.25001   0.75000   0.97821   0.00000  Uiso   1.00
C849   C     0.04586   0.78810   0.81899   0.00000  Uiso   1.00
C850   C     0.45322   0.70873   0.81951   0.00000  Uiso   1.00
C851   C     0.45360   0.78764   0.85377   0.00000  Uiso   1.00
C852   C     0.33623   0.74997   0.83325   0.00000  Uiso   1.00
C853   C     0.04718   0.70886   0.85233   0.00000  Uiso   1.00
C854   C     0.09182   0.79062   0.82096   0.00000  Uiso   1.00
C855   C     0.40740   0.70820   0.82014   0.00000  Uiso   1.00
C856   C     0.40779   0.79038   0.84942   0.00000  Uiso   1.00
C857   C     0.09293   0.70817   0.84937   0.00000  Uiso   1.00
C858   C     0.11562   0.74961   0.83457   0.00000  Uiso   1.00
C859   C     0.38436   0.74962   0.83415   0.00000  Uiso   1.00
C860   C     0.02385   0.74817   0.83616   0.00000  Uiso   1.00
C861   C     0.47609   0.74786   0.83711   0.00000  Uiso   1.00
C862   C     0.09554   0.87180   0.82985   0.00000  Uiso   1.00
C863   C     0.24727   0.60224   0.78932   0.00000  Uiso   1.00
C864   C     0.12973   0.91094   0.83163   0.00000  Uiso   1.00
C865   C     0.38829   0.63191   0.83649   0.00000  Uiso   1.00
C866   C     0.37140   0.58678   0.81250   0.00000  Uiso   1.00
C867   C     0.40441   0.87131   0.83926   0.00000  Uiso   1.00
C868   C     0.37049   0.91063   0.83625   0.00000  Uiso   1.00
C869   C     0.11122   0.63230   0.83019   0.00000  Uiso   1.00
C870   C     0.12839   0.58646   0.85231   0.00000  Uiso   1.00
C871   C     0.26508   0.89766   0.87404   0.00000  Uiso   1.00
C872   C     0.25274   0.60225   0.87735   0.00000  Uiso   1.00
C873   C     0.23490   0.89765   0.79264   0.00000  Uiso   1.00
C874   C     0.24782   0.55276   0.78842   0.00000  Uiso   1.00
C875   C     0.26580   0.94715   0.87464   0.00000  Uiso   1.00
C876   C     0.25219   0.55277   0.87825   0.00000  Uiso   1.00
H877   H     0.24537   0.62134   0.75443   0.00000  Uiso   1.00
H878   H     0.27969   0.96432   0.90709   0.00000  Uiso   1.00
H879   H     0.25272   0.53560   0.91429   0.00000  Uiso   1.00
H880   H     0.22028   0.96430   0.75960   0.00000  Uiso   1.00
H881   H     0.08487   0.86458   0.86908   0.00000  Uiso   1.00
H882   H     0.06692   0.88483   0.80775   0.00000  Uiso   1.00
H883   H     0.11506   0.94300   0.84872   0.00000  Uiso   1.00
H884   H     0.15839   0.89967   0.85464   0.00000  Uiso   1.00
H885   H     0.14086   0.91960   0.79316   0.00000  Uiso   1.00
H886   H     0.36748   0.63996   0.86974   0.00000  Uiso   1.00
H887   H     0.42285   0.62526   0.84907   0.00000  Uiso   1.00
H888   H     0.27755   0.87835   0.90592   0.00000  Uiso   1.00
H889   H     0.39338   0.57640   0.78112   0.00000  Uiso   1.00
H890   H     0.37073   0.55793   0.84057   0.00000  Uiso   1.00
H891   H     0.33756   0.59224   0.79785   0.00000  Uiso   1.00
H892   H     0.41566   0.86357   0.80036   0.00000  Uiso   1.00
H893   H     0.43276   0.88445   0.86174   0.00000  Uiso   1.00
H894   H     0.38559   0.94234   0.81890   0.00000  Uiso   1.00
H895   H     0.34207   0.89921   0.81294   0.00000  Uiso   1.00
H896   H     0.35892   0.91991   0.87439   0.00000  Uiso   1.00
H897   H     0.13116   0.64101   0.79645   0.00000  Uiso   1.00
H898   H     0.07627   0.62622   0.81866   0.00000  Uiso   1.00
H899   H     0.25464   0.62135   0.91223   0.00000  Uiso   1.00
H900   H     0.10732   0.57558   0.88430   0.00000  Uiso   1.00
H901   H     0.12784   0.55827   0.82349   0.00000  Uiso   1.00
H902   H     0.16274   0.59123   0.86566   0.00000  Uiso   1.00
H903   H     0.22243   0.87834   0.76075   0.00000  Uiso   1.00
H904   H     0.02702   0.81748   0.80440   0.00000  Uiso   1.00
H905   H     0.47093   0.67851   0.80491   0.00000  Uiso   1.00
H906   H     0.47199   0.81695   0.86925   0.00000  Uiso   1.00
H907   H     0.02989   0.67841   0.86706   0.00000  Uiso   1.00
H908   H     0.24730   0.53559   0.75239   0.00000  Uiso   1.00
N909   N     0.25000   0.62624   0.83333   0.00000  Uiso   1.00
N910   N     0.25000   0.87377   0.83333   0.00000  Uiso   1.00
O911   O     0.18453   0.78974   0.83334   0.00000  Uiso   1.00
O912   O     0.38550   0.66912   0.80140   0.00000  Uiso   1.00
O913   O     0.38535   0.83134   0.86272   0.00000  Uiso   1.00
O914   O     0.11528   0.66862   0.86616   0.00000  Uiso   1.00
O915   O     0.31547   0.71026   0.83333   0.00000  Uiso   1.00
O916   O     0.31547   0.78974   0.83333   0.00000  Uiso   1.00
O917   O     0.18453   0.71026   0.83334   0.00000  Uiso   1.00
O918   O     0.25000   0.78973   0.76178   0.00000  Uiso   1.00
O919   O     0.25000   0.71027   0.90489   0.00000  Uiso   1.00
O920   O     0.25000   0.78973   0.90489   0.00000  Uiso   1.00
O921   O     0.25000   0.71027   0.76178   0.00000  Uiso   1.00
O922   O     0.11399   0.83146   0.80653   0.00000  Uiso   1.00
Zn923  Zn    0.25000   0.80307   0.83333   0.00000  Uiso   1.00
Zn924  Zn    0.25000   0.69693   0.83333   0.00000  Uiso   1.00
C925   C     0.66377   0.74995   0.83368   0.00000  Uiso   1.00
C926   C     0.73417   0.94714   0.79205   0.00000  Uiso   1.00
C927   C     0.74999   0.75000   0.73952   0.00000  Uiso   1.00
C928   C     0.75001   0.75000   0.92714   0.00000  Uiso   1.00
C929   C     0.75001   0.52669   0.83334   0.00000  Uiso   1.00
C930   C     0.75000   0.97322   0.83334   0.00000  Uiso   1.00
C931   C     0.75000   0.75000   0.68845   0.00000  Uiso   1.00
C932   C     0.75001   0.75000   0.97821   0.00000  Uiso   1.00
C933   C     0.54586   0.78810   0.81899   0.00000  Uiso   1.00
C934   C     0.95322   0.70873   0.81951   0.00000  Uiso   1.00
C935   C     0.95360   0.78764   0.85377   0.00000  Uiso   1.00
C936   C     0.83623   0.74997   0.83325   0.00000  Uiso   1.00
C937   C     0.54718   0.70886   0.85233   0.00000  Uiso   1.00
C938   C     0.59182   0.79062   0.82096   0.00000  Uiso   1.00
C939   C     0.90740   0.70820   0.82014   0.00000  Uiso   1.00
C940   C     0.90779   0.79038   0.84942   0.00000  Uiso   1.00
C941   C     0.59293   0.70817   0.84937   0.00000  Uiso   1.00
C942   C     0.61562   0.74961   0.83457   0.00000  Uiso   1.00
C943   C     0.88436   0.74962   0.83415   0.00000  Uiso   1.00
C944   C     0.52385   0.74817   0.83616   0.00000  Uiso   1.00
C945   C     0.97609   0.74786   0.83711   0.00000  Uiso   1.00
C946   C     0.59554   0.87180   0.82985   0.00000  Uiso   1.00
C947   C     0.74727   0.60224   0.78932   0.00000  Uiso   1.00
C948   C     0.62973   0.91094   0.83163   0.00000  Uiso   1.00
C949   C     0.88829   0.63191   0.83649   0.00000  Uiso   1.00
C950   C     0.87140   0.58678   0.81250   0.00000  Uiso   1.00
C951   C     0.90441   0.87131   0.83926   0.00000  Uiso   1.00
C952   C     0.87049   0.91063   0.83625   0.00000  Uiso   1.00
C953   C     0.61122   0.63230   0.83019   0.00000  Uiso   1.00
C954   C     0.62839   0.58646   0.85231   0.00000  Uiso   1.00
C955   C     0.76508   0.89766   0.87404   0.00000  Uiso   1.00
C956   C     0.75274   0.60225   0.87735   0.00000  Uiso   1.00
C957   C     0.73490   0.89765   0.79264   0.00000  Uiso   1.00
C958   C     0.74782   0.55276   0.78842   0.00000  Uiso   1.00
C959   C     0.76580   0.94715   0.87464   0.00000  Uiso   1.00
C960   C     0.75219   0.55277   0.87825   0.00000  Uiso   1.00
H961   H     0.74537   0.62134   0.75443   0.00000  Uiso   1.00
H962   H     0.77969   0.96432   0.90709   0.00000  Uiso   1.00
H963   H     0.75272   0.53560   0.91429   0.00000  Uiso   1.00
H964   H     0.72028   0.96430   0.75960   0.00000  Uiso   1.00
H965   H     0.58487   0.86458   0.86908   0.00000  Uiso   1.00
H966   H     0.56692   0.88483   0.80775   0.00000  Uiso   1.00
H967   H     0.61506   0.94300   0.84872   0.00000  Uiso   1.00
H968   H     0.65839   0.89967   0.85464   0.00000  Uiso   1.00
H969   H     0.64086   0.91960   0.79316   0.00000  Uiso   1.00
H970   H     0.86748   0.63996   0.86974   0.00000  Uiso   1.00
H971   H     0.92285   0.62526   0.84907   0.00000  Uiso   1.00
H972   H     0.77755   0.87835   0.90592   0.00000  Uiso   1.00
H973   H     0.89338   0.57640   0.78112   0.00000  Uiso   1.00
H974   H     0.87073   0.55793   0.84057   0.00000  Uiso   1.00
H975   H     0.83756   0.59224   0.79785   0.00000  Uiso   1.00
H976   H     0.91566   0.86357   0.80036   0.00000  Uiso   1.00
H977   H     0.93276   0.88445   0.86174   0.00000  Uiso   1.00
H978   H     0.88559   0.94234   0.81890   0.00000  Uiso   1.00
H979   H     0.84207   0.89921   0.81294   0.00000  Uiso   1.00
H980   H     0.85892   0.91991   0.87439   0.00000  Uiso   1.00
H981   H     0.63116   0.64101   0.79645   0.00000  Uiso   1.00
H982   H     0.57627   0.62622   0.81866   0.00000  Uiso   1.00
H983   H     0.75464   0.62135   0.91223   0.00000  Uiso   1.00
H984   H     0.60732   0.57558   0.88430   0.00000  Uiso   1.00
H985   H     0.62784   0.55827   0.82349   0.00000  Uiso   1.00
H986   H     0.66274   0.59123   0.86566   0.00000  Uiso   1.00
H987   H     0.72243   0.87834   0.76075   0.00000  Uiso   1.00
H988   H     0.52702   0.81748   0.80440   0.00000  Uiso   1.00
H989   H     0.97093   0.67851   0.80491   0.00000  Uiso   1.00
H990   H     0.97199   0.81695   0.86925   0.00000  Uiso   1.00
H991   H     0.52989   0.67841   0.86706   0.00000  Uiso   1.00
H992   H     0.74730   0.53559   0.75239   0.00000  Uiso   1.00
N993   N     0.75000   0.62624   0.83333   0.00000  Uiso   1.00
N994   N     0.75000   0.87377   0.83333   0.00000  Uiso   1.00
O995   O     0.68453   0.78974   0.83334   0.00000  Uiso   1.00
O996   O     0.88550   0.66912   0.80140   0.00000  Uiso   1.00
O997   O     0.88535   0.83134   0.86272   0.00000  Uiso   1.00
O998   O     0.61528   0.66862   0.86616   0.00000  Uiso   1.00
O999   O     0.81547   0.71026   0.83333   0.00000  Uiso   1.00
O1000  O     0.81547   0.78974   0.83333   0.00000  Uiso   1.00
O1001  O     0.68453   0.71026   0.83334   0.00000  Uiso   1.00
O1002  O     0.75000   0.78973   0.76178   0.00000  Uiso   1.00
O1003  O     0.75000   0.71027   0.90489   0.00000  Uiso   1.00
O1004  O     0.75000   0.78973   0.90489   0.00000  Uiso   1.00
O1005  O     0.75000   0.71027   0.76178   0.00000  Uiso   1.00
O1006  O     0.61399   0.83146   0.80653   0.00000  Uiso   1.00
Zn1007 Zn    0.75000   0.80307   0.83333   0.00000  Uiso   1.00
Zn1008 Zn    0.75000   0.69693   0.83333   0.00000  Uiso   1.00
loop_
_geom_bond_atom_site_label_1
_geom_bond_atom_site_label_2
_geom_bond_distance
_geom_bond_site_symmetry_2
_ccdc_geom_bond_type
C1     O77     1.290   .     A
C1     C18     1.457   .     S
C1     O71     1.292   .     A
C2     C6      1.413   .     A
C2     C33     1.404   .     A
C2     H40     1.080   .     S
C3     C7      1.366   .     S
C3     O81     1.275   .     A
C3     O78     1.275   .     A
C4     C8      1.366   .     S
C4     O80     1.275   .     A
C4     O79     1.275   .     A
C5     C36     1.412   .     A
C5     C34     1.412   .     A
C5     C174    1.517   1_545 S
C6     C35     1.413   .     A
C6     C173    1.517   .     S
C7     C680    1.165   1_554 S
C8     C343    1.165   .     S
C9     H64     1.082   .     S
C9     C14     1.393   .     A
C9     C20     1.392   .     A
C10    C15     1.386   .     A
C10    C21     1.390   .     A
C10    H65     1.084   .     S
C11    H66     1.082   .     S
C11    C21     1.391   .     A
C11    C16     1.393   .     A
C12    O75     1.290   .     A
C12    O76     1.292   .     A
C12    C19     1.456   .     S
C13    H67     1.084   .     S
C13    C20     1.389   .     A
C13    C17     1.386   .     A
C14    C18     1.416   .     A
C14    O82     1.393   .     S
C15    C19     1.417   .     A
C15    O72     1.385   .     S
C16    O73     1.392   .     S
C16    C19     1.416   .     A
C17    C18     1.418   .     A
C17    O74     1.385   .     S
C20    C105    1.445   1_455 S
C21    C104    1.445   .     S
C22    H41     1.116   .     S
C22    C24     1.518   .     S
C22    O82     1.418   .     S
C22    H42     1.111   .     S
C23    N69     1.362   .     A
C23    H37     1.080   .     S
C23    C34     1.404   .     A
C24    H45     1.110   .     S
C24    H44     1.110   .     S
C24    H43     1.111   .     S
C25    H47     1.114   .     S
C25    C26     1.520   .     S
C25    O72     1.415   .     S
C25    H46     1.113   .     S
C26    H50     1.111   .     S
C26    H49     1.111   .     S
C26    H51     1.107   .     S
C27    H52     1.116   .     S
C27    H53     1.111   .     S
C27    C28     1.518   .     S
C27    O73     1.418   .     S
C28    H56     1.110   .     S
C28    H55     1.110   .     S
C28    H54     1.111   .     S
C29    O74     1.415   .     S
C29    C30     1.520   .     S
C29    H58     1.114   .     S
C29    H57     1.113   .     S
C30    H60     1.111   .     S
C30    H62     1.107   .     S
C30    H61     1.111   .     S
C31    N70     1.361   .     A
C31    H48     1.081   .     S
C31    C35     1.404   .     A
C32    C36     1.404   .     A
C32    N69     1.362   .     A
C32    H59     1.080   .     S
C33    H63     1.081   .     S
C33    N70     1.361   .     A
C34    H68     1.080   .     S
C35    H38     1.080   .     S
C36    H39     1.080   .     S
N69    Zn84    2.006   .     S
N70    Zn83    2.006   .     S
O71    Zn83    2.016   .     S
O75    Zn84    2.016   .     S
O76    Zn83    2.016   .     S
O77    Zn84    2.016   .     S
O78    Zn83    1.950   .     S
O79    Zn84    1.950   .     S
O80    Zn83    1.950   .     S
O81    Zn84    1.950   .     S
C85    O161    1.290   .     A
C85    C102    1.457   .     S
C85    O155    1.292   .     A
C86    C90     1.413   .     A
C86    C117    1.404   .     A
C86    H124    1.080   .     S
C87    C91     1.366   .     S
C87    O165    1.275   .     A
C87    O162    1.275   .     A
C88    C92     1.366   .     S
C88    O164    1.275   .     A
C88    O163    1.275   .     A
C89    C120    1.412   .     A
C89    C118    1.412   .     A
C89    C258    1.517   1_545 S
C90    C119    1.413   .     A
C90    C257    1.517   .     S
C91    C764    1.165   1_554 S
C92    C427    1.165   .     S
C93    H148    1.082   .     S
C93    C98     1.393   .     A
C93    C104    1.392   .     A
C94    C99     1.386   .     A
C94    C105    1.390   .     A
C94    H149    1.084   .     S
C95    H150    1.082   .     S
C95    C105    1.391   .     A
C95    C100    1.393   .     A
C96    O159    1.290   .     A
C96    O160    1.292   .     A
C96    C103    1.456   .     S
C97    H151    1.084   .     S
C97    C104    1.389   .     A
C97    C101    1.386   .     A
C98    C102    1.416   .     A
C98    O166    1.393   .     S
C99    C103    1.417   .     A
C99    O156    1.385   .     S
C100   O157    1.392   .     S
C100   C103    1.416   .     A
C101   C102    1.418   .     A
C101   O158    1.385   .     S
C105   C20     1.445   1_655 S
C106   H125    1.116   .     S
C106   C108    1.518   .     S
C106   O166    1.418   .     S
C106   H126    1.111   .     S
C107   N153    1.362   .     A
C107   H121    1.080   .     S
C107   C118    1.404   .     A
C108   H129    1.110   .     S
C108   H128    1.110   .     S
C108   H127    1.111   .     S
C109   H131    1.114   .     S
C109   C110    1.520   .     S
C109   O156    1.415   .     S
C109   H130    1.113   .     S
C110   H134    1.111   .     S
C110   H133    1.111   .     S
C110   H135    1.107   .     S
C111   H136    1.116   .     S
C111   H137    1.111   .     S
C111   C112    1.518   .     S
C111   O157    1.418   .     S
C112   H140    1.110   .     S
C112   H139    1.110   .     S
C112   H138    1.111   .     S
C113   O158    1.415   .     S
C113   C114    1.520   .     S
C113   H142    1.114   .     S
C113   H141    1.113   .     S
C114   H144    1.111   .     S
C114   H146    1.107   .     S
C114   H145    1.111   .     S
C115   N154    1.361   .     A
C115   H132    1.081   .     S
C115   C119    1.404   .     A
C116   C120    1.404   .     A
C116   N153    1.362   .     A
C116   H143    1.080   .     S
C117   H147    1.081   .     S
C117   N154    1.361   .     A
C118   H152    1.080   .     S
C119   H122    1.080   .     S
C120   H123    1.080   .     S
N153   Zn168   2.006   .     S
N154   Zn167   2.006   .     S
O155   Zn167   2.016   .     S
O159   Zn168   2.016   .     S
O160   Zn167   2.016   .     S
O161   Zn168   2.016   .     S
O162   Zn167   1.950   .     S
O163   Zn168   1.950   .     S
O164   Zn167   1.950   .     S
O165   Zn168   1.950   .     S
C169   O245    1.290   .     A
C169   C186    1.457   .     S
C169   O239    1.292   .     A
C170   C174    1.413   .     A
C170   C201    1.404   .     A
C170   H208    1.080   .     S
C171   C175    1.366   .     S
C171   O249    1.275   .     A
C171   O246    1.275   .     A
C172   C176    1.366   .     S
C172   O248    1.275   .     A
C172   O247    1.275   .     A
C173   C204    1.412   .     A
C173   C202    1.412   .     A
C174   C203    1.413   .     A
C174   C5      1.517   1_565 S
C175   C848    1.165   1_554 S
C176   C511    1.165   .     S
C177   H232    1.082   .     S
C177   C182    1.393   .     A
C177   C188    1.392   .     A
C178   C183    1.386   .     A
C178   C189    1.390   .     A
C178   H233    1.084   .     S
C179   H234    1.082   .     S
C179   C189    1.391   .     A
C179   C184    1.393   .     A
C180   O243    1.290   .     A
C180   O244    1.292   .     A
C180   C187    1.456   .     S
C181   H235    1.084   .     S
C181   C188    1.389   .     A
C181   C185    1.386   .     A
C182   C186    1.416   .     A
C182   O250    1.393   .     S
C183   C187    1.417   .     A
C183   O240    1.385   .     S
C184   O241    1.392   .     S
C184   C187    1.416   .     A
C185   C186    1.418   .     A
C185   O242    1.385   .     S
C188   C273    1.445   1_455 S
C189   C272    1.445   .     S
C190   H209    1.116   .     S
C190   C192    1.518   .     S
C190   O250    1.418   .     S
C190   H210    1.111   .     S
C191   N237    1.362   .     A
C191   H205    1.080   .     S
C191   C202    1.404   .     A
C192   H213    1.110   .     S
C192   H212    1.110   .     S
C192   H211    1.111   .     S
C193   H215    1.114   .     S
C193   C194    1.520   .     S
C193   O240    1.415   .     S
C193   H214    1.113   .     S
C194   H218    1.111   .     S
C194   H217    1.111   .     S
C194   H219    1.107   .     S
C195   H220    1.116   .     S
C195   H221    1.111   .     S
C195   C196    1.518   .     S
C195   O241    1.418   .     S
C196   H224    1.110   .     S
C196   H223    1.110   .     S
C196   H222    1.111   .     S
C197   O242    1.415   .     S
C197   C198    1.520   .     S
C197   H226    1.114   .     S
C197   H225    1.113   .     S
C198   H228    1.111   .     S
C198   H230    1.107   .     S
C198   H229    1.111   .     S
C199   N238    1.361   .     A
C199   H216    1.081   .     S
C199   C203    1.404   .     A
C200   C204    1.404   .     A
C200   N237    1.362   .     A
C200   H227    1.080   .     S
C201   H231    1.081   .     S
C201   N238    1.361   .     A
C202   H236    1.080   .     S
C203   H206    1.080   .     S
C204   H207    1.080   .     S
N237   Zn252   2.006   .     S
N238   Zn251   2.006   .     S
O239   Zn251   2.016   .     S
O243   Zn252   2.016   .     S
O244   Zn251   2.016   .     S
O245   Zn252   2.016   .     S
O246   Zn251   1.950   .     S
O247   Zn252   1.950   .     S
O248   Zn251   1.950   .     S
O249   Zn252   1.950   .     S
C253   O329    1.290   .     A
C253   C270    1.457   .     S
C253   O323    1.292   .     A
C254   C258    1.413   .     A
C254   C285    1.404   .     A
C254   H292    1.080   .     S
C255   C259    1.366   .     S
C255   O333    1.275   .     A
C255   O330    1.275   .     A
C256   C260    1.366   .     S
C256   O332    1.275   .     A
C256   O331    1.275   .     A
C257   C288    1.412   .     A
C257   C286    1.412   .     A
C258   C287    1.413   .     A
C258   C89     1.517   1_565 S
C259   C932    1.165   1_554 S
C260   C595    1.165   .     S
C261   H316    1.082   .     S
C261   C266    1.393   .     A
C261   C272    1.392   .     A
C262   C267    1.386   .     A
C262   C273    1.390   .     A
C262   H317    1.084   .     S
C263   H318    1.082   .     S
C263   C273    1.391   .     A
C263   C268    1.393   .     A
C264   O327    1.290   .     A
C264   O328    1.292   .     A
C264   C271    1.456   .     S
C265   H319    1.084   .     S
C265   C272    1.389   .     A
C265   C269    1.386   .     A
C266   C270    1.416   .     A
C266   O334    1.393   .     S
C267   C271    1.417   .     A
C267   O324    1.385   .     S
C268   O325    1.392   .     S
C268   C271    1.416   .     A
C269   C270    1.418   .     A
C269   O326    1.385   .     S
C273   C188    1.445   1_655 S
C274   H293    1.116   .     S
C274   C276    1.518   .     S
C274   O334    1.418   .     S
C274   H294    1.111   .     S
C275   N321    1.362   .     A
C275   H289    1.080   .     S
C275   C286    1.404   .     A
C276   H297    1.110   .     S
C276   H296    1.110   .     S
C276   H295    1.111   .     S
C277   H299    1.114   .     S
C277   C278    1.520   .     S
C277   O324    1.415   .     S
C277   H298    1.113   .     S
C278   H302    1.111   .     S
C278   H301    1.111   .     S
C278   H303    1.107   .     S
C279   H304    1.116   .     S
C279   H305    1.111   .     S
C279   C280    1.518   .     S
C279   O325    1.418   .     S
C280   H308    1.110   .     S
C280   H307    1.110   .     S
C280   H306    1.111   .     S
C281   O326    1.415   .     S
C281   C282    1.520   .     S
C281   H310    1.114   .     S
C281   H309    1.113   .     S
C282   H312    1.111   .     S
C282   H314    1.107   .     S
C282   H313    1.111   .     S
C283   N322    1.361   .     A
C283   H300    1.081   .     S
C283   C287    1.404   .     A
C284   C288    1.404   .     A
C284   N321    1.362   .     A
C284   H311    1.080   .     S
C285   H315    1.081   .     S
C285   N322    1.361   .     A
C286   H320    1.080   .     S
C287   H290    1.080   .     S
C288   H291    1.080   .     S
N321   Zn336   2.006   .     S
N322   Zn335   2.006   .     S
O323   Zn335   2.016   .     S
O327   Zn336   2.016   .     S
O328   Zn335   2.016   .     S
O329   Zn336   2.016   .     S
O330   Zn335   1.950   .     S
O331   Zn336   1.950   .     S
O332   Zn335   1.950   .     S
O333   Zn336   1.950   .     S
C337   O413    1.290   .     A
C337   C354    1.457   .     S
C337   O407    1.292   .     A
C338   C342    1.413   .     A
C338   C369    1.404   .     A
C338   H376    1.080   .     S
C339   C343    1.366   .     S
C339   O417    1.275   .     A
C339   O414    1.275   .     A
C340   C344    1.366   .     S
C340   O416    1.275   .     A
C340   O415    1.275   .     A
C341   C372    1.412   .     A
C341   C370    1.412   .     A
C341   C510    1.517   1_545 S
C342   C371    1.413   .     A
C342   C509    1.517   .     S
C344   C679    1.165   .     S
C345   H400    1.082   .     S
C345   C350    1.393   .     A
C345   C356    1.392   .     A
C346   C351    1.386   .     A
C346   C357    1.390   .     A
C346   H401    1.084   .     S
C347   H402    1.082   .     S
C347   C357    1.391   .     A
C347   C352    1.393   .     A
C348   O411    1.290   .     A
C348   O412    1.292   .     A
C348   C355    1.456   .     S
C349   H403    1.084   .     S
C349   C356    1.389   .     A
C349   C353    1.386   .     A
C350   C354    1.416   .     A
C350   O418    1.393   .     S
C351   C355    1.417   .     A
C351   O408    1.385   .     S
C352   O409    1.392   .     S
C352   C355    1.416   .     A
C353   C354    1.418   .     A
C353   O410    1.385   .     S
C356   C441    1.445   1_455 S
C357   C440    1.445   .     S
C358   H377    1.116   .     S
C358   C360    1.518   .     S
C358   O418    1.418   .     S
C358   H378    1.111   .     S
C359   N405    1.362   .     A
C359   H373    1.080   .     S
C359   C370    1.404   .     A
C360   H381    1.110   .     S
C360   H380    1.110   .     S
C360   H379    1.111   .     S
C361   H383    1.114   .     S
C361   C362    1.520   .     S
C361   O408    1.415   .     S
C361   H382    1.113   .     S
C362   H386    1.111   .     S
C362   H385    1.111   .     S
C362   H387    1.107   .     S
C363   H388    1.116   .     S
C363   H389    1.111   .     S
C363   C364    1.518   .     S
C363   O409    1.418   .     S
C364   H392    1.110   .     S
C364   H391    1.110   .     S
C364   H390    1.111   .     S
C365   O410    1.415   .     S
C365   C366    1.520   .     S
C365   H394    1.114   .     S
C365   H393    1.113   .     S
C366   H396    1.111   .     S
C366   H398    1.107   .     S
C366   H397    1.111   .     S
C367   N406    1.361   .     A
C367   H384    1.081   .     S
C367   C371    1.404   .     A
C368   C372    1.404   .     A
C368   N405    1.362   .     A
C368   H395    1.080   .     S
C369   H399    1.081   .     S
C369   N406    1.361   .     A
C370   H404    1.080   .     S
C371   H374    1.080   .     S
C372   H375    1.080   .     S
N405   Zn420   2.006   .     S
N406   Zn419   2.006   .     S
O407   Zn419   2.016   .     S
O411   Zn420   2.016   .     S
O412   Zn419   2.016   .     S
O413   Zn420   2.016   .     S
O414   Zn419   1.950   .     S
O415   Zn420   1.950   .     S
O416   Zn419   1.950   .     S
O417   Zn420   1.950   .     S
C421   O497    1.290   .     A
C421   C438    1.457   .     S
C421   O491    1.292   .     A
C422   C426    1.413   .     A
C422   C453    1.404   .     A
C422   H460    1.080   .     S
C423   C427    1.366   .     S
C423   O501    1.275   .     A
C423   O498    1.275   .     A
C424   C428    1.366   .     S
C424   O500    1.275   .     A
C424   O499    1.275   .     A
C425   C456    1.412   .     A
C425   C454    1.412   .     A
C425   C594    1.517   1_545 S
C426   C455    1.413   .     A
C426   C593    1.517   .     S
C428   C763    1.165   .     S
C429   H484    1.082   .     S
C429   C434    1.393   .     A
C429   C440    1.392   .     A
C430   C435    1.386   .     A
C430   C441    1.390   .     A
C430   H485    1.084   .     S
C431   H486    1.082   .     S
C431   C441    1.391   .     A
C431   C436    1.393   .     A
C432   O495    1.290   .     A
C432   O496    1.292   .     A
C432   C439    1.456   .     S
C433   H487    1.084   .     S
C433   C440    1.389   .     A
C433   C437    1.386   .     A
C434   C438    1.416   .     A
C434   O502    1.393   .     S
C435   C439    1.417   .     A
C435   O492    1.385   .     S
C436   O493    1.392   .     S
C436   C439    1.416   .     A
C437   C438    1.418   .     A
C437   O494    1.385   .     S
C441   C356    1.445   1_655 S
C442   H461    1.116   .     S
C442   C444    1.518   .     S
C442   O502    1.418   .     S
C442   H462    1.111   .     S
C443   N489    1.362   .     A
C443   H457    1.080   .     S
C443   C454    1.404   .     A
C444   H465    1.110   .     S
C444   H464    1.110   .     S
C444   H463    1.111   .     S
C445   H467    1.114   .     S
C445   C446    1.520   .     S
C445   O492    1.415   .     S
C445   H466    1.113   .     S
C446   H470    1.111   .     S
C446   H469    1.111   .     S
C446   H471    1.107   .     S
C447   H472    1.116   .     S
C447   H473    1.111   .     S
C447   C448    1.518   .     S
C447   O493    1.418   .     S
C448   H476    1.110   .     S
C448   H475    1.110   .     S
C448   H474    1.111   .     S
C449   O494    1.415   .     S
C449   C450    1.520   .     S
C449   H478    1.114   .     S
C449   H477    1.113   .     S
C450   H480    1.111   .     S
C450   H482    1.107   .     S
C450   H481    1.111   .     S
C451   N490    1.361   .     A
C451   H468    1.081   .     S
C451   C455    1.404   .     A
C452   C456    1.404   .     A
C452   N489    1.362   .     A
C452   H479    1.080   .     S
C453   H483    1.081   .     S
C453   N490    1.361   .     A
C454   H488    1.080   .     S
C455   H458    1.080   .     S
C456   H459    1.080   .     S
N489   Zn504   2.006   .     S
N490   Zn503   2.006   .     S
O491   Zn503   2.016   .     S
O495   Zn504   2.016   .     S
O496   Zn503   2.016   .     S
O497   Zn504   2.016   .     S
O498   Zn503   1.950   .     S
O499   Zn504   1.950   .     S
O500   Zn503   1.950   .     S
O501   Zn504   1.950   .     S
C505   O581    1.290   .     A
C505   C522    1.457   .     S
C505   O575    1.292   .     A
C506   C510    1.413   .     A
C506   C537    1.404   .     A
C506   H544    1.080   .     S
C507   C511    1.366   .     S
C507   O585    1.275   .     A
C507   O582    1.275   .     A
C508   C512    1.366   .     S
C508   O584    1.275   .     A
C508   O583    1.275   .     A
C509   C540    1.412   .     A
C509   C538    1.412   .     A
C510   C539    1.413   .     A
C510   C341    1.517   1_565 S
C512   C847    1.165   .     S
C513   H568    1.082   .     S
C513   C518    1.393   .     A
C513   C524    1.392   .     A
C514   C519    1.386   .     A
C514   C525    1.390   .     A
C514   H569    1.084   .     S
C515   H570    1.082   .     S
C515   C525    1.391   .     A
C515   C520    1.393   .     A
C516   O579    1.290   .     A
C516   O580    1.292   .     A
C516   C523    1.456   .     S
C517   H571    1.084   .     S
C517   C524    1.389   .     A
C517   C521    1.386   .     A
C518   C522    1.416   .     A
C518   O586    1.393   .     S
C519   C523    1.417   .     A
C519   O576    1.385   .     S
C520   O577    1.392   .     S
C520   C523    1.416   .     A
C521   C522    1.418   .     A
C521   O578    1.385   .     S
C524   C609    1.445   1_455 S
C525   C608    1.445   .     S
C526   H545    1.116   .     S
C526   C528    1.518   .     S
C526   O586    1.418   .     S
C526   H546    1.111   .     S
C527   N573    1.362   .     A
C527   H541    1.080   .     S
C527   C538    1.404   .     A
C528   H549    1.110   .     S
C528   H548    1.110   .     S
C528   H547    1.111   .     S
C529   H551    1.114   .     S
C529   C530    1.520   .     S
C529   O576    1.415   .     S
C529   H550    1.113   .     S
C530   H554    1.111   .     S
C530   H553    1.111   .     S
C530   H555    1.107   .     S
C531   H556    1.116   .     S
C531   H557    1.111   .     S
C531   C532    1.518   .     S
C531   O577    1.418   .     S
C532   H560    1.110   .     S
C532   H559    1.110   .     S
C532   H558    1.111   .     S
C533   O578    1.415   .     S
C533   C534    1.520   .     S
C533   H562    1.114   .     S
C533   H561    1.113   .     S
C534   H564    1.111   .     S
C534   H566    1.107   .     S
C534   H565    1.111   .     S
C535   N574    1.361   .     A
C535   H552    1.081   .     S
C535   C539    1.404   .     A
C536   C540    1.404   .     A
C536   N573    1.362   .     A
C536   H563    1.080   .     S
C537   H567    1.081   .     S
C537   N574    1.361   .     A
C538   H572    1.080   .     S
C539   H542    1.080   .     S
C540   H543    1.080   .     S
N573   Zn588   2.006   .     S
N574   Zn587   2.006   .     S
O575   Zn587   2.016   .     S
O579   Zn588   2.016   .     S
O580   Zn587   2.016   .     S
O581   Zn588   2.016   .     S
O582   Zn587   1.950   .     S
O583   Zn588   1.950   .     S
O584   Zn587   1.950   .     S
O585   Zn588   1.950   .     S
C589   O665    1.290   .     A
C589   C606    1.457   .     S
C589   O659    1.292   .     A
C590   C594    1.413   .     A
C590   C621    1.404   .     A
C590   H628    1.080   .     S
C591   C595    1.366   .     S
C591   O669    1.275   .     A
C591   O666    1.275   .     A
C592   C596    1.366   .     S
C592   O668    1.275   .     A
C592   O667    1.275   .     A
C593   C624    1.412   .     A
C593   C622    1.412   .     A
C594   C623    1.413   .     A
C594   C425    1.517   1_565 S
C596   C931    1.165   .     S
C597   H652    1.082   .     S
C597   C602    1.393   .     A
C597   C608    1.392   .     A
C598   C603    1.386   .     A
C598   C609    1.390   .     A
C598   H653    1.084   .     S
C599   H654    1.082   .     S
C599   C609    1.391   .     A
C599   C604    1.393   .     A
C600   O663    1.290   .     A
C600   O664    1.292   .     A
C600   C607    1.456   .     S
C601   H655    1.084   .     S
C601   C608    1.389   .     A
C601   C605    1.386   .     A
C602   C606    1.416   .     A
C602   O670    1.393   .     S
C603   C607    1.417   .     A
C603   O660    1.385   .     S
C604   O661    1.392   .     S
C604   C607    1.416   .     A
C605   C606    1.418   .     A
C605   O662    1.385   .     S
C609   C524    1.445   1_655 S
C610   H629    1.116   .     S
C610   C612    1.518   .     S
C610   O670    1.418   .     S
C610   H630    1.111   .     S
C611   N657    1.362   .     A
C611   H625    1.080   .     S
C611   C622    1.404   .     A
C612   H633    1.110   .     S
C612   H632    1.110   .     S
C612   H631    1.111   .     S
C613   H635    1.114   .     S
C613   C614    1.520   .     S
C613   O660    1.415   .     S
C613   H634    1.113   .     S
C614   H638    1.111   .     S
C614   H637    1.111   .     S
C614   H639    1.107   .     S
C615   H640    1.116   .     S
C615   H641    1.111   .     S
C615   C616    1.518   .     S
C615   O661    1.418   .     S
C616   H644    1.110   .     S
C616   H643    1.110   .     S
C616   H642    1.111   .     S
C617   O662    1.415   .     S
C617   C618    1.520   .     S
C617   H646    1.114   .     S
C617   H645    1.113   .     S
C618   H648    1.111   .     S
C618   H650    1.107   .     S
C618   H649    1.111   .     S
C619   N658    1.361   .     A
C619   H636    1.081   .     S
C619   C623    1.404   .     A
C620   C624    1.404   .     A
C620   N657    1.362   .     A
C620   H647    1.080   .     S
C621   H651    1.081   .     S
C621   N658    1.361   .     A
C622   H656    1.080   .     S
C623   H626    1.080   .     S
C624   H627    1.080   .     S
N657   Zn672   2.006   .     S
N658   Zn671   2.006   .     S
O659   Zn671   2.016   .     S
O663   Zn672   2.016   .     S
O664   Zn671   2.016   .     S
O665   Zn672   2.016   .     S
O666   Zn671   1.950   .     S
O667   Zn672   1.950   .     S
O668   Zn671   1.950   .     S
O669   Zn672   1.950   .     S
C673   O749    1.290   .     A
C673   C690    1.457   .     S
C673   O743    1.292   .     A
C674   C678    1.413   .     A
C674   C705    1.404   .     A
C674   H712    1.080   .     S
C675   C679    1.366   .     S
C675   O753    1.275   .     A
C675   O750    1.275   .     A
C676   C680    1.366   .     S
C676   O752    1.275   .     A
C676   O751    1.275   .     A
C677   C708    1.412   .     A
C677   C706    1.412   .     A
C677   C846    1.517   1_545 S
C678   C707    1.413   .     A
C678   C845    1.517   .     S
C680   C7      1.165   1_556 S
C681   H736    1.082   .     S
C681   C686    1.393   .     A
C681   C692    1.392   .     A
C682   C687    1.386   .     A
C682   C693    1.390   .     A
C682   H737    1.084   .     S
C683   H738    1.082   .     S
C683   C693    1.391   .     A
C683   C688    1.393   .     A
C684   O747    1.290   .     A
C684   O748    1.292   .     A
C684   C691    1.456   .     S
C685   H739    1.084   .     S
C685   C692    1.389   .     A
C685   C689    1.386   .     A
C686   C690    1.416   .     A
C686   O754    1.393   .     S
C687   C691    1.417   .     A
C687   O744    1.385   .     S
C688   O745    1.392   .     S
C688   C691    1.416   .     A
C689   C690    1.418   .     A
C689   O746    1.385   .     S
C692   C777    1.445   1_455 S
C693   C776    1.445   .     S
C694   H713    1.116   .     S
C694   C696    1.518   .     S
C694   O754    1.418   .     S
C694   H714    1.111   .     S
C695   N741    1.362   .     A
C695   H709    1.080   .     S
C695   C706    1.404   .     A
C696   H717    1.110   .     S
C696   H716    1.110   .     S
C696   H715    1.111   .     S
C697   H719    1.114   .     S
C697   C698    1.520   .     S
C697   O744    1.415   .     S
C697   H718    1.113   .     S
C698   H722    1.111   .     S
C698   H721    1.111   .     S
C698   H723    1.107   .     S
C699   H724    1.116   .     S
C699   H725    1.111   .     S
C699   C700    1.518   .     S
C699   O745    1.418   .     S
C700   H728    1.110   .     S
C700   H727    1.110   .     S
C700   H726    1.111   .     S
C701   O746    1.415   .     S
C701   C702    1.520   .     S
C701   H730    1.114   .     S
C701   H729    1.113   .     S
C702   H732    1.111   .     S
C702   H734    1.107   .     S
C702   H733    1.111   .     S
C703   N742    1.361   .     A
C703   H720    1.081   .     S
C703   C707    1.404   .     A
C704   C708    1.404   .     A
C704   N741    1.362   .     A
C704   H731    1.080   .     S
C705   H735    1.081   .     S
C705   N742    1.361   .     A
C706   H740    1.080   .     S
C707   H710    1.080   .     S
C708   H711    1.080   .     S
N741   Zn756   2.006   .     S
N742   Zn755   2.006   .     S
O743   Zn755   2.016   .     S
O747   Zn756   2.016   .     S
O748   Zn755   2.016   .     S
O749   Zn756   2.016   .     S
O750   Zn755   1.950   .     S
O751   Zn756   1.950   .     S
O752   Zn755   1.950   .     S
O753   Zn756   1.950   .     S
C757   O833    1.290   .     A
C757   C774    1.457   .     S
C757   O827    1.292   .     A
C758   C762    1.413   .     A
C758   C789    1.404   .     A
C758   H796    1.080   .     S
C759   C763    1.366   .     S
C759   O837    1.275   .     A
C759   O834    1.275   .     A
C760   C764    1.366   .     S
C760   O836    1.275   .     A
C760   O835    1.275   .     A
C761   C792    1.412   .     A
C761   C790    1.412   .     A
C761   C930    1.517   1_545 S
C762   C791    1.413   .     A
C762   C929    1.517   .     S
C764   C91     1.165   1_556 S
C765   H820    1.082   .     S
C765   C770    1.393   .     A
C765   C776    1.392   .     A
C766   C771    1.386   .     A
C766   C777    1.390   .     A
C766   H821    1.084   .     S
C767   H822    1.082   .     S
C767   C777    1.391   .     A
C767   C772    1.393   .     A
C768   O831    1.290   .     A
C768   O832    1.292   .     A
C768   C775    1.456   .     S
C769   H823    1.084   .     S
C769   C776    1.389   .     A
C769   C773    1.386   .     A
C770   C774    1.416   .     A
C770   O838    1.393   .     S
C771   C775    1.417   .     A
C771   O828    1.385   .     S
C772   O829    1.392   .     S
C772   C775    1.416   .     A
C773   C774    1.418   .     A
C773   O830    1.385   .     S
C777   C692    1.445   1_655 S
C778   H797    1.116   .     S
C778   C780    1.518   .     S
C778   O838    1.418   .     S
C778   H798    1.111   .     S
C779   N825    1.362   .     A
C779   H793    1.080   .     S
C779   C790    1.404   .     A
C780   H801    1.110   .     S
C780   H800    1.110   .     S
C780   H799    1.111   .     S
C781   H803    1.114   .     S
C781   C782    1.520   .     S
C781   O828    1.415   .     S
C781   H802    1.113   .     S
C782   H806    1.111   .     S
C782   H805    1.111   .     S
C782   H807    1.107   .     S
C783   H808    1.116   .     S
C783   H809    1.111   .     S
C783   C784    1.518   .     S
C783   O829    1.418   .     S
C784   H812    1.110   .     S
C784   H811    1.110   .     S
C784   H810    1.111   .     S
C785   O830    1.415   .     S
C785   C786    1.520   .     S
C785   H814    1.114   .     S
C785   H813    1.113   .     S
C786   H816    1.111   .     S
C786   H818    1.107   .     S
C786   H817    1.111   .     S
C787   N826    1.361   .     A
C787   H804    1.081   .     S
C787   C791    1.404   .     A
C788   C792    1.404   .     A
C788   N825    1.362   .     A
C788   H815    1.080   .     S
C789   H819    1.081   .     S
C789   N826    1.361   .     A
C790   H824    1.080   .     S
C791   H794    1.080   .     S
C792   H795    1.080   .     S
N825   Zn840   2.006   .     S
N826   Zn839   2.006   .     S
O827   Zn839   2.016   .     S
O831   Zn840   2.016   .     S
O832   Zn839   2.016   .     S
O833   Zn840   2.016   .     S
O834   Zn839   1.950   .     S
O835   Zn840   1.950   .     S
O836   Zn839   1.950   .     S
O837   Zn840   1.950   .     S
C841   O917    1.290   .     A
C841   C858    1.457   .     S
C841   O911    1.292   .     A
C842   C846    1.413   .     A
C842   C873    1.404   .     A
C842   H880    1.080   .     S
C843   C847    1.366   .     S
C843   O921    1.275   .     A
C843   O918    1.275   .     A
C844   C848    1.366   .     S
C844   O920    1.275   .     A
C844   O919    1.275   .     A
C845   C876    1.412   .     A
C845   C874    1.412   .     A
C846   C875    1.413   .     A
C846   C677    1.517   1_565 S
C848   C175    1.165   1_556 S
C849   H904    1.082   .     S
C849   C854    1.393   .     A
C849   C860    1.392   .     A
C850   C855    1.386   .     A
C850   C861    1.390   .     A
C850   H905    1.084   .     S
C851   H906    1.082   .     S
C851   C861    1.391   .     A
C851   C856    1.393   .     A
C852   O915    1.290   .     A
C852   O916    1.292   .     A
C852   C859    1.456   .     S
C853   H907    1.084   .     S
C853   C860    1.389   .     A
C853   C857    1.386   .     A
C854   C858    1.416   .     A
C854   O922    1.393   .     S
C855   C859    1.417   .     A
C855   O912    1.385   .     S
C856   O913    1.392   .     S
C856   C859    1.416   .     A
C857   C858    1.418   .     A
C857   O914    1.385   .     S
C860   C945    1.445   1_455 S
C861   C944    1.445   .     S
C862   H881    1.116   .     S
C862   C864    1.518   .     S
C862   O922    1.418   .     S
C862   H882    1.111   .     S
C863   N909    1.362   .     A
C863   H877    1.080   .     S
C863   C874    1.404   .     A
C864   H885    1.110   .     S
C864   H884    1.110   .     S
C864   H883    1.111   .     S
C865   H887    1.114   .     S
C865   C866    1.520   .     S
C865   O912    1.415   .     S
C865   H886    1.113   .     S
C866   H890    1.111   .     S
C866   H889    1.111   .     S
C866   H891    1.107   .     S
C867   H892    1.116   .     S
C867   H893    1.111   .     S
C867   C868    1.518   .     S
C867   O913    1.418   .     S
C868   H896    1.110   .     S
C868   H895    1.110   .     S
C868   H894    1.111   .     S
C869   O914    1.415   .     S
C869   C870    1.520   .     S
C869   H898    1.114   .     S
C869   H897    1.113   .     S
C870   H900    1.111   .     S
C870   H902    1.107   .     S
C870   H901    1.111   .     S
C871   N910    1.361   .     A
C871   H888    1.081   .     S
C871   C875    1.404   .     A
C872   C876    1.404   .     A
C872   N909    1.362   .     A
C872   H899    1.080   .     S
C873   H903    1.081   .     S
C873   N910    1.361   .     A
C874   H908    1.080   .     S
C875   H878    1.080   .     S
C876   H879    1.080   .     S
N909   Zn924   2.006   .     S
N910   Zn923   2.006   .     S
O911   Zn923   2.016   .     S
O915   Zn924   2.016   .     S
O916   Zn923   2.016   .     S
O917   Zn924   2.016   .     S
O918   Zn923   1.950   .     S
O919   Zn924   1.950   .     S
O920   Zn923   1.950   .     S
O921   Zn924   1.950   .     S
C925   O1001   1.290   .     A
C925   C942    1.457   .     S
C925   O995    1.292   .     A
C926   C930    1.413   .     A
C926   C957    1.404   .     A
C926   H964    1.080   .     S
C927   C931    1.366   .     S
C927   O1005   1.275   .     A
C927   O1002   1.275   .     A
C928   C932    1.366   .     S
C928   O1004   1.275   .     A
C928   O1003   1.275   .     A
C929   C960    1.412   .     A
C929   C958    1.412   .     A
C930   C959    1.413   .     A
C930   C761    1.517   1_565 S
C932   C259    1.165   1_556 S
C933   H988    1.082   .     S
C933   C938    1.393   .     A
C933   C944    1.392   .     A
C934   C939    1.386   .     A
C934   C945    1.390   .     A
C934   H989    1.084   .     S
C935   H990    1.082   .     S
C935   C945    1.391   .     A
C935   C940    1.393   .     A
C936   O999    1.290   .     A
C936   O1000   1.292   .     A
C936   C943    1.456   .     S
C937   H991    1.084   .     S
C937   C944    1.389   .     A
C937   C941    1.386   .     A
C938   C942    1.416   .     A
C938   O1006   1.393   .     S
C939   C943    1.417   .     A
C939   O996    1.385   .     S
C940   O997    1.392   .     S
C940   C943    1.416   .     A
C941   C942    1.418   .     A
C941   O998    1.385   .     S
C945   C860    1.445   1_655 S
C946   H965    1.116   .     S
C946   C948    1.518   .     S
C946   O1006   1.418   .     S
C946   H966    1.111   .     S
C947   N993    1.362   .     A
C947   H961    1.080   .     S
C947   C958    1.404   .     A
C948   H969    1.110   .     S
C948   H968    1.110   .     S
C948   H967    1.111   .     S
C949   H971    1.114   .     S
C949   C950    1.520   .     S
C949   O996    1.415   .     S
C949   H970    1.113   .     S
C950   H974    1.111   .     S
C950   H973    1.111   .     S
C950   H975    1.107   .     S
C951   H976    1.116   .     S
C951   H977    1.111   .     S
C951   C952    1.518   .     S
C951   O997    1.418   .     S
C952   H980    1.110   .     S
C952   H979    1.110   .     S
C952   H978    1.111   .     S
C953   O998    1.415   .     S
C953   C954    1.520   .     S
C953   H982    1.114   .     S
C953   H981    1.113   .     S
C954   H984    1.111   .     S
C954   H986    1.107   .     S
C954   H985    1.111   .     S
C955   N994    1.361   .     A
C955   H972    1.081   .     S
C955   C959    1.404   .     A
C956   C960    1.404   .     A
C956   N993    1.362   .     A
C956   H983    1.080   .     S
C957   H987    1.081   .     S
C957   N994    1.361   .     A
C958   H992    1.080   .     S
C959   H962    1.080   .     S
C960   H963    1.080   .     S
N993   Zn1008  2.006   .     S
N994   Zn1007  2.006   .     S
O995   Zn1007  2.016   .     S
O999   Zn1008  2.016   .     S
O1000  Zn1007  2.016   .     S
O1001  Zn1008  2.016   .     S
O1002  Zn1007  1.950   .     S
O1003  Zn1008  1.950   .     S
O1004  Zn1007  1.950   .     S
O1005  Zn1008  1.950   .     S
