data_str_m3_o10_o18_pcu_sym.28
_audit_creation_date              2020-01-03
_audit_creation_method            'Materials Studio'
_symmetry_space_group_name_H-M    'P1'
_symmetry_Int_Tables_number       1
_symmetry_cell_setting            triclinic
loop_
_symmetry_equiv_pos_as_xyz
  x,y,z
_cell_length_a                    23.3432
_cell_length_b                    26.1645
_cell_length_c                    27.8644
_cell_angle_alpha                 92.0180
_cell_angle_beta                  93.7094
_cell_angle_gamma                 94.2160
loop_
_atom_site_label
_atom_site_type_symbol
_atom_site_fract_x
_atom_site_fract_y
_atom_site_fract_z
_atom_site_U_iso_or_equiv
_atom_site_adp_type
_atom_site_occupancy
C1     C     0.01564   0.26491   0.25150   0.00000  Uiso   1.00
C2     C     0.31218   0.16332   0.15936   0.00000  Uiso   1.00
C3     C     0.03502   0.18000   0.39222   0.00000  Uiso   1.00
C4     C     0.30263   0.15974   0.10771   0.00000  Uiso   1.00
C5     C     0.02833   0.23858   0.46049   0.00000  Uiso   1.00
C6     C     0.31597   0.11754   0.03156   0.00000  Uiso   1.00
C7     C     0.00727   0.21884   0.41528   0.00000  Uiso   1.00
C8     C     0.33017   0.12406   0.08060   0.00000  Uiso   1.00
C9     C     0.08439   0.16088   0.41471   0.00000  Uiso   1.00
C10    C     0.26407   0.19108   0.08559   0.00000  Uiso   1.00
C11    C     0.11155   0.18831   0.45516   0.00000  Uiso   1.00
C12    C     0.31862   0.06863   0.25274   0.00000  Uiso   1.00
C13    C     0.24005   0.17685   0.03914   0.00000  Uiso   1.00
C14    C     0.08044   0.22338   0.48073   0.00000  Uiso   1.00
C15    C     0.26986   0.14236   0.01098   0.00000  Uiso   1.00
C16    C     0.16769   0.17864   0.47259   0.00000  Uiso   1.00
C17    C     0.18725   0.19435   0.02019   0.00000  Uiso   1.00
C18    C     0.28984   0.27630   0.08773   0.00000  Uiso   1.00
C19    C     0.11283   0.09258   0.36795   0.00000  Uiso   1.00
C20    C     0.12178   0.31805   0.29443   0.00000  Uiso   1.00
C21    C     0.10222   0.29763   0.34246   0.00000  Uiso   1.00
C22    C     0.15361   0.28565   0.37598   0.00000  Uiso   1.00
C23    C     0.15148   0.22390   0.04751   0.00000  Uiso   1.00
C24    C     0.23222   0.31685   0.20324   0.00000  Uiso   1.00
C25    C     0.19464   0.02577   0.18597   0.00000  Uiso   1.00
C26    C     0.15345   0.00747   0.14298   0.00000  Uiso   1.00
C27    C     0.20527   0.15458   0.44308   0.00000  Uiso   1.00
C28    C     0.10094   0.24104   0.02680   0.00000  Uiso   1.00
C29    C     0.25391   0.13392   0.46244   0.00000  Uiso   1.00
C30    C     0.02466   0.31953   0.25891   0.00000  Uiso   1.00
C31    C     0.31066   0.01436   0.25366   0.00000  Uiso   1.00
C32    C     0.02148   0.16919   0.34099   0.00000  Uiso   1.00
H33    H     0.07637   0.26601   0.04783   0.00000  Uiso   1.00
H34    H     0.17034   0.20571   0.28708   0.00000  Uiso   1.00
H35    H     0.28518   0.27471   0.04771   0.00000  Uiso   1.00
H36    H     0.00226   0.27427   0.10076   0.00000  Uiso   1.00
H37    H     0.27654   0.31437   0.09908   0.00000  Uiso   1.00
H38    H     0.14294   0.06290   0.37592   0.00000  Uiso   1.00
H39    H     0.13822   0.12257   0.34959   0.00000  Uiso   1.00
H40    H     0.07654   0.07591   0.34338   0.00000  Uiso   1.00
H41    H     0.15891   0.01330   0.30285   0.00000  Uiso   1.00
H42    H     0.13968   0.28815   0.27207   0.00000  Uiso   1.00
H43    H     0.07656   0.32530   0.36087   0.00000  Uiso   1.00
H44    H     0.27929   0.11178   0.43932   0.00000  Uiso   1.00
H45    H     0.07391   0.26229   0.33584   0.00000  Uiso   1.00
H46    H     0.17245   0.25048   0.36285   0.00000  Uiso   1.00
H47    H     0.13926   0.27953   0.41256   0.00000  Uiso   1.00
H48    H     0.18755   0.31782   0.37876   0.00000  Uiso   1.00
H49    H     0.20539   0.27987   0.20198   0.00000  Uiso   1.00
H50    H     0.26668   0.31159   0.17826   0.00000  Uiso   1.00
H51    H     0.16890   0.03839   0.21565   0.00000  Uiso   1.00
H52    H     0.22259   0.05911   0.17537   0.00000  Uiso   1.00
H53    H     0.17781   0.32899   0.11210   0.00000  Uiso   1.00
H54    H     0.12704   0.03920   0.13189   0.00000  Uiso   1.00
H55    H     0.02887   0.10125   0.09737   0.00000  Uiso   1.00
H56    H     0.12405   0.30801   0.15272   0.00000  Uiso   1.00
H57    H     0.30300   0.23428   0.39812   0.00000  Uiso   1.00
H58    H     0.00517   0.26703   0.47866   0.00000  Uiso   1.00
H59    H     0.00527   0.09100   0.01037   0.00000  Uiso   1.00
H60    H     0.16044   0.23376   0.08515   0.00000  Uiso   1.00
H61    H     0.19792   0.15207   0.40479   0.00000  Uiso   1.00
H62    H     0.16295   0.12795   0.21260   0.00000  Uiso   1.00
N63    N     0.14695   0.15216   0.23740   0.00000  Uiso   1.00
N64    N     0.18638   0.18117   0.26261   0.00000  Uiso   1.00
O65    O     0.29719   0.24631   0.25310   0.00000  Uiso   1.00
O66    O     0.09174   0.10862   0.41175   0.00000  Uiso   1.00
O67    O     0.08007   0.01093   0.26757   0.00000  Uiso   1.00
O68    O     0.25386   0.32680   0.25168   0.00000  Uiso   1.00
O69    O     0.03614   0.08702   0.24690   0.00000  Uiso   1.00
O70    O     0.05822   0.23702   0.24502   0.00000  Uiso   1.00
O71    O     0.27512   0.09632   0.25499   0.00000  Uiso   1.00
O72    O     0.30328   0.17397   0.32247   0.00000  Uiso   1.00
O73    O     0.03005   0.15937   0.17753   0.00000  Uiso   1.00
O74    O     0.06431   0.16467   0.31439   0.00000  Uiso   1.00
O75    O     0.26902   0.16866   0.18561   0.00000  Uiso   1.00
O76    O     0.25488   0.23746   0.10809   0.00000  Uiso   1.00
Zn77   Zn    0.27033   0.17287   0.25540   0.00000  Uiso   1.00
Zn78   Zn    0.06300   0.16046   0.24461   0.00000  Uiso   1.00
C79    C     0.34897   0.26491   0.25150   0.00000  Uiso   1.00
C80    C     0.64552   0.16332   0.15936   0.00000  Uiso   1.00
C81    C     0.36835   0.18000   0.39222   0.00000  Uiso   1.00
C82    C     0.63596   0.15974   0.10771   0.00000  Uiso   1.00
C83    C     0.36166   0.23858   0.46049   0.00000  Uiso   1.00
C84    C     0.64930   0.11754   0.03156   0.00000  Uiso   1.00
C85    C     0.34060   0.21884   0.41528   0.00000  Uiso   1.00
C86    C     0.66350   0.12406   0.08060   0.00000  Uiso   1.00
C87    C     0.41772   0.16088   0.41471   0.00000  Uiso   1.00
C88    C     0.59740   0.19108   0.08559   0.00000  Uiso   1.00
C89    C     0.44488   0.18831   0.45516   0.00000  Uiso   1.00
C90    C     0.65196   0.06863   0.25274   0.00000  Uiso   1.00
C91    C     0.57338   0.17685   0.03914   0.00000  Uiso   1.00
C92    C     0.41377   0.22338   0.48073   0.00000  Uiso   1.00
C93    C     0.60320   0.14236   0.01098   0.00000  Uiso   1.00
C94    C     0.50102   0.17864   0.47259   0.00000  Uiso   1.00
C95    C     0.52059   0.19435   0.02019   0.00000  Uiso   1.00
C96    C     0.62318   0.27630   0.08773   0.00000  Uiso   1.00
C97    C     0.44616   0.09258   0.36795   0.00000  Uiso   1.00
C98    C     0.45512   0.31805   0.29443   0.00000  Uiso   1.00
C99    C     0.43555   0.29763   0.34246   0.00000  Uiso   1.00
C100   C     0.48694   0.28565   0.37598   0.00000  Uiso   1.00
C101   C     0.48481   0.22390   0.04751   0.00000  Uiso   1.00
C102   C     0.56556   0.31685   0.20324   0.00000  Uiso   1.00
C103   C     0.52798   0.02577   0.18597   0.00000  Uiso   1.00
C104   C     0.48678   0.00747   0.14298   0.00000  Uiso   1.00
C105   C     0.53861   0.15458   0.44308   0.00000  Uiso   1.00
C106   C     0.43428   0.24104   0.02680   0.00000  Uiso   1.00
C107   C     0.58724   0.13392   0.46244   0.00000  Uiso   1.00
C108   C     0.35799   0.31953   0.25891   0.00000  Uiso   1.00
C109   C     0.64399   0.01436   0.25366   0.00000  Uiso   1.00
C110   C     0.35481   0.16919   0.34099   0.00000  Uiso   1.00
H111   H     0.40971   0.26601   0.04783   0.00000  Uiso   1.00
H112   H     0.50368   0.20571   0.28708   0.00000  Uiso   1.00
H113   H     0.61851   0.27471   0.04771   0.00000  Uiso   1.00
H114   H     0.33559   0.27427   0.10076   0.00000  Uiso   1.00
H115   H     0.60987   0.31437   0.09908   0.00000  Uiso   1.00
H116   H     0.47628   0.06290   0.37592   0.00000  Uiso   1.00
H117   H     0.47156   0.12257   0.34959   0.00000  Uiso   1.00
H118   H     0.40987   0.07591   0.34338   0.00000  Uiso   1.00
H119   H     0.49225   0.01330   0.30285   0.00000  Uiso   1.00
H120   H     0.47302   0.28815   0.27207   0.00000  Uiso   1.00
H121   H     0.40989   0.32530   0.36087   0.00000  Uiso   1.00
H122   H     0.61262   0.11178   0.43932   0.00000  Uiso   1.00
H123   H     0.40724   0.26229   0.33584   0.00000  Uiso   1.00
H124   H     0.50579   0.25048   0.36285   0.00000  Uiso   1.00
H125   H     0.47259   0.27953   0.41256   0.00000  Uiso   1.00
H126   H     0.52088   0.31782   0.37876   0.00000  Uiso   1.00
H127   H     0.53873   0.27987   0.20198   0.00000  Uiso   1.00
H128   H     0.60001   0.31159   0.17826   0.00000  Uiso   1.00
H129   H     0.50223   0.03839   0.21565   0.00000  Uiso   1.00
H130   H     0.55592   0.05911   0.17537   0.00000  Uiso   1.00
H131   H     0.51114   0.32899   0.11210   0.00000  Uiso   1.00
H132   H     0.46038   0.03920   0.13189   0.00000  Uiso   1.00
H133   H     0.36221   0.10125   0.09737   0.00000  Uiso   1.00
H134   H     0.45738   0.30801   0.15272   0.00000  Uiso   1.00
H135   H     0.63633   0.23428   0.39812   0.00000  Uiso   1.00
H136   H     0.33850   0.26703   0.47866   0.00000  Uiso   1.00
H137   H     0.33860   0.09100   0.01037   0.00000  Uiso   1.00
H138   H     0.49377   0.23376   0.08515   0.00000  Uiso   1.00
H139   H     0.53125   0.15207   0.40479   0.00000  Uiso   1.00
H140   H     0.49628   0.12795   0.21260   0.00000  Uiso   1.00
N141   N     0.48029   0.15216   0.23740   0.00000  Uiso   1.00
N142   N     0.51971   0.18117   0.26261   0.00000  Uiso   1.00
O143   O     0.63052   0.24631   0.25310   0.00000  Uiso   1.00
O144   O     0.42508   0.10862   0.41175   0.00000  Uiso   1.00
O145   O     0.41340   0.01093   0.26757   0.00000  Uiso   1.00
O146   O     0.58719   0.32680   0.25168   0.00000  Uiso   1.00
O147   O     0.36948   0.08702   0.24690   0.00000  Uiso   1.00
O148   O     0.39155   0.23702   0.24502   0.00000  Uiso   1.00
O149   O     0.60845   0.09632   0.25499   0.00000  Uiso   1.00
O150   O     0.63662   0.17397   0.32247   0.00000  Uiso   1.00
O151   O     0.36338   0.15937   0.17753   0.00000  Uiso   1.00
O152   O     0.39764   0.16467   0.31439   0.00000  Uiso   1.00
O153   O     0.60236   0.16866   0.18561   0.00000  Uiso   1.00
O154   O     0.58821   0.23746   0.10809   0.00000  Uiso   1.00
Zn155  Zn    0.60366   0.17287   0.25540   0.00000  Uiso   1.00
Zn156  Zn    0.39634   0.16046   0.24461   0.00000  Uiso   1.00
C157   C     0.68231   0.26491   0.25150   0.00000  Uiso   1.00
C158   C     0.97885   0.16332   0.15936   0.00000  Uiso   1.00
C159   C     0.70169   0.18000   0.39222   0.00000  Uiso   1.00
C160   C     0.96929   0.15974   0.10771   0.00000  Uiso   1.00
C161   C     0.69500   0.23858   0.46049   0.00000  Uiso   1.00
C162   C     0.98263   0.11754   0.03156   0.00000  Uiso   1.00
C163   C     0.67394   0.21884   0.41528   0.00000  Uiso   1.00
C164   C     0.99683   0.12406   0.08060   0.00000  Uiso   1.00
C165   C     0.75105   0.16088   0.41471   0.00000  Uiso   1.00
C166   C     0.93073   0.19108   0.08559   0.00000  Uiso   1.00
C167   C     0.77822   0.18831   0.45516   0.00000  Uiso   1.00
C168   C     0.98529   0.06863   0.25274   0.00000  Uiso   1.00
C169   C     0.90672   0.17685   0.03914   0.00000  Uiso   1.00
C170   C     0.74711   0.22338   0.48073   0.00000  Uiso   1.00
C171   C     0.93653   0.14236   0.01098   0.00000  Uiso   1.00
C172   C     0.83435   0.17864   0.47259   0.00000  Uiso   1.00
C173   C     0.85392   0.19435   0.02019   0.00000  Uiso   1.00
C174   C     0.95651   0.27630   0.08773   0.00000  Uiso   1.00
C175   C     0.77949   0.09258   0.36795   0.00000  Uiso   1.00
C176   C     0.78845   0.31805   0.29443   0.00000  Uiso   1.00
C177   C     0.76888   0.29763   0.34246   0.00000  Uiso   1.00
C178   C     0.82028   0.28565   0.37598   0.00000  Uiso   1.00
C179   C     0.81815   0.22390   0.04751   0.00000  Uiso   1.00
C180   C     0.89889   0.31685   0.20324   0.00000  Uiso   1.00
C181   C     0.86131   0.02577   0.18597   0.00000  Uiso   1.00
C182   C     0.82012   0.00747   0.14298   0.00000  Uiso   1.00
C183   C     0.87194   0.15458   0.44308   0.00000  Uiso   1.00
C184   C     0.76761   0.24104   0.02680   0.00000  Uiso   1.00
C185   C     0.92057   0.13392   0.46244   0.00000  Uiso   1.00
C186   C     0.69133   0.31953   0.25891   0.00000  Uiso   1.00
C187   C     0.97733   0.01436   0.25366   0.00000  Uiso   1.00
C188   C     0.68815   0.16919   0.34099   0.00000  Uiso   1.00
H189   H     0.74304   0.26601   0.04783   0.00000  Uiso   1.00
H190   H     0.83701   0.20571   0.28708   0.00000  Uiso   1.00
H191   H     0.95184   0.27471   0.04771   0.00000  Uiso   1.00
H192   H     0.66892   0.27427   0.10076   0.00000  Uiso   1.00
H193   H     0.94321   0.31437   0.09908   0.00000  Uiso   1.00
H194   H     0.80961   0.06290   0.37592   0.00000  Uiso   1.00
H195   H     0.80489   0.12257   0.34959   0.00000  Uiso   1.00
H196   H     0.74320   0.07591   0.34338   0.00000  Uiso   1.00
H197   H     0.82558   0.01330   0.30285   0.00000  Uiso   1.00
H198   H     0.80635   0.28815   0.27207   0.00000  Uiso   1.00
H199   H     0.74323   0.32530   0.36087   0.00000  Uiso   1.00
H200   H     0.94596   0.11178   0.43932   0.00000  Uiso   1.00
H201   H     0.74057   0.26229   0.33584   0.00000  Uiso   1.00
H202   H     0.83912   0.25048   0.36285   0.00000  Uiso   1.00
H203   H     0.80592   0.27953   0.41256   0.00000  Uiso   1.00
H204   H     0.85422   0.31782   0.37876   0.00000  Uiso   1.00
H205   H     0.87206   0.27987   0.20198   0.00000  Uiso   1.00
H206   H     0.93335   0.31159   0.17826   0.00000  Uiso   1.00
H207   H     0.83556   0.03839   0.21565   0.00000  Uiso   1.00
H208   H     0.88926   0.05911   0.17537   0.00000  Uiso   1.00
H209   H     0.84448   0.32899   0.11210   0.00000  Uiso   1.00
H210   H     0.79371   0.03920   0.13189   0.00000  Uiso   1.00
H211   H     0.69554   0.10125   0.09737   0.00000  Uiso   1.00
H212   H     0.79072   0.30801   0.15272   0.00000  Uiso   1.00
H213   H     0.96967   0.23428   0.39812   0.00000  Uiso   1.00
H214   H     0.67183   0.26703   0.47866   0.00000  Uiso   1.00
H215   H     0.67194   0.09100   0.01037   0.00000  Uiso   1.00
H216   H     0.82711   0.23376   0.08515   0.00000  Uiso   1.00
H217   H     0.86459   0.15207   0.40479   0.00000  Uiso   1.00
H218   H     0.82962   0.12795   0.21260   0.00000  Uiso   1.00
N219   N     0.81362   0.15216   0.23740   0.00000  Uiso   1.00
N220   N     0.85305   0.18117   0.26261   0.00000  Uiso   1.00
O221   O     0.96386   0.24631   0.25310   0.00000  Uiso   1.00
O222   O     0.75841   0.10862   0.41175   0.00000  Uiso   1.00
O223   O     0.74674   0.01093   0.26757   0.00000  Uiso   1.00
O224   O     0.92053   0.32680   0.25168   0.00000  Uiso   1.00
O225   O     0.70281   0.08702   0.24690   0.00000  Uiso   1.00
O226   O     0.72488   0.23702   0.24502   0.00000  Uiso   1.00
O227   O     0.94178   0.09632   0.25499   0.00000  Uiso   1.00
O228   O     0.96995   0.17397   0.32247   0.00000  Uiso   1.00
O229   O     0.69672   0.15937   0.17753   0.00000  Uiso   1.00
O230   O     0.73098   0.16467   0.31439   0.00000  Uiso   1.00
O231   O     0.93569   0.16866   0.18561   0.00000  Uiso   1.00
O232   O     0.92155   0.23746   0.10809   0.00000  Uiso   1.00
Zn233  Zn    0.93700   0.17287   0.25540   0.00000  Uiso   1.00
Zn234  Zn    0.72967   0.16046   0.24461   0.00000  Uiso   1.00
C235   C     0.01564   0.59825   0.25150   0.00000  Uiso   1.00
C236   C     0.31218   0.49665   0.15936   0.00000  Uiso   1.00
C237   C     0.03502   0.51333   0.39222   0.00000  Uiso   1.00
C238   C     0.30263   0.49307   0.10771   0.00000  Uiso   1.00
C239   C     0.02833   0.57191   0.46049   0.00000  Uiso   1.00
C240   C     0.31597   0.45087   0.03156   0.00000  Uiso   1.00
C241   C     0.00727   0.55217   0.41528   0.00000  Uiso   1.00
C242   C     0.33017   0.45740   0.08060   0.00000  Uiso   1.00
C243   C     0.08439   0.49421   0.41471   0.00000  Uiso   1.00
C244   C     0.26407   0.52441   0.08559   0.00000  Uiso   1.00
C245   C     0.11155   0.52164   0.45516   0.00000  Uiso   1.00
C246   C     0.31862   0.40197   0.25274   0.00000  Uiso   1.00
C247   C     0.24005   0.51019   0.03914   0.00000  Uiso   1.00
C248   C     0.08044   0.55671   0.48073   0.00000  Uiso   1.00
C249   C     0.26986   0.47570   0.01098   0.00000  Uiso   1.00
C250   C     0.16769   0.51197   0.47259   0.00000  Uiso   1.00
C251   C     0.18725   0.52768   0.02019   0.00000  Uiso   1.00
C252   C     0.28984   0.60963   0.08773   0.00000  Uiso   1.00
C253   C     0.11283   0.42592   0.36795   0.00000  Uiso   1.00
C254   C     0.12178   0.65138   0.29443   0.00000  Uiso   1.00
C255   C     0.10222   0.63097   0.34246   0.00000  Uiso   1.00
C256   C     0.15361   0.61898   0.37598   0.00000  Uiso   1.00
C257   C     0.15148   0.55724   0.04751   0.00000  Uiso   1.00
C258   C     0.23222   0.65018   0.20324   0.00000  Uiso   1.00
C259   C     0.19464   0.35911   0.18597   0.00000  Uiso   1.00
C260   C     0.15345   0.34080   0.14298   0.00000  Uiso   1.00
C261   C     0.20527   0.48791   0.44308   0.00000  Uiso   1.00
C262   C     0.10094   0.57438   0.02680   0.00000  Uiso   1.00
C263   C     0.25391   0.46726   0.46244   0.00000  Uiso   1.00
C264   C     0.02466   0.65287   0.25891   0.00000  Uiso   1.00
C265   C     0.31066   0.34769   0.25366   0.00000  Uiso   1.00
C266   C     0.02148   0.50252   0.34099   0.00000  Uiso   1.00
H267   H     0.07637   0.59934   0.04783   0.00000  Uiso   1.00
H268   H     0.17034   0.53904   0.28708   0.00000  Uiso   1.00
H269   H     0.28518   0.60805   0.04771   0.00000  Uiso   1.00
H270   H     0.00226   0.60761   0.10076   0.00000  Uiso   1.00
H271   H     0.27654   0.64770   0.09908   0.00000  Uiso   1.00
H272   H     0.14294   0.39623   0.37592   0.00000  Uiso   1.00
H273   H     0.13822   0.45591   0.34959   0.00000  Uiso   1.00
H274   H     0.07654   0.40924   0.34338   0.00000  Uiso   1.00
H275   H     0.15891   0.34664   0.30285   0.00000  Uiso   1.00
H276   H     0.13968   0.62148   0.27207   0.00000  Uiso   1.00
H277   H     0.07656   0.65864   0.36087   0.00000  Uiso   1.00
H278   H     0.27929   0.44511   0.43932   0.00000  Uiso   1.00
H279   H     0.07391   0.59562   0.33584   0.00000  Uiso   1.00
H280   H     0.17245   0.58381   0.36285   0.00000  Uiso   1.00
H281   H     0.13926   0.61286   0.41256   0.00000  Uiso   1.00
H282   H     0.18755   0.65116   0.37876   0.00000  Uiso   1.00
H283   H     0.20539   0.61320   0.20198   0.00000  Uiso   1.00
H284   H     0.26668   0.64492   0.17826   0.00000  Uiso   1.00
H285   H     0.16890   0.37172   0.21565   0.00000  Uiso   1.00
H286   H     0.22259   0.39244   0.17537   0.00000  Uiso   1.00
H287   H     0.17781   0.66232   0.11210   0.00000  Uiso   1.00
H288   H     0.12704   0.37253   0.13189   0.00000  Uiso   1.00
H289   H     0.02887   0.43459   0.09737   0.00000  Uiso   1.00
H290   H     0.12405   0.64134   0.15272   0.00000  Uiso   1.00
H291   H     0.30300   0.56762   0.39812   0.00000  Uiso   1.00
H292   H     0.00517   0.60036   0.47866   0.00000  Uiso   1.00
H293   H     0.00527   0.42434   0.01037   0.00000  Uiso   1.00
H294   H     0.16044   0.56710   0.08515   0.00000  Uiso   1.00
H295   H     0.19792   0.48540   0.40479   0.00000  Uiso   1.00
H296   H     0.16295   0.46128   0.21260   0.00000  Uiso   1.00
N297   N     0.14695   0.48550   0.23740   0.00000  Uiso   1.00
N298   N     0.18638   0.51450   0.26261   0.00000  Uiso   1.00
O299   O     0.29719   0.57964   0.25310   0.00000  Uiso   1.00
O300   O     0.09174   0.44195   0.41175   0.00000  Uiso   1.00
O301   O     0.08007   0.34426   0.26757   0.00000  Uiso   1.00
O302   O     0.25386   0.66013   0.25168   0.00000  Uiso   1.00
O303   O     0.03614   0.42036   0.24690   0.00000  Uiso   1.00
O304   O     0.05822   0.57035   0.24502   0.00000  Uiso   1.00
O305   O     0.27512   0.42965   0.25499   0.00000  Uiso   1.00
O306   O     0.30328   0.50730   0.32247   0.00000  Uiso   1.00
O307   O     0.03005   0.49270   0.17753   0.00000  Uiso   1.00
O308   O     0.06431   0.49801   0.31439   0.00000  Uiso   1.00
O309   O     0.26902   0.50199   0.18561   0.00000  Uiso   1.00
O310   O     0.25488   0.57079   0.10809   0.00000  Uiso   1.00
Zn311  Zn    0.27033   0.50621   0.25540   0.00000  Uiso   1.00
Zn312  Zn    0.06300   0.49379   0.24461   0.00000  Uiso   1.00
C313   C     0.34897   0.59825   0.25150   0.00000  Uiso   1.00
C314   C     0.64552   0.49665   0.15936   0.00000  Uiso   1.00
C315   C     0.36835   0.51333   0.39222   0.00000  Uiso   1.00
C316   C     0.63596   0.49307   0.10771   0.00000  Uiso   1.00
C317   C     0.36166   0.57191   0.46049   0.00000  Uiso   1.00
C318   C     0.64930   0.45087   0.03156   0.00000  Uiso   1.00
C319   C     0.34060   0.55217   0.41528   0.00000  Uiso   1.00
C320   C     0.66350   0.45740   0.08060   0.00000  Uiso   1.00
C321   C     0.41772   0.49421   0.41471   0.00000  Uiso   1.00
C322   C     0.59740   0.52441   0.08559   0.00000  Uiso   1.00
C323   C     0.44488   0.52164   0.45516   0.00000  Uiso   1.00
C324   C     0.65196   0.40197   0.25274   0.00000  Uiso   1.00
C325   C     0.57338   0.51019   0.03914   0.00000  Uiso   1.00
C326   C     0.41377   0.55671   0.48073   0.00000  Uiso   1.00
C327   C     0.60320   0.47570   0.01098   0.00000  Uiso   1.00
C328   C     0.50102   0.51197   0.47259   0.00000  Uiso   1.00
C329   C     0.52059   0.52768   0.02019   0.00000  Uiso   1.00
C330   C     0.62318   0.60963   0.08773   0.00000  Uiso   1.00
C331   C     0.44616   0.42592   0.36795   0.00000  Uiso   1.00
C332   C     0.45512   0.65138   0.29443   0.00000  Uiso   1.00
C333   C     0.43555   0.63097   0.34246   0.00000  Uiso   1.00
C334   C     0.48694   0.61898   0.37598   0.00000  Uiso   1.00
C335   C     0.48481   0.55724   0.04751   0.00000  Uiso   1.00
C336   C     0.56556   0.65018   0.20324   0.00000  Uiso   1.00
C337   C     0.52798   0.35911   0.18597   0.00000  Uiso   1.00
C338   C     0.48678   0.34080   0.14298   0.00000  Uiso   1.00
C339   C     0.53861   0.48791   0.44308   0.00000  Uiso   1.00
C340   C     0.43428   0.57438   0.02680   0.00000  Uiso   1.00
C341   C     0.58724   0.46726   0.46244   0.00000  Uiso   1.00
C342   C     0.35799   0.65287   0.25891   0.00000  Uiso   1.00
C343   C     0.64399   0.34769   0.25366   0.00000  Uiso   1.00
C344   C     0.35481   0.50252   0.34099   0.00000  Uiso   1.00
H345   H     0.40971   0.59934   0.04783   0.00000  Uiso   1.00
H346   H     0.50368   0.53904   0.28708   0.00000  Uiso   1.00
H347   H     0.61851   0.60805   0.04771   0.00000  Uiso   1.00
H348   H     0.33559   0.60761   0.10076   0.00000  Uiso   1.00
H349   H     0.60987   0.64770   0.09908   0.00000  Uiso   1.00
H350   H     0.47628   0.39623   0.37592   0.00000  Uiso   1.00
H351   H     0.47156   0.45591   0.34959   0.00000  Uiso   1.00
H352   H     0.40987   0.40924   0.34338   0.00000  Uiso   1.00
H353   H     0.49225   0.34664   0.30285   0.00000  Uiso   1.00
H354   H     0.47302   0.62148   0.27207   0.00000  Uiso   1.00
H355   H     0.40989   0.65864   0.36087   0.00000  Uiso   1.00
H356   H     0.61262   0.44511   0.43932   0.00000  Uiso   1.00
H357   H     0.40724   0.59562   0.33584   0.00000  Uiso   1.00
H358   H     0.50579   0.58381   0.36285   0.00000  Uiso   1.00
H359   H     0.47259   0.61286   0.41256   0.00000  Uiso   1.00
H360   H     0.52088   0.65116   0.37876   0.00000  Uiso   1.00
H361   H     0.53873   0.61320   0.20198   0.00000  Uiso   1.00
H362   H     0.60001   0.64492   0.17826   0.00000  Uiso   1.00
H363   H     0.50223   0.37172   0.21565   0.00000  Uiso   1.00
H364   H     0.55592   0.39244   0.17537   0.00000  Uiso   1.00
H365   H     0.51114   0.66232   0.11210   0.00000  Uiso   1.00
H366   H     0.46038   0.37253   0.13189   0.00000  Uiso   1.00
H367   H     0.36221   0.43459   0.09737   0.00000  Uiso   1.00
H368   H     0.45738   0.64134   0.15272   0.00000  Uiso   1.00
H369   H     0.63633   0.56762   0.39812   0.00000  Uiso   1.00
H370   H     0.33850   0.60036   0.47866   0.00000  Uiso   1.00
H371   H     0.33860   0.42434   0.01037   0.00000  Uiso   1.00
H372   H     0.49377   0.56710   0.08515   0.00000  Uiso   1.00
H373   H     0.53125   0.48540   0.40479   0.00000  Uiso   1.00
H374   H     0.49628   0.46128   0.21260   0.00000  Uiso   1.00
N375   N     0.48029   0.48550   0.23740   0.00000  Uiso   1.00
N376   N     0.51971   0.51450   0.26261   0.00000  Uiso   1.00
O377   O     0.63052   0.57964   0.25310   0.00000  Uiso   1.00
O378   O     0.42508   0.44195   0.41175   0.00000  Uiso   1.00
O379   O     0.41340   0.34426   0.26757   0.00000  Uiso   1.00
O380   O     0.58719   0.66013   0.25168   0.00000  Uiso   1.00
O381   O     0.36948   0.42036   0.24690   0.00000  Uiso   1.00
O382   O     0.39155   0.57035   0.24502   0.00000  Uiso   1.00
O383   O     0.60845   0.42965   0.25499   0.00000  Uiso   1.00
O384   O     0.63662   0.50730   0.32247   0.00000  Uiso   1.00
O385   O     0.36338   0.49270   0.17753   0.00000  Uiso   1.00
O386   O     0.39764   0.49801   0.31439   0.00000  Uiso   1.00
O387   O     0.60236   0.50199   0.18561   0.00000  Uiso   1.00
O388   O     0.58821   0.57079   0.10809   0.00000  Uiso   1.00
Zn389  Zn    0.60366   0.50621   0.25540   0.00000  Uiso   1.00
Zn390  Zn    0.39634   0.49379   0.24461   0.00000  Uiso   1.00
C391   C     0.68231   0.59825   0.25150   0.00000  Uiso   1.00
C392   C     0.97885   0.49665   0.15936   0.00000  Uiso   1.00
C393   C     0.70169   0.51333   0.39222   0.00000  Uiso   1.00
C394   C     0.96929   0.49307   0.10771   0.00000  Uiso   1.00
C395   C     0.69500   0.57191   0.46049   0.00000  Uiso   1.00
C396   C     0.98263   0.45087   0.03156   0.00000  Uiso   1.00
C397   C     0.67394   0.55217   0.41528   0.00000  Uiso   1.00
C398   C     0.99683   0.45740   0.08060   0.00000  Uiso   1.00
C399   C     0.75105   0.49421   0.41471   0.00000  Uiso   1.00
C400   C     0.93073   0.52441   0.08559   0.00000  Uiso   1.00
C401   C     0.77822   0.52164   0.45516   0.00000  Uiso   1.00
C402   C     0.98529   0.40197   0.25274   0.00000  Uiso   1.00
C403   C     0.90672   0.51019   0.03914   0.00000  Uiso   1.00
C404   C     0.74711   0.55671   0.48073   0.00000  Uiso   1.00
C405   C     0.93653   0.47570   0.01098   0.00000  Uiso   1.00
C406   C     0.83435   0.51197   0.47259   0.00000  Uiso   1.00
C407   C     0.85392   0.52768   0.02019   0.00000  Uiso   1.00
C408   C     0.95651   0.60963   0.08773   0.00000  Uiso   1.00
C409   C     0.77949   0.42592   0.36795   0.00000  Uiso   1.00
C410   C     0.78845   0.65138   0.29443   0.00000  Uiso   1.00
C411   C     0.76888   0.63097   0.34246   0.00000  Uiso   1.00
C412   C     0.82028   0.61898   0.37598   0.00000  Uiso   1.00
C413   C     0.81815   0.55724   0.04751   0.00000  Uiso   1.00
C414   C     0.89889   0.65018   0.20324   0.00000  Uiso   1.00
C415   C     0.86131   0.35911   0.18597   0.00000  Uiso   1.00
C416   C     0.82012   0.34080   0.14298   0.00000  Uiso   1.00
C417   C     0.87194   0.48791   0.44308   0.00000  Uiso   1.00
C418   C     0.76761   0.57438   0.02680   0.00000  Uiso   1.00
C419   C     0.92057   0.46726   0.46244   0.00000  Uiso   1.00
C420   C     0.69133   0.65287   0.25891   0.00000  Uiso   1.00
C421   C     0.97733   0.34769   0.25366   0.00000  Uiso   1.00
C422   C     0.68815   0.50252   0.34099   0.00000  Uiso   1.00
H423   H     0.74304   0.59934   0.04783   0.00000  Uiso   1.00
H424   H     0.83701   0.53904   0.28708   0.00000  Uiso   1.00
H425   H     0.95184   0.60805   0.04771   0.00000  Uiso   1.00
H426   H     0.66892   0.60761   0.10076   0.00000  Uiso   1.00
H427   H     0.94321   0.64770   0.09908   0.00000  Uiso   1.00
H428   H     0.80961   0.39623   0.37592   0.00000  Uiso   1.00
H429   H     0.80489   0.45591   0.34959   0.00000  Uiso   1.00
H430   H     0.74320   0.40924   0.34338   0.00000  Uiso   1.00
H431   H     0.82558   0.34664   0.30285   0.00000  Uiso   1.00
H432   H     0.80635   0.62148   0.27207   0.00000  Uiso   1.00
H433   H     0.74323   0.65864   0.36087   0.00000  Uiso   1.00
H434   H     0.94596   0.44511   0.43932   0.00000  Uiso   1.00
H435   H     0.74057   0.59562   0.33584   0.00000  Uiso   1.00
H436   H     0.83912   0.58381   0.36285   0.00000  Uiso   1.00
H437   H     0.80592   0.61286   0.41256   0.00000  Uiso   1.00
H438   H     0.85422   0.65116   0.37876   0.00000  Uiso   1.00
H439   H     0.87206   0.61320   0.20198   0.00000  Uiso   1.00
H440   H     0.93335   0.64492   0.17826   0.00000  Uiso   1.00
H441   H     0.83556   0.37172   0.21565   0.00000  Uiso   1.00
H442   H     0.88926   0.39244   0.17537   0.00000  Uiso   1.00
H443   H     0.84448   0.66232   0.11210   0.00000  Uiso   1.00
H444   H     0.79371   0.37253   0.13189   0.00000  Uiso   1.00
H445   H     0.69554   0.43459   0.09737   0.00000  Uiso   1.00
H446   H     0.79072   0.64134   0.15272   0.00000  Uiso   1.00
H447   H     0.96967   0.56762   0.39812   0.00000  Uiso   1.00
H448   H     0.67183   0.60036   0.47866   0.00000  Uiso   1.00
H449   H     0.67194   0.42434   0.01037   0.00000  Uiso   1.00
H450   H     0.82711   0.56710   0.08515   0.00000  Uiso   1.00
H451   H     0.86459   0.48540   0.40479   0.00000  Uiso   1.00
H452   H     0.82962   0.46128   0.21260   0.00000  Uiso   1.00
N453   N     0.81362   0.48550   0.23740   0.00000  Uiso   1.00
N454   N     0.85305   0.51450   0.26261   0.00000  Uiso   1.00
O455   O     0.96386   0.57964   0.25310   0.00000  Uiso   1.00
O456   O     0.75841   0.44195   0.41175   0.00000  Uiso   1.00
O457   O     0.74674   0.34426   0.26757   0.00000  Uiso   1.00
O458   O     0.92053   0.66013   0.25168   0.00000  Uiso   1.00
O459   O     0.70281   0.42036   0.24690   0.00000  Uiso   1.00
O460   O     0.72488   0.57035   0.24502   0.00000  Uiso   1.00
O461   O     0.94178   0.42965   0.25499   0.00000  Uiso   1.00
O462   O     0.96995   0.50730   0.32247   0.00000  Uiso   1.00
O463   O     0.69672   0.49270   0.17753   0.00000  Uiso   1.00
O464   O     0.73098   0.49801   0.31439   0.00000  Uiso   1.00
O465   O     0.93569   0.50199   0.18561   0.00000  Uiso   1.00
O466   O     0.92155   0.57079   0.10809   0.00000  Uiso   1.00
Zn467  Zn    0.93700   0.50621   0.25540   0.00000  Uiso   1.00
Zn468  Zn    0.72967   0.49379   0.24461   0.00000  Uiso   1.00
C469   C     0.01564   0.93158   0.25150   0.00000  Uiso   1.00
C470   C     0.31218   0.82998   0.15936   0.00000  Uiso   1.00
C471   C     0.03502   0.84666   0.39222   0.00000  Uiso   1.00
C472   C     0.30263   0.82640   0.10771   0.00000  Uiso   1.00
C473   C     0.02833   0.90524   0.46049   0.00000  Uiso   1.00
C474   C     0.31597   0.78421   0.03156   0.00000  Uiso   1.00
C475   C     0.00727   0.88550   0.41528   0.00000  Uiso   1.00
C476   C     0.33017   0.79073   0.08060   0.00000  Uiso   1.00
C477   C     0.08439   0.82754   0.41471   0.00000  Uiso   1.00
C478   C     0.26407   0.85775   0.08559   0.00000  Uiso   1.00
C479   C     0.11155   0.85498   0.45516   0.00000  Uiso   1.00
C480   C     0.31862   0.73530   0.25274   0.00000  Uiso   1.00
C481   C     0.24005   0.84352   0.03914   0.00000  Uiso   1.00
C482   C     0.08044   0.89005   0.48073   0.00000  Uiso   1.00
C483   C     0.26986   0.80903   0.01098   0.00000  Uiso   1.00
C484   C     0.16769   0.84531   0.47259   0.00000  Uiso   1.00
C485   C     0.18725   0.86102   0.02019   0.00000  Uiso   1.00
C486   C     0.28984   0.94296   0.08773   0.00000  Uiso   1.00
C487   C     0.11283   0.75925   0.36795   0.00000  Uiso   1.00
C488   C     0.12178   0.98472   0.29443   0.00000  Uiso   1.00
C489   C     0.10222   0.96430   0.34246   0.00000  Uiso   1.00
C490   C     0.15361   0.95232   0.37598   0.00000  Uiso   1.00
C491   C     0.15148   0.89057   0.04751   0.00000  Uiso   1.00
C492   C     0.23222   0.98352   0.20324   0.00000  Uiso   1.00
C493   C     0.19464   0.69244   0.18597   0.00000  Uiso   1.00
C494   C     0.15345   0.67414   0.14298   0.00000  Uiso   1.00
C495   C     0.20527   0.82124   0.44308   0.00000  Uiso   1.00
C496   C     0.10094   0.90771   0.02680   0.00000  Uiso   1.00
C497   C     0.25391   0.80059   0.46244   0.00000  Uiso   1.00
C498   C     0.02466   0.98620   0.25891   0.00000  Uiso   1.00
C499   C     0.31066   0.68102   0.25366   0.00000  Uiso   1.00
C500   C     0.02148   0.83585   0.34099   0.00000  Uiso   1.00
H501   H     0.07637   0.93267   0.04783   0.00000  Uiso   1.00
H502   H     0.17034   0.87237   0.28708   0.00000  Uiso   1.00
H503   H     0.28518   0.94138   0.04771   0.00000  Uiso   1.00
H504   H     0.00226   0.94094   0.10076   0.00000  Uiso   1.00
H505   H     0.27654   0.98103   0.09908   0.00000  Uiso   1.00
H506   H     0.14294   0.72957   0.37592   0.00000  Uiso   1.00
H507   H     0.13822   0.78924   0.34959   0.00000  Uiso   1.00
H508   H     0.07654   0.74257   0.34338   0.00000  Uiso   1.00
H509   H     0.15891   0.67997   0.30285   0.00000  Uiso   1.00
H510   H     0.13968   0.95482   0.27207   0.00000  Uiso   1.00
H511   H     0.07656   0.99197   0.36087   0.00000  Uiso   1.00
H512   H     0.27929   0.77844   0.43932   0.00000  Uiso   1.00
H513   H     0.07391   0.92895   0.33584   0.00000  Uiso   1.00
H514   H     0.17245   0.91714   0.36285   0.00000  Uiso   1.00
H515   H     0.13926   0.94619   0.41256   0.00000  Uiso   1.00
H516   H     0.18755   0.98449   0.37876   0.00000  Uiso   1.00
H517   H     0.20539   0.94654   0.20198   0.00000  Uiso   1.00
H518   H     0.26668   0.97825   0.17826   0.00000  Uiso   1.00
H519   H     0.16890   0.70506   0.21565   0.00000  Uiso   1.00
H520   H     0.22259   0.72578   0.17537   0.00000  Uiso   1.00
H521   H     0.17781   0.99566   0.11210   0.00000  Uiso   1.00
H522   H     0.12704   0.70587   0.13189   0.00000  Uiso   1.00
H523   H     0.02887   0.76792   0.09737   0.00000  Uiso   1.00
H524   H     0.12405   0.97467   0.15272   0.00000  Uiso   1.00
H525   H     0.30300   0.90095   0.39812   0.00000  Uiso   1.00
H526   H     0.00517   0.93369   0.47866   0.00000  Uiso   1.00
H527   H     0.00527   0.75767   0.01037   0.00000  Uiso   1.00
H528   H     0.16044   0.90043   0.08515   0.00000  Uiso   1.00
H529   H     0.19792   0.81873   0.40479   0.00000  Uiso   1.00
H530   H     0.16295   0.79461   0.21260   0.00000  Uiso   1.00
N531   N     0.14695   0.81883   0.23740   0.00000  Uiso   1.00
N532   N     0.18638   0.84784   0.26261   0.00000  Uiso   1.00
O533   O     0.29719   0.91298   0.25310   0.00000  Uiso   1.00
O534   O     0.09174   0.77529   0.41175   0.00000  Uiso   1.00
O535   O     0.08007   0.67759   0.26757   0.00000  Uiso   1.00
O536   O     0.25386   0.99346   0.25168   0.00000  Uiso   1.00
O537   O     0.03614   0.75369   0.24690   0.00000  Uiso   1.00
O538   O     0.05822   0.90368   0.24502   0.00000  Uiso   1.00
O539   O     0.27512   0.76298   0.25499   0.00000  Uiso   1.00
O540   O     0.30328   0.84063   0.32247   0.00000  Uiso   1.00
O541   O     0.03005   0.82603   0.17753   0.00000  Uiso   1.00
O542   O     0.06431   0.83134   0.31439   0.00000  Uiso   1.00
O543   O     0.26902   0.83533   0.18561   0.00000  Uiso   1.00
O544   O     0.25488   0.90412   0.10809   0.00000  Uiso   1.00
Zn545  Zn    0.27033   0.83954   0.25540   0.00000  Uiso   1.00
Zn546  Zn    0.06300   0.82713   0.24461   0.00000  Uiso   1.00
C547   C     0.34897   0.93158   0.25150   0.00000  Uiso   1.00
C548   C     0.64552   0.82998   0.15936   0.00000  Uiso   1.00
C549   C     0.36835   0.84666   0.39222   0.00000  Uiso   1.00
C550   C     0.63596   0.82640   0.10771   0.00000  Uiso   1.00
C551   C     0.36166   0.90524   0.46049   0.00000  Uiso   1.00
C552   C     0.64930   0.78421   0.03156   0.00000  Uiso   1.00
C553   C     0.34060   0.88550   0.41528   0.00000  Uiso   1.00
C554   C     0.66350   0.79073   0.08060   0.00000  Uiso   1.00
C555   C     0.41772   0.82754   0.41471   0.00000  Uiso   1.00
C556   C     0.59740   0.85775   0.08559   0.00000  Uiso   1.00
C557   C     0.44488   0.85498   0.45516   0.00000  Uiso   1.00
C558   C     0.65196   0.73530   0.25274   0.00000  Uiso   1.00
C559   C     0.57338   0.84352   0.03914   0.00000  Uiso   1.00
C560   C     0.41377   0.89005   0.48073   0.00000  Uiso   1.00
C561   C     0.60320   0.80903   0.01098   0.00000  Uiso   1.00
C562   C     0.50102   0.84531   0.47259   0.00000  Uiso   1.00
C563   C     0.52059   0.86102   0.02019   0.00000  Uiso   1.00
C564   C     0.62318   0.94296   0.08773   0.00000  Uiso   1.00
C565   C     0.44616   0.75925   0.36795   0.00000  Uiso   1.00
C566   C     0.45512   0.98472   0.29443   0.00000  Uiso   1.00
C567   C     0.43555   0.96430   0.34246   0.00000  Uiso   1.00
C568   C     0.48694   0.95232   0.37598   0.00000  Uiso   1.00
C569   C     0.48481   0.89057   0.04751   0.00000  Uiso   1.00
C570   C     0.56556   0.98352   0.20324   0.00000  Uiso   1.00
C571   C     0.52798   0.69244   0.18597   0.00000  Uiso   1.00
C572   C     0.48678   0.67414   0.14298   0.00000  Uiso   1.00
C573   C     0.53861   0.82124   0.44308   0.00000  Uiso   1.00
C574   C     0.43428   0.90771   0.02680   0.00000  Uiso   1.00
C575   C     0.58724   0.80059   0.46244   0.00000  Uiso   1.00
C576   C     0.35799   0.98620   0.25891   0.00000  Uiso   1.00
C577   C     0.64399   0.68102   0.25366   0.00000  Uiso   1.00
C578   C     0.35481   0.83585   0.34099   0.00000  Uiso   1.00
H579   H     0.40971   0.93267   0.04783   0.00000  Uiso   1.00
H580   H     0.50368   0.87237   0.28708   0.00000  Uiso   1.00
H581   H     0.61851   0.94138   0.04771   0.00000  Uiso   1.00
H582   H     0.33559   0.94094   0.10076   0.00000  Uiso   1.00
H583   H     0.60987   0.98103   0.09908   0.00000  Uiso   1.00
H584   H     0.47628   0.72957   0.37592   0.00000  Uiso   1.00
H585   H     0.47156   0.78924   0.34959   0.00000  Uiso   1.00
H586   H     0.40987   0.74257   0.34338   0.00000  Uiso   1.00
H587   H     0.49225   0.67997   0.30285   0.00000  Uiso   1.00
H588   H     0.47302   0.95482   0.27207   0.00000  Uiso   1.00
H589   H     0.40989   0.99197   0.36087   0.00000  Uiso   1.00
H590   H     0.61262   0.77844   0.43932   0.00000  Uiso   1.00
H591   H     0.40724   0.92895   0.33584   0.00000  Uiso   1.00
H592   H     0.50579   0.91714   0.36285   0.00000  Uiso   1.00
H593   H     0.47259   0.94619   0.41256   0.00000  Uiso   1.00
H594   H     0.52088   0.98449   0.37876   0.00000  Uiso   1.00
H595   H     0.53873   0.94654   0.20198   0.00000  Uiso   1.00
H596   H     0.60001   0.97825   0.17826   0.00000  Uiso   1.00
H597   H     0.50223   0.70506   0.21565   0.00000  Uiso   1.00
H598   H     0.55592   0.72578   0.17537   0.00000  Uiso   1.00
H599   H     0.51114   0.99566   0.11210   0.00000  Uiso   1.00
H600   H     0.46038   0.70587   0.13189   0.00000  Uiso   1.00
H601   H     0.36221   0.76792   0.09737   0.00000  Uiso   1.00
H602   H     0.45738   0.97467   0.15272   0.00000  Uiso   1.00
H603   H     0.63633   0.90095   0.39812   0.00000  Uiso   1.00
H604   H     0.33850   0.93369   0.47866   0.00000  Uiso   1.00
H605   H     0.33860   0.75767   0.01037   0.00000  Uiso   1.00
H606   H     0.49377   0.90043   0.08515   0.00000  Uiso   1.00
H607   H     0.53125   0.81873   0.40479   0.00000  Uiso   1.00
H608   H     0.49628   0.79461   0.21260   0.00000  Uiso   1.00
N609   N     0.48029   0.81883   0.23740   0.00000  Uiso   1.00
N610   N     0.51971   0.84784   0.26261   0.00000  Uiso   1.00
O611   O     0.63052   0.91298   0.25310   0.00000  Uiso   1.00
O612   O     0.42508   0.77529   0.41175   0.00000  Uiso   1.00
O613   O     0.41340   0.67759   0.26757   0.00000  Uiso   1.00
O614   O     0.58719   0.99346   0.25168   0.00000  Uiso   1.00
O615   O     0.36948   0.75369   0.24690   0.00000  Uiso   1.00
O616   O     0.39155   0.90368   0.24502   0.00000  Uiso   1.00
O617   O     0.60845   0.76298   0.25499   0.00000  Uiso   1.00
O618   O     0.63662   0.84063   0.32247   0.00000  Uiso   1.00
O619   O     0.36338   0.82603   0.17753   0.00000  Uiso   1.00
O620   O     0.39764   0.83134   0.31439   0.00000  Uiso   1.00
O621   O     0.60236   0.83533   0.18561   0.00000  Uiso   1.00
O622   O     0.58821   0.90412   0.10809   0.00000  Uiso   1.00
Zn623  Zn    0.60366   0.83954   0.25540   0.00000  Uiso   1.00
Zn624  Zn    0.39634   0.82713   0.24461   0.00000  Uiso   1.00
C625   C     0.68231   0.93158   0.25150   0.00000  Uiso   1.00
C626   C     0.97885   0.82998   0.15936   0.00000  Uiso   1.00
C627   C     0.70169   0.84666   0.39222   0.00000  Uiso   1.00
C628   C     0.96929   0.82640   0.10771   0.00000  Uiso   1.00
C629   C     0.69500   0.90524   0.46049   0.00000  Uiso   1.00
C630   C     0.98263   0.78421   0.03156   0.00000  Uiso   1.00
C631   C     0.67394   0.88550   0.41528   0.00000  Uiso   1.00
C632   C     0.99683   0.79073   0.08060   0.00000  Uiso   1.00
C633   C     0.75105   0.82754   0.41471   0.00000  Uiso   1.00
C634   C     0.93073   0.85775   0.08559   0.00000  Uiso   1.00
C635   C     0.77822   0.85498   0.45516   0.00000  Uiso   1.00
C636   C     0.98529   0.73530   0.25274   0.00000  Uiso   1.00
C637   C     0.90672   0.84352   0.03914   0.00000  Uiso   1.00
C638   C     0.74711   0.89005   0.48073   0.00000  Uiso   1.00
C639   C     0.93653   0.80903   0.01098   0.00000  Uiso   1.00
C640   C     0.83435   0.84531   0.47259   0.00000  Uiso   1.00
C641   C     0.85392   0.86102   0.02019   0.00000  Uiso   1.00
C642   C     0.95651   0.94296   0.08773   0.00000  Uiso   1.00
C643   C     0.77949   0.75925   0.36795   0.00000  Uiso   1.00
C644   C     0.78845   0.98472   0.29443   0.00000  Uiso   1.00
C645   C     0.76888   0.96430   0.34246   0.00000  Uiso   1.00
C646   C     0.82028   0.95232   0.37598   0.00000  Uiso   1.00
C647   C     0.81815   0.89057   0.04751   0.00000  Uiso   1.00
C648   C     0.89889   0.98352   0.20324   0.00000  Uiso   1.00
C649   C     0.86131   0.69244   0.18597   0.00000  Uiso   1.00
C650   C     0.82012   0.67414   0.14298   0.00000  Uiso   1.00
C651   C     0.87194   0.82124   0.44308   0.00000  Uiso   1.00
C652   C     0.76761   0.90771   0.02680   0.00000  Uiso   1.00
C653   C     0.92057   0.80059   0.46244   0.00000  Uiso   1.00
C654   C     0.69133   0.98620   0.25891   0.00000  Uiso   1.00
C655   C     0.97733   0.68102   0.25366   0.00000  Uiso   1.00
C656   C     0.68815   0.83585   0.34099   0.00000  Uiso   1.00
H657   H     0.74304   0.93267   0.04783   0.00000  Uiso   1.00
H658   H     0.83701   0.87237   0.28708   0.00000  Uiso   1.00
H659   H     0.95184   0.94138   0.04771   0.00000  Uiso   1.00
H660   H     0.66892   0.94094   0.10076   0.00000  Uiso   1.00
H661   H     0.94321   0.98103   0.09908   0.00000  Uiso   1.00
H662   H     0.80961   0.72957   0.37592   0.00000  Uiso   1.00
H663   H     0.80489   0.78924   0.34959   0.00000  Uiso   1.00
H664   H     0.74320   0.74257   0.34338   0.00000  Uiso   1.00
H665   H     0.82558   0.67997   0.30285   0.00000  Uiso   1.00
H666   H     0.80635   0.95482   0.27207   0.00000  Uiso   1.00
H667   H     0.74323   0.99197   0.36087   0.00000  Uiso   1.00
H668   H     0.94596   0.77844   0.43932   0.00000  Uiso   1.00
H669   H     0.74057   0.92895   0.33584   0.00000  Uiso   1.00
H670   H     0.83912   0.91714   0.36285   0.00000  Uiso   1.00
H671   H     0.80592   0.94619   0.41256   0.00000  Uiso   1.00
H672   H     0.85422   0.98449   0.37876   0.00000  Uiso   1.00
H673   H     0.87206   0.94654   0.20198   0.00000  Uiso   1.00
H674   H     0.93335   0.97825   0.17826   0.00000  Uiso   1.00
H675   H     0.83556   0.70506   0.21565   0.00000  Uiso   1.00
H676   H     0.88926   0.72578   0.17537   0.00000  Uiso   1.00
H677   H     0.84448   0.99566   0.11210   0.00000  Uiso   1.00
H678   H     0.79371   0.70587   0.13189   0.00000  Uiso   1.00
H679   H     0.69554   0.76792   0.09737   0.00000  Uiso   1.00
H680   H     0.79072   0.97467   0.15272   0.00000  Uiso   1.00
H681   H     0.96967   0.90095   0.39812   0.00000  Uiso   1.00
H682   H     0.67183   0.93369   0.47866   0.00000  Uiso   1.00
H683   H     0.67194   0.75767   0.01037   0.00000  Uiso   1.00
H684   H     0.82711   0.90043   0.08515   0.00000  Uiso   1.00
H685   H     0.86459   0.81873   0.40479   0.00000  Uiso   1.00
H686   H     0.82962   0.79461   0.21260   0.00000  Uiso   1.00
N687   N     0.81362   0.81883   0.23740   0.00000  Uiso   1.00
N688   N     0.85305   0.84784   0.26261   0.00000  Uiso   1.00
O689   O     0.96386   0.91298   0.25310   0.00000  Uiso   1.00
O690   O     0.75841   0.77529   0.41175   0.00000  Uiso   1.00
O691   O     0.74674   0.67759   0.26757   0.00000  Uiso   1.00
O692   O     0.92053   0.99346   0.25168   0.00000  Uiso   1.00
O693   O     0.70281   0.75369   0.24690   0.00000  Uiso   1.00
O694   O     0.72488   0.90368   0.24502   0.00000  Uiso   1.00
O695   O     0.94178   0.76298   0.25499   0.00000  Uiso   1.00
O696   O     0.96995   0.84063   0.32247   0.00000  Uiso   1.00
O697   O     0.69672   0.82603   0.17753   0.00000  Uiso   1.00
O698   O     0.73098   0.83134   0.31439   0.00000  Uiso   1.00
O699   O     0.93569   0.83533   0.18561   0.00000  Uiso   1.00
O700   O     0.92155   0.90412   0.10809   0.00000  Uiso   1.00
Zn701  Zn    0.93700   0.83954   0.25540   0.00000  Uiso   1.00
Zn702  Zn    0.72967   0.82713   0.24461   0.00000  Uiso   1.00
C703   C     0.01564   0.26491   0.75150   0.00000  Uiso   1.00
C704   C     0.31218   0.16332   0.65936   0.00000  Uiso   1.00
C705   C     0.03502   0.18000   0.89222   0.00000  Uiso   1.00
C706   C     0.30263   0.15974   0.60771   0.00000  Uiso   1.00
C707   C     0.02833   0.23858   0.96049   0.00000  Uiso   1.00
C708   C     0.31597   0.11754   0.53156   0.00000  Uiso   1.00
C709   C     0.00727   0.21884   0.91528   0.00000  Uiso   1.00
C710   C     0.33017   0.12406   0.58060   0.00000  Uiso   1.00
C711   C     0.08439   0.16088   0.91471   0.00000  Uiso   1.00
C712   C     0.26407   0.19108   0.58559   0.00000  Uiso   1.00
C713   C     0.11155   0.18831   0.95516   0.00000  Uiso   1.00
C714   C     0.31862   0.06863   0.75274   0.00000  Uiso   1.00
C715   C     0.24005   0.17685   0.53914   0.00000  Uiso   1.00
C716   C     0.08044   0.22338   0.98073   0.00000  Uiso   1.00
C717   C     0.26986   0.14236   0.51098   0.00000  Uiso   1.00
C718   C     0.16769   0.17864   0.97259   0.00000  Uiso   1.00
C719   C     0.18725   0.19435   0.52019   0.00000  Uiso   1.00
C720   C     0.28984   0.27630   0.58773   0.00000  Uiso   1.00
C721   C     0.11283   0.09258   0.86795   0.00000  Uiso   1.00
C722   C     0.12178   0.31805   0.79443   0.00000  Uiso   1.00
C723   C     0.10222   0.29763   0.84246   0.00000  Uiso   1.00
C724   C     0.15361   0.28565   0.87598   0.00000  Uiso   1.00
C725   C     0.15148   0.22390   0.54751   0.00000  Uiso   1.00
C726   C     0.23222   0.31685   0.70324   0.00000  Uiso   1.00
C727   C     0.19464   0.02577   0.68597   0.00000  Uiso   1.00
C728   C     0.15345   0.00747   0.64298   0.00000  Uiso   1.00
C729   C     0.20527   0.15458   0.94308   0.00000  Uiso   1.00
C730   C     0.10094   0.24104   0.52680   0.00000  Uiso   1.00
C731   C     0.25391   0.13392   0.96244   0.00000  Uiso   1.00
C732   C     0.02466   0.31953   0.75891   0.00000  Uiso   1.00
C733   C     0.31066   0.01436   0.75366   0.00000  Uiso   1.00
C734   C     0.02148   0.16919   0.84099   0.00000  Uiso   1.00
H735   H     0.07637   0.26601   0.54783   0.00000  Uiso   1.00
H736   H     0.17034   0.20571   0.78708   0.00000  Uiso   1.00
H737   H     0.28518   0.27471   0.54771   0.00000  Uiso   1.00
H738   H     0.00226   0.27427   0.60076   0.00000  Uiso   1.00
H739   H     0.27654   0.31437   0.59908   0.00000  Uiso   1.00
H740   H     0.14294   0.06290   0.87592   0.00000  Uiso   1.00
H741   H     0.13822   0.12257   0.84959   0.00000  Uiso   1.00
H742   H     0.07654   0.07591   0.84338   0.00000  Uiso   1.00
H743   H     0.15891   0.01330   0.80285   0.00000  Uiso   1.00
H744   H     0.13968   0.28815   0.77207   0.00000  Uiso   1.00
H745   H     0.07656   0.32530   0.86087   0.00000  Uiso   1.00
H746   H     0.27929   0.11178   0.93932   0.00000  Uiso   1.00
H747   H     0.07391   0.26229   0.83584   0.00000  Uiso   1.00
H748   H     0.17245   0.25048   0.86285   0.00000  Uiso   1.00
H749   H     0.13926   0.27953   0.91256   0.00000  Uiso   1.00
H750   H     0.18755   0.31782   0.87876   0.00000  Uiso   1.00
H751   H     0.20539   0.27987   0.70198   0.00000  Uiso   1.00
H752   H     0.26668   0.31159   0.67826   0.00000  Uiso   1.00
H753   H     0.16890   0.03839   0.71565   0.00000  Uiso   1.00
H754   H     0.22259   0.05911   0.67537   0.00000  Uiso   1.00
H755   H     0.17781   0.32899   0.61210   0.00000  Uiso   1.00
H756   H     0.12704   0.03920   0.63189   0.00000  Uiso   1.00
H757   H     0.02887   0.10125   0.59737   0.00000  Uiso   1.00
H758   H     0.12405   0.30801   0.65272   0.00000  Uiso   1.00
H759   H     0.30300   0.23428   0.89812   0.00000  Uiso   1.00
H760   H     0.00517   0.26703   0.97866   0.00000  Uiso   1.00
H761   H     0.00527   0.09100   0.51037   0.00000  Uiso   1.00
H762   H     0.16044   0.23376   0.58515   0.00000  Uiso   1.00
H763   H     0.19792   0.15207   0.90479   0.00000  Uiso   1.00
H764   H     0.16295   0.12795   0.71260   0.00000  Uiso   1.00
N765   N     0.14695   0.15216   0.73740   0.00000  Uiso   1.00
N766   N     0.18638   0.18117   0.76261   0.00000  Uiso   1.00
O767   O     0.29719   0.24631   0.75310   0.00000  Uiso   1.00
O768   O     0.09174   0.10862   0.91175   0.00000  Uiso   1.00
O769   O     0.08007   0.01093   0.76757   0.00000  Uiso   1.00
O770   O     0.25386   0.32680   0.75168   0.00000  Uiso   1.00
O771   O     0.03614   0.08702   0.74690   0.00000  Uiso   1.00
O772   O     0.05822   0.23702   0.74502   0.00000  Uiso   1.00
O773   O     0.27512   0.09632   0.75499   0.00000  Uiso   1.00
O774   O     0.30328   0.17397   0.82247   0.00000  Uiso   1.00
O775   O     0.03005   0.15937   0.67753   0.00000  Uiso   1.00
O776   O     0.06431   0.16467   0.81439   0.00000  Uiso   1.00
O777   O     0.26902   0.16866   0.68561   0.00000  Uiso   1.00
O778   O     0.25488   0.23746   0.60809   0.00000  Uiso   1.00
Zn779  Zn    0.27033   0.17287   0.75540   0.00000  Uiso   1.00
Zn780  Zn    0.06300   0.16046   0.74461   0.00000  Uiso   1.00
C781   C     0.34897   0.26491   0.75150   0.00000  Uiso   1.00
C782   C     0.64552   0.16332   0.65936   0.00000  Uiso   1.00
C783   C     0.36835   0.18000   0.89222   0.00000  Uiso   1.00
C784   C     0.63596   0.15974   0.60771   0.00000  Uiso   1.00
C785   C     0.36166   0.23858   0.96049   0.00000  Uiso   1.00
C786   C     0.64930   0.11754   0.53156   0.00000  Uiso   1.00
C787   C     0.34060   0.21884   0.91528   0.00000  Uiso   1.00
C788   C     0.66350   0.12406   0.58060   0.00000  Uiso   1.00
C789   C     0.41772   0.16088   0.91471   0.00000  Uiso   1.00
C790   C     0.59740   0.19108   0.58559   0.00000  Uiso   1.00
C791   C     0.44488   0.18831   0.95516   0.00000  Uiso   1.00
C792   C     0.65196   0.06863   0.75274   0.00000  Uiso   1.00
C793   C     0.57338   0.17685   0.53914   0.00000  Uiso   1.00
C794   C     0.41377   0.22338   0.98073   0.00000  Uiso   1.00
C795   C     0.60320   0.14236   0.51098   0.00000  Uiso   1.00
C796   C     0.50102   0.17864   0.97259   0.00000  Uiso   1.00
C797   C     0.52059   0.19435   0.52019   0.00000  Uiso   1.00
C798   C     0.62318   0.27630   0.58773   0.00000  Uiso   1.00
C799   C     0.44616   0.09258   0.86795   0.00000  Uiso   1.00
C800   C     0.45512   0.31805   0.79443   0.00000  Uiso   1.00
C801   C     0.43555   0.29763   0.84246   0.00000  Uiso   1.00
C802   C     0.48694   0.28565   0.87598   0.00000  Uiso   1.00
C803   C     0.48481   0.22390   0.54751   0.00000  Uiso   1.00
C804   C     0.56556   0.31685   0.70324   0.00000  Uiso   1.00
C805   C     0.52798   0.02577   0.68597   0.00000  Uiso   1.00
C806   C     0.48678   0.00747   0.64298   0.00000  Uiso   1.00
C807   C     0.53861   0.15458   0.94308   0.00000  Uiso   1.00
C808   C     0.43428   0.24104   0.52680   0.00000  Uiso   1.00
C809   C     0.58724   0.13392   0.96244   0.00000  Uiso   1.00
C810   C     0.35799   0.31953   0.75891   0.00000  Uiso   1.00
C811   C     0.64399   0.01436   0.75366   0.00000  Uiso   1.00
C812   C     0.35481   0.16919   0.84099   0.00000  Uiso   1.00
H813   H     0.40971   0.26601   0.54783   0.00000  Uiso   1.00
H814   H     0.50368   0.20571   0.78708   0.00000  Uiso   1.00
H815   H     0.61851   0.27471   0.54771   0.00000  Uiso   1.00
H816   H     0.33559   0.27427   0.60076   0.00000  Uiso   1.00
H817   H     0.60987   0.31437   0.59908   0.00000  Uiso   1.00
H818   H     0.47628   0.06290   0.87592   0.00000  Uiso   1.00
H819   H     0.47156   0.12257   0.84959   0.00000  Uiso   1.00
H820   H     0.40987   0.07591   0.84338   0.00000  Uiso   1.00
H821   H     0.49225   0.01330   0.80285   0.00000  Uiso   1.00
H822   H     0.47302   0.28815   0.77207   0.00000  Uiso   1.00
H823   H     0.40989   0.32530   0.86087   0.00000  Uiso   1.00
H824   H     0.61262   0.11178   0.93932   0.00000  Uiso   1.00
H825   H     0.40724   0.26229   0.83584   0.00000  Uiso   1.00
H826   H     0.50579   0.25048   0.86285   0.00000  Uiso   1.00
H827   H     0.47259   0.27953   0.91256   0.00000  Uiso   1.00
H828   H     0.52088   0.31782   0.87876   0.00000  Uiso   1.00
H829   H     0.53873   0.27987   0.70198   0.00000  Uiso   1.00
H830   H     0.60001   0.31159   0.67826   0.00000  Uiso   1.00
H831   H     0.50223   0.03839   0.71565   0.00000  Uiso   1.00
H832   H     0.55592   0.05911   0.67537   0.00000  Uiso   1.00
H833   H     0.51114   0.32899   0.61210   0.00000  Uiso   1.00
H834   H     0.46038   0.03920   0.63189   0.00000  Uiso   1.00
H835   H     0.36221   0.10125   0.59737   0.00000  Uiso   1.00
H836   H     0.45738   0.30801   0.65272   0.00000  Uiso   1.00
H837   H     0.63633   0.23428   0.89812   0.00000  Uiso   1.00
H838   H     0.33850   0.26703   0.97866   0.00000  Uiso   1.00
H839   H     0.33860   0.09100   0.51037   0.00000  Uiso   1.00
H840   H     0.49377   0.23376   0.58515   0.00000  Uiso   1.00
H841   H     0.53125   0.15207   0.90479   0.00000  Uiso   1.00
H842   H     0.49628   0.12795   0.71260   0.00000  Uiso   1.00
N843   N     0.48029   0.15216   0.73740   0.00000  Uiso   1.00
N844   N     0.51971   0.18117   0.76261   0.00000  Uiso   1.00
O845   O     0.63052   0.24631   0.75310   0.00000  Uiso   1.00
O846   O     0.42508   0.10862   0.91175   0.00000  Uiso   1.00
O847   O     0.41340   0.01093   0.76757   0.00000  Uiso   1.00
O848   O     0.58719   0.32680   0.75168   0.00000  Uiso   1.00
O849   O     0.36948   0.08702   0.74690   0.00000  Uiso   1.00
O850   O     0.39155   0.23702   0.74502   0.00000  Uiso   1.00
O851   O     0.60845   0.09632   0.75499   0.00000  Uiso   1.00
O852   O     0.63662   0.17397   0.82247   0.00000  Uiso   1.00
O853   O     0.36338   0.15937   0.67753   0.00000  Uiso   1.00
O854   O     0.39764   0.16467   0.81439   0.00000  Uiso   1.00
O855   O     0.60236   0.16866   0.68561   0.00000  Uiso   1.00
O856   O     0.58821   0.23746   0.60809   0.00000  Uiso   1.00
Zn857  Zn    0.60366   0.17287   0.75540   0.00000  Uiso   1.00
Zn858  Zn    0.39634   0.16046   0.74461   0.00000  Uiso   1.00
C859   C     0.68231   0.26491   0.75150   0.00000  Uiso   1.00
C860   C     0.97885   0.16332   0.65936   0.00000  Uiso   1.00
C861   C     0.70169   0.18000   0.89222   0.00000  Uiso   1.00
C862   C     0.96929   0.15974   0.60771   0.00000  Uiso   1.00
C863   C     0.69500   0.23858   0.96049   0.00000  Uiso   1.00
C864   C     0.98263   0.11754   0.53156   0.00000  Uiso   1.00
C865   C     0.67394   0.21884   0.91528   0.00000  Uiso   1.00
C866   C     0.99683   0.12406   0.58060   0.00000  Uiso   1.00
C867   C     0.75105   0.16088   0.91471   0.00000  Uiso   1.00
C868   C     0.93073   0.19108   0.58559   0.00000  Uiso   1.00
C869   C     0.77822   0.18831   0.95516   0.00000  Uiso   1.00
C870   C     0.98529   0.06863   0.75274   0.00000  Uiso   1.00
C871   C     0.90672   0.17685   0.53914   0.00000  Uiso   1.00
C872   C     0.74711   0.22338   0.98073   0.00000  Uiso   1.00
C873   C     0.93653   0.14236   0.51098   0.00000  Uiso   1.00
C874   C     0.83435   0.17864   0.97259   0.00000  Uiso   1.00
C875   C     0.85392   0.19435   0.52019   0.00000  Uiso   1.00
C876   C     0.95651   0.27630   0.58773   0.00000  Uiso   1.00
C877   C     0.77949   0.09258   0.86795   0.00000  Uiso   1.00
C878   C     0.78845   0.31805   0.79443   0.00000  Uiso   1.00
C879   C     0.76888   0.29763   0.84246   0.00000  Uiso   1.00
C880   C     0.82028   0.28565   0.87598   0.00000  Uiso   1.00
C881   C     0.81815   0.22390   0.54751   0.00000  Uiso   1.00
C882   C     0.89889   0.31685   0.70324   0.00000  Uiso   1.00
C883   C     0.86131   0.02577   0.68597   0.00000  Uiso   1.00
C884   C     0.82012   0.00747   0.64298   0.00000  Uiso   1.00
C885   C     0.87194   0.15458   0.94308   0.00000  Uiso   1.00
C886   C     0.76761   0.24104   0.52680   0.00000  Uiso   1.00
C887   C     0.92057   0.13392   0.96244   0.00000  Uiso   1.00
C888   C     0.69133   0.31953   0.75891   0.00000  Uiso   1.00
C889   C     0.97733   0.01436   0.75366   0.00000  Uiso   1.00
C890   C     0.68815   0.16919   0.84099   0.00000  Uiso   1.00
H891   H     0.74304   0.26601   0.54783   0.00000  Uiso   1.00
H892   H     0.83701   0.20571   0.78708   0.00000  Uiso   1.00
H893   H     0.95184   0.27471   0.54771   0.00000  Uiso   1.00
H894   H     0.66892   0.27427   0.60076   0.00000  Uiso   1.00
H895   H     0.94321   0.31437   0.59908   0.00000  Uiso   1.00
H896   H     0.80961   0.06290   0.87592   0.00000  Uiso   1.00
H897   H     0.80489   0.12257   0.84959   0.00000  Uiso   1.00
H898   H     0.74320   0.07591   0.84338   0.00000  Uiso   1.00
H899   H     0.82558   0.01330   0.80285   0.00000  Uiso   1.00
H900   H     0.80635   0.28815   0.77207   0.00000  Uiso   1.00
H901   H     0.74323   0.32530   0.86087   0.00000  Uiso   1.00
H902   H     0.94596   0.11178   0.93932   0.00000  Uiso   1.00
H903   H     0.74057   0.26229   0.83584   0.00000  Uiso   1.00
H904   H     0.83912   0.25048   0.86285   0.00000  Uiso   1.00
H905   H     0.80592   0.27953   0.91256   0.00000  Uiso   1.00
H906   H     0.85422   0.31782   0.87876   0.00000  Uiso   1.00
H907   H     0.87206   0.27987   0.70198   0.00000  Uiso   1.00
H908   H     0.93335   0.31159   0.67826   0.00000  Uiso   1.00
H909   H     0.83556   0.03839   0.71565   0.00000  Uiso   1.00
H910   H     0.88926   0.05911   0.67537   0.00000  Uiso   1.00
H911   H     0.84448   0.32899   0.61210   0.00000  Uiso   1.00
H912   H     0.79371   0.03920   0.63189   0.00000  Uiso   1.00
H913   H     0.69554   0.10125   0.59737   0.00000  Uiso   1.00
H914   H     0.79072   0.30801   0.65272   0.00000  Uiso   1.00
H915   H     0.96967   0.23428   0.89812   0.00000  Uiso   1.00
H916   H     0.67183   0.26703   0.97866   0.00000  Uiso   1.00
H917   H     0.67194   0.09100   0.51037   0.00000  Uiso   1.00
H918   H     0.82711   0.23376   0.58515   0.00000  Uiso   1.00
H919   H     0.86459   0.15207   0.90479   0.00000  Uiso   1.00
H920   H     0.82962   0.12795   0.71260   0.00000  Uiso   1.00
N921   N     0.81362   0.15216   0.73740   0.00000  Uiso   1.00
N922   N     0.85305   0.18117   0.76261   0.00000  Uiso   1.00
O923   O     0.96386   0.24631   0.75310   0.00000  Uiso   1.00
O924   O     0.75841   0.10862   0.91175   0.00000  Uiso   1.00
O925   O     0.74674   0.01093   0.76757   0.00000  Uiso   1.00
O926   O     0.92053   0.32680   0.75168   0.00000  Uiso   1.00
O927   O     0.70281   0.08702   0.74690   0.00000  Uiso   1.00
O928   O     0.72488   0.23702   0.74502   0.00000  Uiso   1.00
O929   O     0.94178   0.09632   0.75499   0.00000  Uiso   1.00
O930   O     0.96995   0.17397   0.82247   0.00000  Uiso   1.00
O931   O     0.69672   0.15937   0.67753   0.00000  Uiso   1.00
O932   O     0.73098   0.16467   0.81439   0.00000  Uiso   1.00
O933   O     0.93569   0.16866   0.68561   0.00000  Uiso   1.00
O934   O     0.92155   0.23746   0.60809   0.00000  Uiso   1.00
Zn935  Zn    0.93700   0.17287   0.75540   0.00000  Uiso   1.00
Zn936  Zn    0.72967   0.16046   0.74461   0.00000  Uiso   1.00
C937   C     0.01564   0.59825   0.75150   0.00000  Uiso   1.00
C938   C     0.31218   0.49665   0.65936   0.00000  Uiso   1.00
C939   C     0.03502   0.51333   0.89222   0.00000  Uiso   1.00
C940   C     0.30263   0.49307   0.60771   0.00000  Uiso   1.00
C941   C     0.02833   0.57191   0.96049   0.00000  Uiso   1.00
C942   C     0.31597   0.45087   0.53156   0.00000  Uiso   1.00
C943   C     0.00727   0.55217   0.91528   0.00000  Uiso   1.00
C944   C     0.33017   0.45740   0.58060   0.00000  Uiso   1.00
C945   C     0.08439   0.49421   0.91471   0.00000  Uiso   1.00
C946   C     0.26407   0.52441   0.58559   0.00000  Uiso   1.00
C947   C     0.11155   0.52164   0.95516   0.00000  Uiso   1.00
C948   C     0.31862   0.40197   0.75274   0.00000  Uiso   1.00
C949   C     0.24005   0.51019   0.53914   0.00000  Uiso   1.00
C950   C     0.08044   0.55671   0.98073   0.00000  Uiso   1.00
C951   C     0.26986   0.47570   0.51098   0.00000  Uiso   1.00
C952   C     0.16769   0.51197   0.97259   0.00000  Uiso   1.00
C953   C     0.18725   0.52768   0.52019   0.00000  Uiso   1.00
C954   C     0.28984   0.60963   0.58773   0.00000  Uiso   1.00
C955   C     0.11283   0.42592   0.86795   0.00000  Uiso   1.00
C956   C     0.12178   0.65138   0.79443   0.00000  Uiso   1.00
C957   C     0.10222   0.63097   0.84246   0.00000  Uiso   1.00
C958   C     0.15361   0.61898   0.87598   0.00000  Uiso   1.00
C959   C     0.15148   0.55724   0.54751   0.00000  Uiso   1.00
C960   C     0.23222   0.65018   0.70324   0.00000  Uiso   1.00
C961   C     0.19464   0.35911   0.68597   0.00000  Uiso   1.00
C962   C     0.15345   0.34080   0.64298   0.00000  Uiso   1.00
C963   C     0.20527   0.48791   0.94308   0.00000  Uiso   1.00
C964   C     0.10094   0.57438   0.52680   0.00000  Uiso   1.00
C965   C     0.25391   0.46726   0.96244   0.00000  Uiso   1.00
C966   C     0.02466   0.65287   0.75891   0.00000  Uiso   1.00
C967   C     0.31066   0.34769   0.75366   0.00000  Uiso   1.00
C968   C     0.02148   0.50252   0.84099   0.00000  Uiso   1.00
H969   H     0.07637   0.59934   0.54783   0.00000  Uiso   1.00
H970   H     0.17034   0.53904   0.78708   0.00000  Uiso   1.00
H971   H     0.28518   0.60805   0.54771   0.00000  Uiso   1.00
H972   H     0.00226   0.60761   0.60076   0.00000  Uiso   1.00
H973   H     0.27654   0.64770   0.59908   0.00000  Uiso   1.00
H974   H     0.14294   0.39623   0.87592   0.00000  Uiso   1.00
H975   H     0.13822   0.45591   0.84959   0.00000  Uiso   1.00
H976   H     0.07654   0.40924   0.84338   0.00000  Uiso   1.00
H977   H     0.15891   0.34664   0.80285   0.00000  Uiso   1.00
H978   H     0.13968   0.62148   0.77207   0.00000  Uiso   1.00
H979   H     0.07656   0.65864   0.86087   0.00000  Uiso   1.00
H980   H     0.27929   0.44511   0.93932   0.00000  Uiso   1.00
H981   H     0.07391   0.59562   0.83584   0.00000  Uiso   1.00
H982   H     0.17245   0.58381   0.86285   0.00000  Uiso   1.00
H983   H     0.13926   0.61286   0.91256   0.00000  Uiso   1.00
H984   H     0.18755   0.65116   0.87876   0.00000  Uiso   1.00
H985   H     0.20539   0.61320   0.70198   0.00000  Uiso   1.00
H986   H     0.26668   0.64492   0.67826   0.00000  Uiso   1.00
H987   H     0.16890   0.37172   0.71565   0.00000  Uiso   1.00
H988   H     0.22259   0.39244   0.67537   0.00000  Uiso   1.00
H989   H     0.17781   0.66232   0.61210   0.00000  Uiso   1.00
H990   H     0.12704   0.37253   0.63189   0.00000  Uiso   1.00
H991   H     0.02887   0.43459   0.59737   0.00000  Uiso   1.00
H992   H     0.12405   0.64134   0.65272   0.00000  Uiso   1.00
H993   H     0.30300   0.56762   0.89812   0.00000  Uiso   1.00
H994   H     0.00517   0.60036   0.97866   0.00000  Uiso   1.00
H995   H     0.00527   0.42434   0.51037   0.00000  Uiso   1.00
H996   H     0.16044   0.56710   0.58515   0.00000  Uiso   1.00
H997   H     0.19792   0.48540   0.90479   0.00000  Uiso   1.00
H998   H     0.16295   0.46128   0.71260   0.00000  Uiso   1.00
N999   N     0.14695   0.48550   0.73740   0.00000  Uiso   1.00
N1000  N     0.18638   0.51450   0.76261   0.00000  Uiso   1.00
O1001  O     0.29719   0.57964   0.75310   0.00000  Uiso   1.00
O1002  O     0.09174   0.44195   0.91175   0.00000  Uiso   1.00
O1003  O     0.08007   0.34426   0.76757   0.00000  Uiso   1.00
O1004  O     0.25386   0.66013   0.75168   0.00000  Uiso   1.00
O1005  O     0.03614   0.42036   0.74690   0.00000  Uiso   1.00
O1006  O     0.05822   0.57035   0.74502   0.00000  Uiso   1.00
O1007  O     0.27512   0.42965   0.75499   0.00000  Uiso   1.00
O1008  O     0.30328   0.50730   0.82247   0.00000  Uiso   1.00
O1009  O     0.03005   0.49270   0.67753   0.00000  Uiso   1.00
O1010  O     0.06431   0.49801   0.81439   0.00000  Uiso   1.00
O1011  O     0.26902   0.50199   0.68561   0.00000  Uiso   1.00
O1012  O     0.25488   0.57079   0.60809   0.00000  Uiso   1.00
Zn1013 Zn    0.27033   0.50621   0.75540   0.00000  Uiso   1.00
Zn1014 Zn    0.06300   0.49379   0.74461   0.00000  Uiso   1.00
C1015  C     0.34897   0.59825   0.75150   0.00000  Uiso   1.00
C1016  C     0.64552   0.49665   0.65936   0.00000  Uiso   1.00
C1017  C     0.36835   0.51333   0.89222   0.00000  Uiso   1.00
C1018  C     0.63596   0.49307   0.60771   0.00000  Uiso   1.00
C1019  C     0.36166   0.57191   0.96049   0.00000  Uiso   1.00
C1020  C     0.64930   0.45087   0.53156   0.00000  Uiso   1.00
C1021  C     0.34060   0.55217   0.91528   0.00000  Uiso   1.00
C1022  C     0.66350   0.45740   0.58060   0.00000  Uiso   1.00
C1023  C     0.41772   0.49421   0.91471   0.00000  Uiso   1.00
C1024  C     0.59740   0.52441   0.58559   0.00000  Uiso   1.00
C1025  C     0.44488   0.52164   0.95516   0.00000  Uiso   1.00
C1026  C     0.65196   0.40197   0.75274   0.00000  Uiso   1.00
C1027  C     0.57338   0.51019   0.53914   0.00000  Uiso   1.00
C1028  C     0.41377   0.55671   0.98073   0.00000  Uiso   1.00
C1029  C     0.60320   0.47570   0.51098   0.00000  Uiso   1.00
C1030  C     0.50102   0.51197   0.97259   0.00000  Uiso   1.00
C1031  C     0.52059   0.52768   0.52019   0.00000  Uiso   1.00
C1032  C     0.62318   0.60963   0.58773   0.00000  Uiso   1.00
C1033  C     0.44616   0.42592   0.86795   0.00000  Uiso   1.00
C1034  C     0.45512   0.65138   0.79443   0.00000  Uiso   1.00
C1035  C     0.43555   0.63097   0.84246   0.00000  Uiso   1.00
C1036  C     0.48694   0.61898   0.87598   0.00000  Uiso   1.00
C1037  C     0.48481   0.55724   0.54751   0.00000  Uiso   1.00
C1038  C     0.56556   0.65018   0.70324   0.00000  Uiso   1.00
C1039  C     0.52798   0.35911   0.68597   0.00000  Uiso   1.00
C1040  C     0.48678   0.34080   0.64298   0.00000  Uiso   1.00
C1041  C     0.53861   0.48791   0.94308   0.00000  Uiso   1.00
C1042  C     0.43428   0.57438   0.52680   0.00000  Uiso   1.00
C1043  C     0.58724   0.46726   0.96244   0.00000  Uiso   1.00
C1044  C     0.35799   0.65287   0.75891   0.00000  Uiso   1.00
C1045  C     0.64399   0.34769   0.75366   0.00000  Uiso   1.00
C1046  C     0.35481   0.50252   0.84099   0.00000  Uiso   1.00
H1047  H     0.40971   0.59934   0.54783   0.00000  Uiso   1.00
H1048  H     0.50368   0.53904   0.78708   0.00000  Uiso   1.00
H1049  H     0.61851   0.60805   0.54771   0.00000  Uiso   1.00
H1050  H     0.33559   0.60761   0.60076   0.00000  Uiso   1.00
H1051  H     0.60987   0.64770   0.59908   0.00000  Uiso   1.00
H1052  H     0.47628   0.39623   0.87592   0.00000  Uiso   1.00
H1053  H     0.47156   0.45591   0.84959   0.00000  Uiso   1.00
H1054  H     0.40987   0.40924   0.84338   0.00000  Uiso   1.00
H1055  H     0.49225   0.34664   0.80285   0.00000  Uiso   1.00
H1056  H     0.47302   0.62148   0.77207   0.00000  Uiso   1.00
H1057  H     0.40989   0.65864   0.86087   0.00000  Uiso   1.00
H1058  H     0.61262   0.44511   0.93932   0.00000  Uiso   1.00
H1059  H     0.40724   0.59562   0.83584   0.00000  Uiso   1.00
H1060  H     0.50579   0.58381   0.86285   0.00000  Uiso   1.00
H1061  H     0.47259   0.61286   0.91256   0.00000  Uiso   1.00
H1062  H     0.52088   0.65116   0.87876   0.00000  Uiso   1.00
H1063  H     0.53873   0.61320   0.70198   0.00000  Uiso   1.00
H1064  H     0.60001   0.64492   0.67826   0.00000  Uiso   1.00
H1065  H     0.50223   0.37172   0.71565   0.00000  Uiso   1.00
H1066  H     0.55592   0.39244   0.67537   0.00000  Uiso   1.00
H1067  H     0.51114   0.66232   0.61210   0.00000  Uiso   1.00
H1068  H     0.46038   0.37253   0.63189   0.00000  Uiso   1.00
H1069  H     0.36221   0.43459   0.59737   0.00000  Uiso   1.00
H1070  H     0.45738   0.64134   0.65272   0.00000  Uiso   1.00
H1071  H     0.63633   0.56762   0.89812   0.00000  Uiso   1.00
H1072  H     0.33850   0.60036   0.97866   0.00000  Uiso   1.00
H1073  H     0.33860   0.42434   0.51037   0.00000  Uiso   1.00
H1074  H     0.49377   0.56710   0.58515   0.00000  Uiso   1.00
H1075  H     0.53125   0.48540   0.90479   0.00000  Uiso   1.00
H1076  H     0.49628   0.46128   0.71260   0.00000  Uiso   1.00
N1077  N     0.48029   0.48550   0.73740   0.00000  Uiso   1.00
N1078  N     0.51971   0.51450   0.76261   0.00000  Uiso   1.00
O1079  O     0.63052   0.57964   0.75310   0.00000  Uiso   1.00
O1080  O     0.42508   0.44195   0.91175   0.00000  Uiso   1.00
O1081  O     0.41340   0.34426   0.76757   0.00000  Uiso   1.00
O1082  O     0.58719   0.66013   0.75168   0.00000  Uiso   1.00
O1083  O     0.36948   0.42036   0.74690   0.00000  Uiso   1.00
O1084  O     0.39155   0.57035   0.74502   0.00000  Uiso   1.00
O1085  O     0.60845   0.42965   0.75499   0.00000  Uiso   1.00
O1086  O     0.63662   0.50730   0.82247   0.00000  Uiso   1.00
O1087  O     0.36338   0.49270   0.67753   0.00000  Uiso   1.00
O1088  O     0.39764   0.49801   0.81439   0.00000  Uiso   1.00
O1089  O     0.60236   0.50199   0.68561   0.00000  Uiso   1.00
O1090  O     0.58821   0.57079   0.60809   0.00000  Uiso   1.00
Zn1091 Zn    0.60366   0.50621   0.75540   0.00000  Uiso   1.00
Zn1092 Zn    0.39634   0.49379   0.74461   0.00000  Uiso   1.00
C1093  C     0.68231   0.59825   0.75150   0.00000  Uiso   1.00
C1094  C     0.97885   0.49665   0.65936   0.00000  Uiso   1.00
C1095  C     0.70169   0.51333   0.89222   0.00000  Uiso   1.00
C1096  C     0.96929   0.49307   0.60771   0.00000  Uiso   1.00
C1097  C     0.69500   0.57191   0.96049   0.00000  Uiso   1.00
C1098  C     0.98263   0.45087   0.53156   0.00000  Uiso   1.00
C1099  C     0.67394   0.55217   0.91528   0.00000  Uiso   1.00
C1100  C     0.99683   0.45740   0.58060   0.00000  Uiso   1.00
C1101  C     0.75105   0.49421   0.91471   0.00000  Uiso   1.00
C1102  C     0.93073   0.52441   0.58559   0.00000  Uiso   1.00
C1103  C     0.77822   0.52164   0.95516   0.00000  Uiso   1.00
C1104  C     0.98529   0.40197   0.75274   0.00000  Uiso   1.00
C1105  C     0.90672   0.51019   0.53914   0.00000  Uiso   1.00
C1106  C     0.74711   0.55671   0.98073   0.00000  Uiso   1.00
C1107  C     0.93653   0.47570   0.51098   0.00000  Uiso   1.00
C1108  C     0.83435   0.51197   0.97259   0.00000  Uiso   1.00
C1109  C     0.85392   0.52768   0.52019   0.00000  Uiso   1.00
C1110  C     0.95651   0.60963   0.58773   0.00000  Uiso   1.00
C1111  C     0.77949   0.42592   0.86795   0.00000  Uiso   1.00
C1112  C     0.78845   0.65138   0.79443   0.00000  Uiso   1.00
C1113  C     0.76888   0.63097   0.84246   0.00000  Uiso   1.00
C1114  C     0.82028   0.61898   0.87598   0.00000  Uiso   1.00
C1115  C     0.81815   0.55724   0.54751   0.00000  Uiso   1.00
C1116  C     0.89889   0.65018   0.70324   0.00000  Uiso   1.00
C1117  C     0.86131   0.35911   0.68597   0.00000  Uiso   1.00
C1118  C     0.82012   0.34080   0.64298   0.00000  Uiso   1.00
C1119  C     0.87194   0.48791   0.94308   0.00000  Uiso   1.00
C1120  C     0.76761   0.57438   0.52680   0.00000  Uiso   1.00
C1121  C     0.92057   0.46726   0.96244   0.00000  Uiso   1.00
C1122  C     0.69133   0.65287   0.75891   0.00000  Uiso   1.00
C1123  C     0.97733   0.34769   0.75366   0.00000  Uiso   1.00
C1124  C     0.68815   0.50252   0.84099   0.00000  Uiso   1.00
H1125  H     0.74304   0.59934   0.54783   0.00000  Uiso   1.00
H1126  H     0.83701   0.53904   0.78708   0.00000  Uiso   1.00
H1127  H     0.95184   0.60805   0.54771   0.00000  Uiso   1.00
H1128  H     0.66892   0.60761   0.60076   0.00000  Uiso   1.00
H1129  H     0.94321   0.64770   0.59908   0.00000  Uiso   1.00
H1130  H     0.80961   0.39623   0.87592   0.00000  Uiso   1.00
H1131  H     0.80489   0.45591   0.84959   0.00000  Uiso   1.00
H1132  H     0.74320   0.40924   0.84338   0.00000  Uiso   1.00
H1133  H     0.82558   0.34664   0.80285   0.00000  Uiso   1.00
H1134  H     0.80635   0.62148   0.77207   0.00000  Uiso   1.00
H1135  H     0.74323   0.65864   0.86087   0.00000  Uiso   1.00
H1136  H     0.94596   0.44511   0.93932   0.00000  Uiso   1.00
H1137  H     0.74057   0.59562   0.83584   0.00000  Uiso   1.00
H1138  H     0.83912   0.58381   0.86285   0.00000  Uiso   1.00
H1139  H     0.80592   0.61286   0.91256   0.00000  Uiso   1.00
H1140  H     0.85422   0.65116   0.87876   0.00000  Uiso   1.00
H1141  H     0.87206   0.61320   0.70198   0.00000  Uiso   1.00
H1142  H     0.93335   0.64492   0.67826   0.00000  Uiso   1.00
H1143  H     0.83556   0.37172   0.71565   0.00000  Uiso   1.00
H1144  H     0.88926   0.39244   0.67537   0.00000  Uiso   1.00
H1145  H     0.84448   0.66232   0.61210   0.00000  Uiso   1.00
H1146  H     0.79371   0.37253   0.63189   0.00000  Uiso   1.00
H1147  H     0.69554   0.43459   0.59737   0.00000  Uiso   1.00
H1148  H     0.79072   0.64134   0.65272   0.00000  Uiso   1.00
H1149  H     0.96967   0.56762   0.89812   0.00000  Uiso   1.00
H1150  H     0.67183   0.60036   0.97866   0.00000  Uiso   1.00
H1151  H     0.67194   0.42434   0.51037   0.00000  Uiso   1.00
H1152  H     0.82711   0.56710   0.58515   0.00000  Uiso   1.00
H1153  H     0.86459   0.48540   0.90479   0.00000  Uiso   1.00
H1154  H     0.82962   0.46128   0.71260   0.00000  Uiso   1.00
N1155  N     0.81362   0.48550   0.73740   0.00000  Uiso   1.00
N1156  N     0.85305   0.51450   0.76261   0.00000  Uiso   1.00
O1157  O     0.96386   0.57964   0.75310   0.00000  Uiso   1.00
O1158  O     0.75841   0.44195   0.91175   0.00000  Uiso   1.00
O1159  O     0.74674   0.34426   0.76757   0.00000  Uiso   1.00
O1160  O     0.92053   0.66013   0.75168   0.00000  Uiso   1.00
O1161  O     0.70281   0.42036   0.74690   0.00000  Uiso   1.00
O1162  O     0.72488   0.57035   0.74502   0.00000  Uiso   1.00
O1163  O     0.94178   0.42965   0.75499   0.00000  Uiso   1.00
O1164  O     0.96995   0.50730   0.82247   0.00000  Uiso   1.00
O1165  O     0.69672   0.49270   0.67753   0.00000  Uiso   1.00
O1166  O     0.73098   0.49801   0.81439   0.00000  Uiso   1.00
O1167  O     0.93569   0.50199   0.68561   0.00000  Uiso   1.00
O1168  O     0.92155   0.57079   0.60809   0.00000  Uiso   1.00
Zn1169 Zn    0.93700   0.50621   0.75540   0.00000  Uiso   1.00
Zn1170 Zn    0.72967   0.49379   0.74461   0.00000  Uiso   1.00
C1171  C     0.01564   0.93158   0.75150   0.00000  Uiso   1.00
C1172  C     0.31218   0.82998   0.65936   0.00000  Uiso   1.00
C1173  C     0.03502   0.84666   0.89222   0.00000  Uiso   1.00
C1174  C     0.30263   0.82640   0.60771   0.00000  Uiso   1.00
C1175  C     0.02833   0.90524   0.96049   0.00000  Uiso   1.00
C1176  C     0.31597   0.78421   0.53156   0.00000  Uiso   1.00
C1177  C     0.00727   0.88550   0.91528   0.00000  Uiso   1.00
C1178  C     0.33017   0.79073   0.58060   0.00000  Uiso   1.00
C1179  C     0.08439   0.82754   0.91471   0.00000  Uiso   1.00
C1180  C     0.26407   0.85775   0.58559   0.00000  Uiso   1.00
C1181  C     0.11155   0.85498   0.95516   0.00000  Uiso   1.00
C1182  C     0.31862   0.73530   0.75274   0.00000  Uiso   1.00
C1183  C     0.24005   0.84352   0.53914   0.00000  Uiso   1.00
C1184  C     0.08044   0.89005   0.98073   0.00000  Uiso   1.00
C1185  C     0.26986   0.80903   0.51098   0.00000  Uiso   1.00
C1186  C     0.16769   0.84531   0.97259   0.00000  Uiso   1.00
C1187  C     0.18725   0.86102   0.52019   0.00000  Uiso   1.00
C1188  C     0.28984   0.94296   0.58773   0.00000  Uiso   1.00
C1189  C     0.11283   0.75925   0.86795   0.00000  Uiso   1.00
C1190  C     0.12178   0.98472   0.79443   0.00000  Uiso   1.00
C1191  C     0.10222   0.96430   0.84246   0.00000  Uiso   1.00
C1192  C     0.15361   0.95232   0.87598   0.00000  Uiso   1.00
C1193  C     0.15148   0.89057   0.54751   0.00000  Uiso   1.00
C1194  C     0.23222   0.98352   0.70324   0.00000  Uiso   1.00
C1195  C     0.19464   0.69244   0.68597   0.00000  Uiso   1.00
C1196  C     0.15345   0.67414   0.64298   0.00000  Uiso   1.00
C1197  C     0.20527   0.82124   0.94308   0.00000  Uiso   1.00
C1198  C     0.10094   0.90771   0.52680   0.00000  Uiso   1.00
C1199  C     0.25391   0.80059   0.96244   0.00000  Uiso   1.00
C1200  C     0.02466   0.98620   0.75891   0.00000  Uiso   1.00
C1201  C     0.31066   0.68102   0.75366   0.00000  Uiso   1.00
C1202  C     0.02148   0.83585   0.84099   0.00000  Uiso   1.00
H1203  H     0.07637   0.93267   0.54783   0.00000  Uiso   1.00
H1204  H     0.17034   0.87237   0.78708   0.00000  Uiso   1.00
H1205  H     0.28518   0.94138   0.54771   0.00000  Uiso   1.00
H1206  H     0.00226   0.94094   0.60076   0.00000  Uiso   1.00
H1207  H     0.27654   0.98103   0.59908   0.00000  Uiso   1.00
H1208  H     0.14294   0.72957   0.87592   0.00000  Uiso   1.00
H1209  H     0.13822   0.78924   0.84959   0.00000  Uiso   1.00
H1210  H     0.07654   0.74257   0.84338   0.00000  Uiso   1.00
H1211  H     0.15891   0.67997   0.80285   0.00000  Uiso   1.00
H1212  H     0.13968   0.95482   0.77207   0.00000  Uiso   1.00
H1213  H     0.07656   0.99197   0.86087   0.00000  Uiso   1.00
H1214  H     0.27929   0.77844   0.93932   0.00000  Uiso   1.00
H1215  H     0.07391   0.92895   0.83584   0.00000  Uiso   1.00
H1216  H     0.17245   0.91714   0.86285   0.00000  Uiso   1.00
H1217  H     0.13926   0.94619   0.91256   0.00000  Uiso   1.00
H1218  H     0.18755   0.98449   0.87876   0.00000  Uiso   1.00
H1219  H     0.20539   0.94654   0.70198   0.00000  Uiso   1.00
H1220  H     0.26668   0.97825   0.67826   0.00000  Uiso   1.00
H1221  H     0.16890   0.70506   0.71565   0.00000  Uiso   1.00
H1222  H     0.22259   0.72578   0.67537   0.00000  Uiso   1.00
H1223  H     0.17781   0.99566   0.61210   0.00000  Uiso   1.00
H1224  H     0.12704   0.70587   0.63189   0.00000  Uiso   1.00
H1225  H     0.02887   0.76792   0.59737   0.00000  Uiso   1.00
H1226  H     0.12405   0.97467   0.65272   0.00000  Uiso   1.00
H1227  H     0.30300   0.90095   0.89812   0.00000  Uiso   1.00
H1228  H     0.00517   0.93369   0.97866   0.00000  Uiso   1.00
H1229  H     0.00527   0.75767   0.51037   0.00000  Uiso   1.00
H1230  H     0.16044   0.90043   0.58515   0.00000  Uiso   1.00
H1231  H     0.19792   0.81873   0.90479   0.00000  Uiso   1.00
H1232  H     0.16295   0.79461   0.71260   0.00000  Uiso   1.00
N1233  N     0.14695   0.81883   0.73740   0.00000  Uiso   1.00
N1234  N     0.18638   0.84784   0.76261   0.00000  Uiso   1.00
O1235  O     0.29719   0.91298   0.75310   0.00000  Uiso   1.00
O1236  O     0.09174   0.77529   0.91175   0.00000  Uiso   1.00
O1237  O     0.08007   0.67759   0.76757   0.00000  Uiso   1.00
O1238  O     0.25386   0.99346   0.75168   0.00000  Uiso   1.00
O1239  O     0.03614   0.75369   0.74690   0.00000  Uiso   1.00
O1240  O     0.05822   0.90368   0.74502   0.00000  Uiso   1.00
O1241  O     0.27512   0.76298   0.75499   0.00000  Uiso   1.00
O1242  O     0.30328   0.84063   0.82247   0.00000  Uiso   1.00
O1243  O     0.03005   0.82603   0.67753   0.00000  Uiso   1.00
O1244  O     0.06431   0.83134   0.81439   0.00000  Uiso   1.00
O1245  O     0.26902   0.83533   0.68561   0.00000  Uiso   1.00
O1246  O     0.25488   0.90412   0.60809   0.00000  Uiso   1.00
Zn1247 Zn    0.27033   0.83954   0.75540   0.00000  Uiso   1.00
Zn1248 Zn    0.06300   0.82713   0.74461   0.00000  Uiso   1.00
C1249  C     0.34897   0.93158   0.75150   0.00000  Uiso   1.00
C1250  C     0.64552   0.82998   0.65936   0.00000  Uiso   1.00
C1251  C     0.36835   0.84666   0.89222   0.00000  Uiso   1.00
C1252  C     0.63596   0.82640   0.60771   0.00000  Uiso   1.00
C1253  C     0.36166   0.90524   0.96049   0.00000  Uiso   1.00
C1254  C     0.64930   0.78421   0.53156   0.00000  Uiso   1.00
C1255  C     0.34060   0.88550   0.91528   0.00000  Uiso   1.00
C1256  C     0.66350   0.79073   0.58060   0.00000  Uiso   1.00
C1257  C     0.41772   0.82754   0.91471   0.00000  Uiso   1.00
C1258  C     0.59740   0.85775   0.58559   0.00000  Uiso   1.00
C1259  C     0.44488   0.85498   0.95516   0.00000  Uiso   1.00
C1260  C     0.65196   0.73530   0.75274   0.00000  Uiso   1.00
C1261  C     0.57338   0.84352   0.53914   0.00000  Uiso   1.00
C1262  C     0.41377   0.89005   0.98073   0.00000  Uiso   1.00
C1263  C     0.60320   0.80903   0.51098   0.00000  Uiso   1.00
C1264  C     0.50102   0.84531   0.97259   0.00000  Uiso   1.00
C1265  C     0.52059   0.86102   0.52019   0.00000  Uiso   1.00
C1266  C     0.62318   0.94296   0.58773   0.00000  Uiso   1.00
C1267  C     0.44616   0.75925   0.86795   0.00000  Uiso   1.00
C1268  C     0.45512   0.98472   0.79443   0.00000  Uiso   1.00
C1269  C     0.43555   0.96430   0.84246   0.00000  Uiso   1.00
C1270  C     0.48694   0.95232   0.87598   0.00000  Uiso   1.00
C1271  C     0.48481   0.89057   0.54751   0.00000  Uiso   1.00
C1272  C     0.56556   0.98352   0.70324   0.00000  Uiso   1.00
C1273  C     0.52798   0.69244   0.68597   0.00000  Uiso   1.00
C1274  C     0.48678   0.67414   0.64298   0.00000  Uiso   1.00
C1275  C     0.53861   0.82124   0.94308   0.00000  Uiso   1.00
C1276  C     0.43428   0.90771   0.52680   0.00000  Uiso   1.00
C1277  C     0.58724   0.80059   0.96244   0.00000  Uiso   1.00
C1278  C     0.35799   0.98620   0.75891   0.00000  Uiso   1.00
C1279  C     0.64399   0.68102   0.75366   0.00000  Uiso   1.00
C1280  C     0.35481   0.83585   0.84099   0.00000  Uiso   1.00
H1281  H     0.40971   0.93267   0.54783   0.00000  Uiso   1.00
H1282  H     0.50368   0.87237   0.78708   0.00000  Uiso   1.00
H1283  H     0.61851   0.94138   0.54771   0.00000  Uiso   1.00
H1284  H     0.33559   0.94094   0.60076   0.00000  Uiso   1.00
H1285  H     0.60987   0.98103   0.59908   0.00000  Uiso   1.00
H1286  H     0.47628   0.72957   0.87592   0.00000  Uiso   1.00
H1287  H     0.47156   0.78924   0.84959   0.00000  Uiso   1.00
H1288  H     0.40987   0.74257   0.84338   0.00000  Uiso   1.00
H1289  H     0.49225   0.67997   0.80285   0.00000  Uiso   1.00
H1290  H     0.47302   0.95482   0.77207   0.00000  Uiso   1.00
H1291  H     0.40989   0.99197   0.86087   0.00000  Uiso   1.00
H1292  H     0.61262   0.77844   0.93932   0.00000  Uiso   1.00
H1293  H     0.40724   0.92895   0.83584   0.00000  Uiso   1.00
H1294  H     0.50579   0.91714   0.86285   0.00000  Uiso   1.00
H1295  H     0.47259   0.94619   0.91256   0.00000  Uiso   1.00
H1296  H     0.52088   0.98449   0.87876   0.00000  Uiso   1.00
H1297  H     0.53873   0.94654   0.70198   0.00000  Uiso   1.00
H1298  H     0.60001   0.97825   0.67826   0.00000  Uiso   1.00
H1299  H     0.50223   0.70506   0.71565   0.00000  Uiso   1.00
H1300  H     0.55592   0.72578   0.67537   0.00000  Uiso   1.00
H1301  H     0.51114   0.99566   0.61210   0.00000  Uiso   1.00
H1302  H     0.46038   0.70587   0.63189   0.00000  Uiso   1.00
H1303  H     0.36221   0.76792   0.59737   0.00000  Uiso   1.00
H1304  H     0.45738   0.97467   0.65272   0.00000  Uiso   1.00
H1305  H     0.63633   0.90095   0.89812   0.00000  Uiso   1.00
H1306  H     0.33850   0.93369   0.97866   0.00000  Uiso   1.00
H1307  H     0.33860   0.75767   0.51037   0.00000  Uiso   1.00
H1308  H     0.49377   0.90043   0.58515   0.00000  Uiso   1.00
H1309  H     0.53125   0.81873   0.90479   0.00000  Uiso   1.00
H1310  H     0.49628   0.79461   0.71260   0.00000  Uiso   1.00
N1311  N     0.48029   0.81883   0.73740   0.00000  Uiso   1.00
N1312  N     0.51971   0.84784   0.76261   0.00000  Uiso   1.00
O1313  O     0.63052   0.91298   0.75310   0.00000  Uiso   1.00
O1314  O     0.42508   0.77529   0.91175   0.00000  Uiso   1.00
O1315  O     0.41340   0.67759   0.76757   0.00000  Uiso   1.00
O1316  O     0.58719   0.99346   0.75168   0.00000  Uiso   1.00
O1317  O     0.36948   0.75369   0.74690   0.00000  Uiso   1.00
O1318  O     0.39155   0.90368   0.74502   0.00000  Uiso   1.00
O1319  O     0.60845   0.76298   0.75499   0.00000  Uiso   1.00
O1320  O     0.63662   0.84063   0.82247   0.00000  Uiso   1.00
O1321  O     0.36338   0.82603   0.67753   0.00000  Uiso   1.00
O1322  O     0.39764   0.83134   0.81439   0.00000  Uiso   1.00
O1323  O     0.60236   0.83533   0.68561   0.00000  Uiso   1.00
O1324  O     0.58821   0.90412   0.60809   0.00000  Uiso   1.00
Zn1325 Zn    0.60366   0.83954   0.75540   0.00000  Uiso   1.00
Zn1326 Zn    0.39634   0.82713   0.74461   0.00000  Uiso   1.00
C1327  C     0.68231   0.93158   0.75150   0.00000  Uiso   1.00
C1328  C     0.97885   0.82998   0.65936   0.00000  Uiso   1.00
C1329  C     0.70169   0.84666   0.89222   0.00000  Uiso   1.00
C1330  C     0.96929   0.82640   0.60771   0.00000  Uiso   1.00
C1331  C     0.69500   0.90524   0.96049   0.00000  Uiso   1.00
C1332  C     0.98263   0.78421   0.53156   0.00000  Uiso   1.00
C1333  C     0.67394   0.88550   0.91528   0.00000  Uiso   1.00
C1334  C     0.99683   0.79073   0.58060   0.00000  Uiso   1.00
C1335  C     0.75105   0.82754   0.91471   0.00000  Uiso   1.00
C1336  C     0.93073   0.85775   0.58559   0.00000  Uiso   1.00
C1337  C     0.77822   0.85498   0.95516   0.00000  Uiso   1.00
C1338  C     0.98529   0.73530   0.75274   0.00000  Uiso   1.00
C1339  C     0.90672   0.84352   0.53914   0.00000  Uiso   1.00
C1340  C     0.74711   0.89005   0.98073   0.00000  Uiso   1.00
C1341  C     0.93653   0.80903   0.51098   0.00000  Uiso   1.00
C1342  C     0.83435   0.84531   0.97259   0.00000  Uiso   1.00
C1343  C     0.85392   0.86102   0.52019   0.00000  Uiso   1.00
C1344  C     0.95651   0.94296   0.58773   0.00000  Uiso   1.00
C1345  C     0.77949   0.75925   0.86795   0.00000  Uiso   1.00
C1346  C     0.78845   0.98472   0.79443   0.00000  Uiso   1.00
C1347  C     0.76888   0.96430   0.84246   0.00000  Uiso   1.00
C1348  C     0.82028   0.95232   0.87598   0.00000  Uiso   1.00
C1349  C     0.81815   0.89057   0.54751   0.00000  Uiso   1.00
C1350  C     0.89889   0.98352   0.70324   0.00000  Uiso   1.00
C1351  C     0.86131   0.69244   0.68597   0.00000  Uiso   1.00
C1352  C     0.82012   0.67414   0.64298   0.00000  Uiso   1.00
C1353  C     0.87194   0.82124   0.94308   0.00000  Uiso   1.00
C1354  C     0.76761   0.90771   0.52680   0.00000  Uiso   1.00
C1355  C     0.92057   0.80059   0.96244   0.00000  Uiso   1.00
C1356  C     0.69133   0.98620   0.75891   0.00000  Uiso   1.00
C1357  C     0.97733   0.68102   0.75366   0.00000  Uiso   1.00
C1358  C     0.68815   0.83585   0.84099   0.00000  Uiso   1.00
H1359  H     0.74304   0.93267   0.54783   0.00000  Uiso   1.00
H1360  H     0.83701   0.87237   0.78708   0.00000  Uiso   1.00
H1361  H     0.95184   0.94138   0.54771   0.00000  Uiso   1.00
H1362  H     0.66892   0.94094   0.60076   0.00000  Uiso   1.00
H1363  H     0.94321   0.98103   0.59908   0.00000  Uiso   1.00
H1364  H     0.80961   0.72957   0.87592   0.00000  Uiso   1.00
H1365  H     0.80489   0.78924   0.84959   0.00000  Uiso   1.00
H1366  H     0.74320   0.74257   0.84338   0.00000  Uiso   1.00
H1367  H     0.82558   0.67997   0.80285   0.00000  Uiso   1.00
H1368  H     0.80635   0.95482   0.77207   0.00000  Uiso   1.00
H1369  H     0.74323   0.99197   0.86087   0.00000  Uiso   1.00
H1370  H     0.94596   0.77844   0.93932   0.00000  Uiso   1.00
H1371  H     0.74057   0.92895   0.83584   0.00000  Uiso   1.00
H1372  H     0.83912   0.91714   0.86285   0.00000  Uiso   1.00
H1373  H     0.80592   0.94619   0.91256   0.00000  Uiso   1.00
H1374  H     0.85422   0.98449   0.87876   0.00000  Uiso   1.00
H1375  H     0.87206   0.94654   0.70198   0.00000  Uiso   1.00
H1376  H     0.93335   0.97825   0.67826   0.00000  Uiso   1.00
H1377  H     0.83556   0.70506   0.71565   0.00000  Uiso   1.00
H1378  H     0.88926   0.72578   0.67537   0.00000  Uiso   1.00
H1379  H     0.84448   0.99566   0.61210   0.00000  Uiso   1.00
H1380  H     0.79371   0.70587   0.63189   0.00000  Uiso   1.00
H1381  H     0.69554   0.76792   0.59737   0.00000  Uiso   1.00
H1382  H     0.79072   0.97467   0.65272   0.00000  Uiso   1.00
H1383  H     0.96967   0.90095   0.89812   0.00000  Uiso   1.00
H1384  H     0.67183   0.93369   0.97866   0.00000  Uiso   1.00
H1385  H     0.67194   0.75767   0.51037   0.00000  Uiso   1.00
H1386  H     0.82711   0.90043   0.58515   0.00000  Uiso   1.00
H1387  H     0.86459   0.81873   0.90479   0.00000  Uiso   1.00
H1388  H     0.82962   0.79461   0.71260   0.00000  Uiso   1.00
N1389  N     0.81362   0.81883   0.73740   0.00000  Uiso   1.00
N1390  N     0.85305   0.84784   0.76261   0.00000  Uiso   1.00
O1391  O     0.96386   0.91298   0.75310   0.00000  Uiso   1.00
O1392  O     0.75841   0.77529   0.91175   0.00000  Uiso   1.00
O1393  O     0.74674   0.67759   0.76757   0.00000  Uiso   1.00
O1394  O     0.92053   0.99346   0.75168   0.00000  Uiso   1.00
O1395  O     0.70281   0.75369   0.74690   0.00000  Uiso   1.00
O1396  O     0.72488   0.90368   0.74502   0.00000  Uiso   1.00
O1397  O     0.94178   0.76298   0.75499   0.00000  Uiso   1.00
O1398  O     0.96995   0.84063   0.82247   0.00000  Uiso   1.00
O1399  O     0.69672   0.82603   0.67753   0.00000  Uiso   1.00
O1400  O     0.73098   0.83134   0.81439   0.00000  Uiso   1.00
O1401  O     0.93569   0.83533   0.68561   0.00000  Uiso   1.00
O1402  O     0.92155   0.90412   0.60809   0.00000  Uiso   1.00
Zn1403 Zn    0.93700   0.83954   0.75540   0.00000  Uiso   1.00
Zn1404 Zn    0.72967   0.82713   0.74461   0.00000  Uiso   1.00
loop_
_geom_bond_atom_site_label_1
_geom_bond_atom_site_label_2
_geom_bond_distance
_geom_bond_site_symmetry_2
_ccdc_geom_bond_type
C1     O70     1.294   .     A
C1     C30     1.435   .     S
C1     O221    1.274   1_455 S
C2     C4      1.441   .     S
C2     O75     1.296   .     A
C2     O151    1.280   .     S
C3     C7      1.404   .     A
C3     C9      1.409   .     A
C3     C32     1.455   .     S
C4     C8      1.399   .     A
C4     C10     1.391   .     A
C5     H58     1.082   .     S
C5     C7      1.390   .     A
C5     C14     1.398   .     A
C6     C15     1.399   .     A
C6     C8      1.387   .     A
C6     H137    1.084   .     S
C7     H213    1.084   1_455 S
C8     H133    1.084   .     S
C9     O66     1.391   .     S
C9     C11     1.404   .     A
C10    O76     1.383   .     S
C10    C13     1.403   .     A
C11    C14     1.413   .     A
C11    C16     1.411   .     A
C12    O71     1.294   .     A
C12    C31     1.420   .     S
C12    O147    1.270   .     S
C13    C15     1.424   .     A
C13    C17     1.422   .     A
C14    C730    1.392   .     S
C15    C731    1.385   1_554 S
C16    C27     1.407   .     A
C16    C719    1.412   .     S
C17    C23     1.418   .     A
C17    C718    1.412   1_554 S
C18    H37     1.107   .     S
C18    H35     1.112   .     S
C18    O76     1.414   .     S
C18    H114    1.111   .     S
C19    O66     1.407   .     S
C19    H38     1.104   .     S
C19    H39     1.108   .     S
C19    H40     1.107   .     S
C20    H42     1.106   .     S
C20    C21     1.542   .     S
C20    H275    1.110   .     S
C20    O301    1.421   .     S
C21    H43     1.106   .     S
C21    C22     1.530   .     S
C21    H45     1.099   .     S
C22    H48     1.110   .     S
C22    H47     1.107   .     S
C22    H46     1.109   .     S
C23    H60     1.075   .     S
C23    C28     1.391   .     A
C24    H50     1.110   .     S
C24    H49     1.111   .     S
C24    O68     1.419   .     S
C24    C259    1.533   .     S
C25    C26     1.527   .     S
C25    H51     1.108   .     S
C25    H52     1.111   .     S
C25    C492    1.533   1_545 S
C26    H54     1.111   .     S
C26    H521    1.109   1_545 S
C26    H524    1.111   1_545 S
C27    C29     1.380   .     A
C27    H61     1.069   .     S
C28    H33     1.082   .     S
C28    C716    1.392   1_554 S
C29    H44     1.084   .     S
C29    C717    1.385   .     S
C30    C421    1.375   1_455 S
C30    O301    1.406   .     S
C31    C576    1.375   1_545 S
C31    O536    1.393   1_545 S
C32    O74     1.292   .     A
C32    O228    1.294   1_455 S
H34    N64     1.027   .     S
H36    C174    1.111   1_455 S
H41    C488    1.110   1_545 S
H53    C260    1.109   .     S
H55    C164    1.084   1_455 S
H56    C260    1.111   .     S
H57    C85     1.084   .     S
H59    C162    1.084   1_455 S
H62    N63     1.027   .     S
N63    N64     1.301   .     D
N63    Zn78    2.010   .     S
N64    Zn77    2.010   .     S
O65    Zn77    1.981   .     S
O65    C79     1.274   .     S
O67    C498    1.406   1_545 S
O67    C488    1.421   1_545 S
O68    C265    1.393   .     S
O69    Zn78    1.981   .     S
O69    C168    1.270   1_455 S
O70    Zn78    2.014   .     S
O71    Zn77    2.014   .     S
O72    Zn77    1.973   .     S
O72    C110    1.294   .     S
O73    Zn78    1.973   .     S
O73    C158    1.280   1_455 S
O74    Zn78    1.942   .     S
O75    Zn77    1.942   .     S
C79    O148    1.294   .     A
C79    C108    1.435   .     S
C80    C82     1.441   .     S
C80    O153    1.296   .     A
C80    O229    1.280   .     S
C81    C85     1.404   .     A
C81    C87     1.409   .     A
C81    C110    1.455   .     S
C82    C86     1.399   .     A
C82    C88     1.391   .     A
C83    H136    1.082   .     S
C83    C85     1.390   .     A
C83    C92     1.398   .     A
C84    C93     1.399   .     A
C84    C86     1.387   .     A
C84    H215    1.084   .     S
C86    H211    1.084   .     S
C87    O144    1.391   .     S
C87    C89     1.404   .     A
C88    O154    1.383   .     S
C88    C91     1.403   .     A
C89    C92     1.413   .     A
C89    C94     1.411   .     A
C90    O149    1.294   .     A
C90    C109    1.420   .     S
C90    O225    1.270   .     S
C91    C93     1.424   .     A
C91    C95     1.422   .     A
C92    C808    1.392   .     S
C93    C809    1.385   1_554 S
C94    C105    1.407   .     A
C94    C797    1.412   .     S
C95    C101    1.418   .     A
C95    C796    1.412   1_554 S
C96    H115    1.107   .     S
C96    H113    1.112   .     S
C96    O154    1.414   .     S
C96    H192    1.111   .     S
C97    O144    1.407   .     S
C97    H116    1.104   .     S
C97    H117    1.108   .     S
C97    H118    1.107   .     S
C98    H120    1.106   .     S
C98    C99     1.542   .     S
C98    H353    1.110   .     S
C98    O379    1.421   .     S
C99    H121    1.106   .     S
C99    C100    1.530   .     S
C99    H123    1.099   .     S
C100   H126    1.110   .     S
C100   H125    1.107   .     S
C100   H124    1.109   .     S
C101   H138    1.075   .     S
C101   C106    1.391   .     A
C102   H128    1.110   .     S
C102   H127    1.111   .     S
C102   O146    1.419   .     S
C102   C337    1.533   .     S
C103   C104    1.527   .     S
C103   H129    1.108   .     S
C103   H130    1.111   .     S
C103   C570    1.533   1_545 S
C104   H132    1.111   .     S
C104   H599    1.109   1_545 S
C104   H602    1.111   1_545 S
C105   C107    1.380   .     A
C105   H139    1.069   .     S
C106   H111    1.082   .     S
C106   C794    1.392   1_554 S
C107   H122    1.084   .     S
C107   C795    1.385   .     S
C108   C265    1.375   .     S
C108   O379    1.406   .     S
C109   C654    1.375   1_545 S
C109   O614    1.393   1_545 S
C110   O152    1.292   .     A
H112   N142    1.027   .     S
H119   C566    1.110   1_545 S
H131   C338    1.109   .     S
H134   C338    1.111   .     S
H135   C163    1.084   .     S
H140   N141    1.027   .     S
N141   N142    1.301   .     D
N141   Zn156   2.010   .     S
N142   Zn155   2.010   .     S
O143   Zn155   1.981   .     S
O143   C157    1.274   .     S
O145   C576    1.406   1_545 S
O145   C566    1.421   1_545 S
O146   C343    1.393   .     S
O147   Zn156   1.981   .     S
O148   Zn156   2.014   .     S
O149   Zn155   2.014   .     S
O150   Zn155   1.973   .     S
O150   C188    1.294   .     S
O151   Zn156   1.973   .     S
O152   Zn156   1.942   .     S
O153   Zn155   1.942   .     S
C157   O226    1.294   .     A
C157   C186    1.435   .     S
C158   C160    1.441   .     S
C158   O231    1.296   .     A
C158   O73     1.280   1_655 S
C159   C163    1.404   .     A
C159   C165    1.409   .     A
C159   C188    1.455   .     S
C160   C164    1.399   .     A
C160   C166    1.391   .     A
C161   H214    1.082   .     S
C161   C163    1.390   .     A
C161   C170    1.398   .     A
C162   C171    1.399   .     A
C162   C164    1.387   .     A
C162   H59     1.084   1_655 S
C164   H55     1.084   1_655 S
C165   O222    1.391   .     S
C165   C167    1.404   .     A
C166   O232    1.383   .     S
C166   C169    1.403   .     A
C167   C170    1.413   .     A
C167   C172    1.411   .     A
C168   O227    1.294   .     A
C168   C187    1.420   .     S
C168   O69     1.270   1_655 S
C169   C171    1.424   .     A
C169   C173    1.422   .     A
C170   C886    1.392   .     S
C171   C887    1.385   1_554 S
C172   C183    1.407   .     A
C172   C875    1.412   .     S
C173   C179    1.418   .     A
C173   C874    1.412   1_554 S
C174   H193    1.107   .     S
C174   H191    1.112   .     S
C174   O232    1.414   .     S
C174   H36     1.111   1_655 S
C175   O222    1.407   .     S
C175   H194    1.104   .     S
C175   H195    1.108   .     S
C175   H196    1.107   .     S
C176   H198    1.106   .     S
C176   C177    1.542   .     S
C176   H431    1.110   .     S
C176   O457    1.421   .     S
C177   H199    1.106   .     S
C177   C178    1.530   .     S
C177   H201    1.099   .     S
C178   H204    1.110   .     S
C178   H203    1.107   .     S
C178   H202    1.109   .     S
C179   H216    1.075   .     S
C179   C184    1.391   .     A
C180   H206    1.110   .     S
C180   H205    1.111   .     S
C180   O224    1.419   .     S
C180   C415    1.533   .     S
C181   C182    1.527   .     S
C181   H207    1.108   .     S
C181   H208    1.111   .     S
C181   C648    1.533   1_545 S
C182   H210    1.111   .     S
C182   H677    1.109   1_545 S
C182   H680    1.111   1_545 S
C183   C185    1.380   .     A
C183   H217    1.069   .     S
C184   H189    1.082   .     S
C184   C872    1.392   1_554 S
C185   H200    1.084   .     S
C185   C873    1.385   .     S
C186   C343    1.375   .     S
C186   O457    1.406   .     S
C187   C498    1.375   1_645 S
C187   O692    1.393   1_545 S
C188   O230    1.292   .     A
H190   N220    1.027   .     S
H197   C644    1.110   1_545 S
H209   C416    1.109   .     S
H212   C416    1.111   .     S
H213   C7      1.084   1_655 S
H218   N219    1.027   .     S
N219   N220    1.301   .     D
N219   Zn234   2.010   .     S
N220   Zn233   2.010   .     S
O221   Zn233   1.981   .     S
O221   C1      1.274   1_655 S
O223   C654    1.406   1_545 S
O223   C644    1.421   1_545 S
O224   C421    1.393   .     S
O225   Zn234   1.981   .     S
O226   Zn234   2.014   .     S
O227   Zn233   2.014   .     S
O228   Zn233   1.973   .     S
O228   C32     1.294   1_655 S
O229   Zn234   1.973   .     S
O230   Zn234   1.942   .     S
O231   Zn233   1.942   .     S
C235   O304    1.294   .     A
C235   C264    1.435   .     S
C235   O455    1.274   1_455 S
C236   C238    1.441   .     S
C236   O309    1.296   .     A
C236   O385    1.280   .     S
C237   C241    1.404   .     A
C237   C243    1.409   .     A
C237   C266    1.455   .     S
C238   C242    1.399   .     A
C238   C244    1.391   .     A
C239   H292    1.082   .     S
C239   C241    1.390   .     A
C239   C248    1.398   .     A
C240   C249    1.399   .     A
C240   C242    1.387   .     A
C240   H371    1.084   .     S
C241   H447    1.084   1_455 S
C242   H367    1.084   .     S
C243   O300    1.391   .     S
C243   C245    1.404   .     A
C244   O310    1.383   .     S
C244   C247    1.403   .     A
C245   C248    1.413   .     A
C245   C250    1.411   .     A
C246   O305    1.294   .     A
C246   C265    1.420   .     S
C246   O381    1.270   .     S
C247   C249    1.424   .     A
C247   C251    1.422   .     A
C248   C964    1.392   .     S
C249   C965    1.385   1_554 S
C250   C261    1.407   .     A
C250   C953    1.412   .     S
C251   C257    1.418   .     A
C251   C952    1.412   1_554 S
C252   H271    1.107   .     S
C252   H269    1.112   .     S
C252   O310    1.414   .     S
C252   H348    1.111   .     S
C253   O300    1.407   .     S
C253   H272    1.104   .     S
C253   H273    1.108   .     S
C253   H274    1.107   .     S
C254   H276    1.106   .     S
C254   C255    1.542   .     S
C254   H509    1.110   .     S
C254   O535    1.421   .     S
C255   H277    1.106   .     S
C255   C256    1.530   .     S
C255   H279    1.099   .     S
C256   H282    1.110   .     S
C256   H281    1.107   .     S
C256   H280    1.109   .     S
C257   H294    1.075   .     S
C257   C262    1.391   .     A
C258   H284    1.110   .     S
C258   H283    1.111   .     S
C258   O302    1.419   .     S
C258   C493    1.533   .     S
C259   C260    1.527   .     S
C259   H285    1.108   .     S
C259   H286    1.111   .     S
C260   H288    1.111   .     S
C261   C263    1.380   .     A
C261   H295    1.069   .     S
C262   H267    1.082   .     S
C262   C950    1.392   1_554 S
C263   H278    1.084   .     S
C263   C951    1.385   .     S
C264   C655    1.375   1_455 S
C264   O535    1.406   .     S
C266   O308    1.292   .     A
C266   O462    1.294   1_455 S
H268   N298    1.027   .     S
H270   C408    1.111   1_455 S
H287   C494    1.109   .     S
H289   C398    1.084   1_455 S
H290   C494    1.111   .     S
H291   C319    1.084   .     S
H293   C396    1.084   1_455 S
H296   N297    1.027   .     S
N297   N298    1.301   .     D
N297   Zn312   2.010   .     S
N298   Zn311   2.010   .     S
O299   Zn311   1.981   .     S
O299   C313    1.274   .     S
O302   C499    1.393   .     S
O303   Zn312   1.981   .     S
O303   C402    1.270   1_455 S
O304   Zn312   2.014   .     S
O305   Zn311   2.014   .     S
O306   Zn311   1.973   .     S
O306   C344    1.294   .     S
O307   Zn312   1.973   .     S
O307   C392    1.280   1_455 S
O308   Zn312   1.942   .     S
O309   Zn311   1.942   .     S
C313   O382    1.294   .     A
C313   C342    1.435   .     S
C314   C316    1.441   .     S
C314   O387    1.296   .     A
C314   O463    1.280   .     S
C315   C319    1.404   .     A
C315   C321    1.409   .     A
C315   C344    1.455   .     S
C316   C320    1.399   .     A
C316   C322    1.391   .     A
C317   H370    1.082   .     S
C317   C319    1.390   .     A
C317   C326    1.398   .     A
C318   C327    1.399   .     A
C318   C320    1.387   .     A
C318   H449    1.084   .     S
C320   H445    1.084   .     S
C321   O378    1.391   .     S
C321   C323    1.404   .     A
C322   O388    1.383   .     S
C322   C325    1.403   .     A
C323   C326    1.413   .     A
C323   C328    1.411   .     A
C324   O383    1.294   .     A
C324   C343    1.420   .     S
C324   O459    1.270   .     S
C325   C327    1.424   .     A
C325   C329    1.422   .     A
C326   C1042   1.392   .     S
C327   C1043   1.385   1_554 S
C328   C339    1.407   .     A
C328   C1031   1.412   .     S
C329   C335    1.418   .     A
C329   C1030   1.412   1_554 S
C330   H349    1.107   .     S
C330   H347    1.112   .     S
C330   O388    1.414   .     S
C330   H426    1.111   .     S
C331   O378    1.407   .     S
C331   H350    1.104   .     S
C331   H351    1.108   .     S
C331   H352    1.107   .     S
C332   H354    1.106   .     S
C332   C333    1.542   .     S
C332   H587    1.110   .     S
C332   O613    1.421   .     S
C333   H355    1.106   .     S
C333   C334    1.530   .     S
C333   H357    1.099   .     S
C334   H360    1.110   .     S
C334   H359    1.107   .     S
C334   H358    1.109   .     S
C335   H372    1.075   .     S
C335   C340    1.391   .     A
C336   H362    1.110   .     S
C336   H361    1.111   .     S
C336   O380    1.419   .     S
C336   C571    1.533   .     S
C337   C338    1.527   .     S
C337   H363    1.108   .     S
C337   H364    1.111   .     S
C338   H366    1.111   .     S
C339   C341    1.380   .     A
C339   H373    1.069   .     S
C340   H345    1.082   .     S
C340   C1028   1.392   1_554 S
C341   H356    1.084   .     S
C341   C1029   1.385   .     S
C342   C499    1.375   .     S
C342   O613    1.406   .     S
C344   O386    1.292   .     A
H346   N376    1.027   .     S
H365   C572    1.109   .     S
H368   C572    1.111   .     S
H369   C397    1.084   .     S
H374   N375    1.027   .     S
N375   N376    1.301   .     D
N375   Zn390   2.010   .     S
N376   Zn389   2.010   .     S
O377   Zn389   1.981   .     S
O377   C391    1.274   .     S
O380   C577    1.393   .     S
O381   Zn390   1.981   .     S
O382   Zn390   2.014   .     S
O383   Zn389   2.014   .     S
O384   Zn389   1.973   .     S
O384   C422    1.294   .     S
O385   Zn390   1.973   .     S
O386   Zn390   1.942   .     S
O387   Zn389   1.942   .     S
C391   O460    1.294   .     A
C391   C420    1.435   .     S
C392   C394    1.441   .     S
C392   O465    1.296   .     A
C392   O307    1.280   1_655 S
C393   C397    1.404   .     A
C393   C399    1.409   .     A
C393   C422    1.455   .     S
C394   C398    1.399   .     A
C394   C400    1.391   .     A
C395   H448    1.082   .     S
C395   C397    1.390   .     A
C395   C404    1.398   .     A
C396   C405    1.399   .     A
C396   C398    1.387   .     A
C396   H293    1.084   1_655 S
C398   H289    1.084   1_655 S
C399   O456    1.391   .     S
C399   C401    1.404   .     A
C400   O466    1.383   .     S
C400   C403    1.403   .     A
C401   C404    1.413   .     A
C401   C406    1.411   .     A
C402   O461    1.294   .     A
C402   C421    1.420   .     S
C402   O303    1.270   1_655 S
C403   C405    1.424   .     A
C403   C407    1.422   .     A
C404   C1120   1.392   .     S
C405   C1121   1.385   1_554 S
C406   C417    1.407   .     A
C406   C1109   1.412   .     S
C407   C413    1.418   .     A
C407   C1108   1.412   1_554 S
C408   H427    1.107   .     S
C408   H425    1.112   .     S
C408   O466    1.414   .     S
C408   H270    1.111   1_655 S
C409   O456    1.407   .     S
C409   H428    1.104   .     S
C409   H429    1.108   .     S
C409   H430    1.107   .     S
C410   H432    1.106   .     S
C410   C411    1.542   .     S
C410   H665    1.110   .     S
C410   O691    1.421   .     S
C411   H433    1.106   .     S
C411   C412    1.530   .     S
C411   H435    1.099   .     S
C412   H438    1.110   .     S
C412   H437    1.107   .     S
C412   H436    1.109   .     S
C413   H450    1.075   .     S
C413   C418    1.391   .     A
C414   H440    1.110   .     S
C414   H439    1.111   .     S
C414   O458    1.419   .     S
C414   C649    1.533   .     S
C415   C416    1.527   .     S
C415   H441    1.108   .     S
C415   H442    1.111   .     S
C416   H444    1.111   .     S
C417   C419    1.380   .     A
C417   H451    1.069   .     S
C418   H423    1.082   .     S
C418   C1106   1.392   1_554 S
C419   H434    1.084   .     S
C419   C1107   1.385   .     S
C420   C577    1.375   .     S
C420   O691    1.406   .     S
C421   C30     1.375   1_655 S
C422   O464    1.292   .     A
H424   N454    1.027   .     S
H443   C650    1.109   .     S
H446   C650    1.111   .     S
H447   C241    1.084   1_655 S
H452   N453    1.027   .     S
N453   N454    1.301   .     D
N453   Zn468   2.010   .     S
N454   Zn467   2.010   .     S
O455   Zn467   1.981   .     S
O455   C235    1.274   1_655 S
O458   C655    1.393   .     S
O459   Zn468   1.981   .     S
O460   Zn468   2.014   .     S
O461   Zn467   2.014   .     S
O462   Zn467   1.973   .     S
O462   C266    1.294   1_655 S
O463   Zn468   1.973   .     S
O464   Zn468   1.942   .     S
O465   Zn467   1.942   .     S
C469   O538    1.294   .     A
C469   C498    1.435   .     S
C469   O689    1.274   1_455 S
C470   C472    1.441   .     S
C470   O543    1.296   .     A
C470   O619    1.280   .     S
C471   C475    1.404   .     A
C471   C477    1.409   .     A
C471   C500    1.455   .     S
C472   C476    1.399   .     A
C472   C478    1.391   .     A
C473   H526    1.082   .     S
C473   C475    1.390   .     A
C473   C482    1.398   .     A
C474   C483    1.399   .     A
C474   C476    1.387   .     A
C474   H605    1.084   .     S
C475   H681    1.084   1_455 S
C476   H601    1.084   .     S
C477   O534    1.391   .     S
C477   C479    1.404   .     A
C478   O544    1.383   .     S
C478   C481    1.403   .     A
C479   C482    1.413   .     A
C479   C484    1.411   .     A
C480   O539    1.294   .     A
C480   C499    1.420   .     S
C480   O615    1.270   .     S
C481   C483    1.424   .     A
C481   C485    1.422   .     A
C482   C1198   1.392   .     S
C483   C1199   1.385   1_554 S
C484   C495    1.407   .     A
C484   C1187   1.412   .     S
C485   C491    1.418   .     A
C485   C1186   1.412   1_554 S
C486   H505    1.107   .     S
C486   H503    1.112   .     S
C486   O544    1.414   .     S
C486   H582    1.111   .     S
C487   O534    1.407   .     S
C487   H506    1.104   .     S
C487   H507    1.108   .     S
C487   H508    1.107   .     S
C488   H510    1.106   .     S
C488   C489    1.542   .     S
C488   H41     1.110   1_565 S
C488   O67     1.421   1_565 S
C489   H511    1.106   .     S
C489   C490    1.530   .     S
C489   H513    1.099   .     S
C490   H516    1.110   .     S
C490   H515    1.107   .     S
C490   H514    1.109   .     S
C491   H528    1.075   .     S
C491   C496    1.391   .     A
C492   H518    1.110   .     S
C492   H517    1.111   .     S
C492   O536    1.419   .     S
C492   C25     1.533   1_565 S
C493   C494    1.527   .     S
C493   H519    1.108   .     S
C493   H520    1.111   .     S
C494   H522    1.111   .     S
C495   C497    1.380   .     A
C495   H529    1.069   .     S
C496   H501    1.082   .     S
C496   C1184   1.392   1_554 S
C497   H512    1.084   .     S
C497   C1185   1.385   .     S
C498   C187    1.375   1_465 S
C498   O67     1.406   1_565 S
C500   O542    1.292   .     A
C500   O696    1.294   1_455 S
H502   N532    1.027   .     S
H504   C642    1.111   1_455 S
H521   C26     1.109   1_565 S
H523   C632    1.084   1_455 S
H524   C26     1.111   1_565 S
H525   C553    1.084   .     S
H527   C630    1.084   1_455 S
H530   N531    1.027   .     S
N531   N532    1.301   .     D
N531   Zn546   2.010   .     S
N532   Zn545   2.010   .     S
O533   Zn545   1.981   .     S
O533   C547    1.274   .     S
O536   C31     1.393   1_565 S
O537   Zn546   1.981   .     S
O537   C636    1.270   1_455 S
O538   Zn546   2.014   .     S
O539   Zn545   2.014   .     S
O540   Zn545   1.973   .     S
O540   C578    1.294   .     S
O541   Zn546   1.973   .     S
O541   C626    1.280   1_455 S
O542   Zn546   1.942   .     S
O543   Zn545   1.942   .     S
C547   O616    1.294   .     A
C547   C576    1.435   .     S
C548   C550    1.441   .     S
C548   O621    1.296   .     A
C548   O697    1.280   .     S
C549   C553    1.404   .     A
C549   C555    1.409   .     A
C549   C578    1.455   .     S
C550   C554    1.399   .     A
C550   C556    1.391   .     A
C551   H604    1.082   .     S
C551   C553    1.390   .     A
C551   C560    1.398   .     A
C552   C561    1.399   .     A
C552   C554    1.387   .     A
C552   H683    1.084   .     S
C554   H679    1.084   .     S
C555   O612    1.391   .     S
C555   C557    1.404   .     A
C556   O622    1.383   .     S
C556   C559    1.403   .     A
C557   C560    1.413   .     A
C557   C562    1.411   .     A
C558   O617    1.294   .     A
C558   C577    1.420   .     S
C558   O693    1.270   .     S
C559   C561    1.424   .     A
C559   C563    1.422   .     A
C560   C1276   1.392   .     S
C561   C1277   1.385   1_554 S
C562   C573    1.407   .     A
C562   C1265   1.412   .     S
C563   C569    1.418   .     A
C563   C1264   1.412   1_554 S
C564   H583    1.107   .     S
C564   H581    1.112   .     S
C564   O622    1.414   .     S
C564   H660    1.111   .     S
C565   O612    1.407   .     S
C565   H584    1.104   .     S
C565   H585    1.108   .     S
C565   H586    1.107   .     S
C566   H588    1.106   .     S
C566   C567    1.542   .     S
C566   H119    1.110   1_565 S
C566   O145    1.421   1_565 S
C567   H589    1.106   .     S
C567   C568    1.530   .     S
C567   H591    1.099   .     S
C568   H594    1.110   .     S
C568   H593    1.107   .     S
C568   H592    1.109   .     S
C569   H606    1.075   .     S
C569   C574    1.391   .     A
C570   H596    1.110   .     S
C570   H595    1.111   .     S
C570   O614    1.419   .     S
C570   C103    1.533   1_565 S
C571   C572    1.527   .     S
C571   H597    1.108   .     S
C571   H598    1.111   .     S
C572   H600    1.111   .     S
C573   C575    1.380   .     A
C573   H607    1.069   .     S
C574   H579    1.082   .     S
C574   C1262   1.392   1_554 S
C575   H590    1.084   .     S
C575   C1263   1.385   .     S
C576   C31     1.375   1_565 S
C576   O145    1.406   1_565 S
C578   O620    1.292   .     A
H580   N610    1.027   .     S
H599   C104    1.109   1_565 S
H602   C104    1.111   1_565 S
H603   C631    1.084   .     S
H608   N609    1.027   .     S
N609   N610    1.301   .     D
N609   Zn624   2.010   .     S
N610   Zn623   2.010   .     S
O611   Zn623   1.981   .     S
O611   C625    1.274   .     S
O614   C109    1.393   1_565 S
O615   Zn624   1.981   .     S
O616   Zn624   2.014   .     S
O617   Zn623   2.014   .     S
O618   Zn623   1.973   .     S
O618   C656    1.294   .     S
O619   Zn624   1.973   .     S
O620   Zn624   1.942   .     S
O621   Zn623   1.942   .     S
C625   O694    1.294   .     A
C625   C654    1.435   .     S
C626   C628    1.441   .     S
C626   O699    1.296   .     A
C626   O541    1.280   1_655 S
C627   C631    1.404   .     A
C627   C633    1.409   .     A
C627   C656    1.455   .     S
C628   C632    1.399   .     A
C628   C634    1.391   .     A
C629   H682    1.082   .     S
C629   C631    1.390   .     A
C629   C638    1.398   .     A
C630   C639    1.399   .     A
C630   C632    1.387   .     A
C630   H527    1.084   1_655 S
C632   H523    1.084   1_655 S
C633   O690    1.391   .     S
C633   C635    1.404   .     A
C634   O700    1.383   .     S
C634   C637    1.403   .     A
C635   C638    1.413   .     A
C635   C640    1.411   .     A
C636   O695    1.294   .     A
C636   C655    1.420   .     S
C636   O537    1.270   1_655 S
C637   C639    1.424   .     A
C637   C641    1.422   .     A
C638   C1354   1.392   .     S
C639   C1355   1.385   1_554 S
C640   C651    1.407   .     A
C640   C1343   1.412   .     S
C641   C647    1.418   .     A
C641   C1342   1.412   1_554 S
C642   H661    1.107   .     S
C642   H659    1.112   .     S
C642   O700    1.414   .     S
C642   H504    1.111   1_655 S
C643   O690    1.407   .     S
C643   H662    1.104   .     S
C643   H663    1.108   .     S
C643   H664    1.107   .     S
C644   H666    1.106   .     S
C644   C645    1.542   .     S
C644   H197    1.110   1_565 S
C644   O223    1.421   1_565 S
C645   H667    1.106   .     S
C645   C646    1.530   .     S
C645   H669    1.099   .     S
C646   H672    1.110   .     S
C646   H671    1.107   .     S
C646   H670    1.109   .     S
C647   H684    1.075   .     S
C647   C652    1.391   .     A
C648   H674    1.110   .     S
C648   H673    1.111   .     S
C648   O692    1.419   .     S
C648   C181    1.533   1_565 S
C649   C650    1.527   .     S
C649   H675    1.108   .     S
C649   H676    1.111   .     S
C650   H678    1.111   .     S
C651   C653    1.380   .     A
C651   H685    1.069   .     S
C652   H657    1.082   .     S
C652   C1340   1.392   1_554 S
C653   H668    1.084   .     S
C653   C1341   1.385   .     S
C654   C109    1.375   1_565 S
C654   O223    1.406   1_565 S
C655   C264    1.375   1_655 S
C656   O698    1.292   .     A
H658   N688    1.027   .     S
H677   C182    1.109   1_565 S
H680   C182    1.111   1_565 S
H681   C475    1.084   1_655 S
H686   N687    1.027   .     S
N687   N688    1.301   .     D
N687   Zn702   2.010   .     S
N688   Zn701   2.010   .     S
O689   Zn701   1.981   .     S
O689   C469    1.274   1_655 S
O692   C187    1.393   1_565 S
O693   Zn702   1.981   .     S
O694   Zn702   2.014   .     S
O695   Zn701   2.014   .     S
O696   Zn701   1.973   .     S
O696   C500    1.294   1_655 S
O697   Zn702   1.973   .     S
O698   Zn702   1.942   .     S
O699   Zn701   1.942   .     S
C703   O772    1.294   .     A
C703   C732    1.435   .     S
C703   O923    1.274   1_455 S
C704   C706    1.441   .     S
C704   O777    1.296   .     A
C704   O853    1.280   .     S
C705   C709    1.404   .     A
C705   C711    1.409   .     A
C705   C734    1.455   .     S
C706   C710    1.399   .     A
C706   C712    1.391   .     A
C707   H760    1.082   .     S
C707   C709    1.390   .     A
C707   C716    1.398   .     A
C708   C717    1.399   .     A
C708   C710    1.387   .     A
C708   H839    1.084   .     S
C709   H915    1.084   1_455 S
C710   H835    1.084   .     S
C711   O768    1.391   .     S
C711   C713    1.404   .     A
C712   O778    1.383   .     S
C712   C715    1.403   .     A
C713   C716    1.413   .     A
C713   C718    1.411   .     A
C714   O773    1.294   .     A
C714   C733    1.420   .     S
C714   O849    1.270   .     S
C715   C717    1.424   .     A
C715   C719    1.422   .     A
C716   C28     1.392   1_556 S
C718   C729    1.407   .     A
C718   C17     1.412   1_556 S
C719   C725    1.418   .     A
C720   H739    1.107   .     S
C720   H737    1.112   .     S
C720   O778    1.414   .     S
C720   H816    1.111   .     S
C721   O768    1.407   .     S
C721   H740    1.104   .     S
C721   H741    1.108   .     S
C721   H742    1.107   .     S
C722   H744    1.106   .     S
C722   C723    1.542   .     S
C722   H977    1.110   .     S
C722   O1003   1.421   .     S
C723   H745    1.106   .     S
C723   C724    1.530   .     S
C723   H747    1.099   .     S
C724   H750    1.110   .     S
C724   H749    1.107   .     S
C724   H748    1.109   .     S
C725   H762    1.075   .     S
C725   C730    1.391   .     A
C726   H752    1.110   .     S
C726   H751    1.111   .     S
C726   O770    1.419   .     S
C726   C961    1.533   .     S
C727   C728    1.527   .     S
C727   H753    1.108   .     S
C727   H754    1.111   .     S
C727   C1194   1.533   1_545 S
C728   H756    1.111   .     S
C728   H1223   1.109   1_545 S
C728   H1226   1.111   1_545 S
C729   C731    1.380   .     A
C729   H763    1.069   .     S
C730   H735    1.082   .     S
C731   H746    1.084   .     S
C731   C15     1.385   1_556 S
C732   C1123   1.375   1_455 S
C732   O1003   1.406   .     S
C733   C1278   1.375   1_545 S
C733   O1238   1.393   1_545 S
C734   O776    1.292   .     A
C734   O930    1.294   1_455 S
H736   N766    1.027   .     S
H738   C876    1.111   1_455 S
H743   C1190   1.110   1_545 S
H755   C962    1.109   .     S
H757   C866    1.084   1_455 S
H758   C962    1.111   .     S
H759   C787    1.084   .     S
H761   C864    1.084   1_455 S
H764   N765    1.027   .     S
N765   N766    1.301   .     D
N765   Zn780   2.010   .     S
N766   Zn779   2.010   .     S
O767   Zn779   1.981   .     S
O767   C781    1.274   .     S
O769   C1200   1.406   1_545 S
O769   C1190   1.421   1_545 S
O770   C967    1.393   .     S
O771   Zn780   1.981   .     S
O771   C870    1.270   1_455 S
O772   Zn780   2.014   .     S
O773   Zn779   2.014   .     S
O774   Zn779   1.973   .     S
O774   C812    1.294   .     S
O775   Zn780   1.973   .     S
O775   C860    1.280   1_455 S
O776   Zn780   1.942   .     S
O777   Zn779   1.942   .     S
C781   O850    1.294   .     A
C781   C810    1.435   .     S
C782   C784    1.441   .     S
C782   O855    1.296   .     A
C782   O931    1.280   .     S
C783   C787    1.404   .     A
C783   C789    1.409   .     A
C783   C812    1.455   .     S
C784   C788    1.399   .     A
C784   C790    1.391   .     A
C785   H838    1.082   .     S
C785   C787    1.390   .     A
C785   C794    1.398   .     A
C786   C795    1.399   .     A
C786   C788    1.387   .     A
C786   H917    1.084   .     S
C788   H913    1.084   .     S
C789   O846    1.391   .     S
C789   C791    1.404   .     A
C790   O856    1.383   .     S
C790   C793    1.403   .     A
C791   C794    1.413   .     A
C791   C796    1.411   .     A
C792   O851    1.294   .     A
C792   C811    1.420   .     S
C792   O927    1.270   .     S
C793   C795    1.424   .     A
C793   C797    1.422   .     A
C794   C106    1.392   1_556 S
C796   C807    1.407   .     A
C796   C95     1.412   1_556 S
C797   C803    1.418   .     A
C798   H817    1.107   .     S
C798   H815    1.112   .     S
C798   O856    1.414   .     S
C798   H894    1.111   .     S
C799   O846    1.407   .     S
C799   H818    1.104   .     S
C799   H819    1.108   .     S
C799   H820    1.107   .     S
C800   H822    1.106   .     S
C800   C801    1.542   .     S
C800   H1055   1.110   .     S
C800   O1081   1.421   .     S
C801   H823    1.106   .     S
C801   C802    1.530   .     S
C801   H825    1.099   .     S
C802   H828    1.110   .     S
C802   H827    1.107   .     S
C802   H826    1.109   .     S
C803   H840    1.075   .     S
C803   C808    1.391   .     A
C804   H830    1.110   .     S
C804   H829    1.111   .     S
C804   O848    1.419   .     S
C804   C1039   1.533   .     S
C805   C806    1.527   .     S
C805   H831    1.108   .     S
C805   H832    1.111   .     S
C805   C1272   1.533   1_545 S
C806   H834    1.111   .     S
C806   H1301   1.109   1_545 S
C806   H1304   1.111   1_545 S
C807   C809    1.380   .     A
C807   H841    1.069   .     S
C808   H813    1.082   .     S
C809   H824    1.084   .     S
C809   C93     1.385   1_556 S
C810   C967    1.375   .     S
C810   O1081   1.406   .     S
C811   C1356   1.375   1_545 S
C811   O1316   1.393   1_545 S
C812   O854    1.292   .     A
H814   N844    1.027   .     S
H821   C1268   1.110   1_545 S
H833   C1040   1.109   .     S
H836   C1040   1.111   .     S
H837   C865    1.084   .     S
H842   N843    1.027   .     S
N843   N844    1.301   .     D
N843   Zn858   2.010   .     S
N844   Zn857   2.010   .     S
O845   Zn857   1.981   .     S
O845   C859    1.274   .     S
O847   C1278   1.406   1_545 S
O847   C1268   1.421   1_545 S
O848   C1045   1.393   .     S
O849   Zn858   1.981   .     S
O850   Zn858   2.014   .     S
O851   Zn857   2.014   .     S
O852   Zn857   1.973   .     S
O852   C890    1.294   .     S
O853   Zn858   1.973   .     S
O854   Zn858   1.942   .     S
O855   Zn857   1.942   .     S
C859   O928    1.294   .     A
C859   C888    1.435   .     S
C860   C862    1.441   .     S
C860   O933    1.296   .     A
C860   O775    1.280   1_655 S
C861   C865    1.404   .     A
C861   C867    1.409   .     A
C861   C890    1.455   .     S
C862   C866    1.399   .     A
C862   C868    1.391   .     A
C863   H916    1.082   .     S
C863   C865    1.390   .     A
C863   C872    1.398   .     A
C864   C873    1.399   .     A
C864   C866    1.387   .     A
C864   H761    1.084   1_655 S
C866   H757    1.084   1_655 S
C867   O924    1.391   .     S
C867   C869    1.404   .     A
C868   O934    1.383   .     S
C868   C871    1.403   .     A
C869   C872    1.413   .     A
C869   C874    1.411   .     A
C870   O929    1.294   .     A
C870   C889    1.420   .     S
C870   O771    1.270   1_655 S
C871   C873    1.424   .     A
C871   C875    1.422   .     A
C872   C184    1.392   1_556 S
C874   C885    1.407   .     A
C874   C173    1.412   1_556 S
C875   C881    1.418   .     A
C876   H895    1.107   .     S
C876   H893    1.112   .     S
C876   O934    1.414   .     S
C876   H738    1.111   1_655 S
C877   O924    1.407   .     S
C877   H896    1.104   .     S
C877   H897    1.108   .     S
C877   H898    1.107   .     S
C878   H900    1.106   .     S
C878   C879    1.542   .     S
C878   H1133   1.110   .     S
C878   O1159   1.421   .     S
C879   H901    1.106   .     S
C879   C880    1.530   .     S
C879   H903    1.099   .     S
C880   H906    1.110   .     S
C880   H905    1.107   .     S
C880   H904    1.109   .     S
C881   H918    1.075   .     S
C881   C886    1.391   .     A
C882   H908    1.110   .     S
C882   H907    1.111   .     S
C882   O926    1.419   .     S
C882   C1117   1.533   .     S
C883   C884    1.527   .     S
C883   H909    1.108   .     S
C883   H910    1.111   .     S
C883   C1350   1.533   1_545 S
C884   H912    1.111   .     S
C884   H1379   1.109   1_545 S
C884   H1382   1.111   1_545 S
C885   C887    1.380   .     A
C885   H919    1.069   .     S
C886   H891    1.082   .     S
C887   H902    1.084   .     S
C887   C171    1.385   1_556 S
C888   C1045   1.375   .     S
C888   O1159   1.406   .     S
C889   C1200   1.375   1_645 S
C889   O1394   1.393   1_545 S
C890   O932    1.292   .     A
H892   N922    1.027   .     S
H899   C1346   1.110   1_545 S
H911   C1118   1.109   .     S
H914   C1118   1.111   .     S
H915   C709    1.084   1_655 S
H920   N921    1.027   .     S
N921   N922    1.301   .     D
N921   Zn936   2.010   .     S
N922   Zn935   2.010   .     S
O923   Zn935   1.981   .     S
O923   C703    1.274   1_655 S
O925   C1356   1.406   1_545 S
O925   C1346   1.421   1_545 S
O926   C1123   1.393   .     S
O927   Zn936   1.981   .     S
O928   Zn936   2.014   .     S
O929   Zn935   2.014   .     S
O930   Zn935   1.973   .     S
O930   C734    1.294   1_655 S
O931   Zn936   1.973   .     S
O932   Zn936   1.942   .     S
O933   Zn935   1.942   .     S
C937   O1006   1.294   .     A
C937   C966    1.435   .     S
C937   O1157   1.274   1_455 S
C938   C940    1.441   .     S
C938   O1011   1.296   .     A
C938   O1087   1.280   .     S
C939   C943    1.404   .     A
C939   C945    1.409   .     A
C939   C968    1.455   .     S
C940   C944    1.399   .     A
C940   C946    1.391   .     A
C941   H994    1.082   .     S
C941   C943    1.390   .     A
C941   C950    1.398   .     A
C942   C951    1.399   .     A
C942   C944    1.387   .     A
C942   H1073   1.084   .     S
C943   H1149   1.084   1_455 S
C944   H1069   1.084   .     S
C945   O1002   1.391   .     S
C945   C947    1.404   .     A
C946   O1012   1.383   .     S
C946   C949    1.403   .     A
C947   C950    1.413   .     A
C947   C952    1.411   .     A
C948   O1007   1.294   .     A
C948   C967    1.420   .     S
C948   O1083   1.270   .     S
C949   C951    1.424   .     A
C949   C953    1.422   .     A
C950   C262    1.392   1_556 S
C952   C963    1.407   .     A
C952   C251    1.412   1_556 S
C953   C959    1.418   .     A
C954   H973    1.107   .     S
C954   H971    1.112   .     S
C954   O1012   1.414   .     S
C954   H1050   1.111   .     S
C955   O1002   1.407   .     S
C955   H974    1.104   .     S
C955   H975    1.108   .     S
C955   H976    1.107   .     S
C956   H978    1.106   .     S
C956   C957    1.542   .     S
C956   H1211   1.110   .     S
C956   O1237   1.421   .     S
C957   H979    1.106   .     S
C957   C958    1.530   .     S
C957   H981    1.099   .     S
C958   H984    1.110   .     S
C958   H983    1.107   .     S
C958   H982    1.109   .     S
C959   H996    1.075   .     S
C959   C964    1.391   .     A
C960   H986    1.110   .     S
C960   H985    1.111   .     S
C960   O1004   1.419   .     S
C960   C1195   1.533   .     S
C961   C962    1.527   .     S
C961   H987    1.108   .     S
C961   H988    1.111   .     S
C962   H990    1.111   .     S
C963   C965    1.380   .     A
C963   H997    1.069   .     S
C964   H969    1.082   .     S
C965   H980    1.084   .     S
C965   C249    1.385   1_556 S
C966   C1357   1.375   1_455 S
C966   O1237   1.406   .     S
C968   O1010   1.292   .     A
C968   O1164   1.294   1_455 S
H970   N1000   1.027   .     S
H972   C1110   1.111   1_455 S
H989   C1196   1.109   .     S
H991   C1100   1.084   1_455 S
H992   C1196   1.111   .     S
H993   C1021   1.084   .     S
H995   C1098   1.084   1_455 S
H998   N999    1.027   .     S
N999   N1000   1.301   .     D
N999   Zn1014  2.010   .     S
N1000  Zn1013  2.010   .     S
O1001  Zn1013  1.981   .     S
O1001  C1015   1.274   .     S
O1004  C1201   1.393   .     S
O1005  Zn1014  1.981   .     S
O1005  C1104   1.270   1_455 S
O1006  Zn1014  2.014   .     S
O1007  Zn1013  2.014   .     S
O1008  Zn1013  1.973   .     S
O1008  C1046   1.294   .     S
O1009  Zn1014  1.973   .     S
O1009  C1094   1.280   1_455 S
O1010  Zn1014  1.942   .     S
O1011  Zn1013  1.942   .     S
C1015  O1084   1.294   .     A
C1015  C1044   1.435   .     S
C1016  C1018   1.441   .     S
C1016  O1089   1.296   .     A
C1016  O1165   1.280   .     S
C1017  C1021   1.404   .     A
C1017  C1023   1.409   .     A
C1017  C1046   1.455   .     S
C1018  C1022   1.399   .     A
C1018  C1024   1.391   .     A
C1019  H1072   1.082   .     S
C1019  C1021   1.390   .     A
C1019  C1028   1.398   .     A
C1020  C1029   1.399   .     A
C1020  C1022   1.387   .     A
C1020  H1151   1.084   .     S
C1022  H1147   1.084   .     S
C1023  O1080   1.391   .     S
C1023  C1025   1.404   .     A
C1024  O1090   1.383   .     S
C1024  C1027   1.403   .     A
C1025  C1028   1.413   .     A
C1025  C1030   1.411   .     A
C1026  O1085   1.294   .     A
C1026  C1045   1.420   .     S
C1026  O1161   1.270   .     S
C1027  C1029   1.424   .     A
C1027  C1031   1.422   .     A
C1028  C340    1.392   1_556 S
C1030  C1041   1.407   .     A
C1030  C329    1.412   1_556 S
C1031  C1037   1.418   .     A
C1032  H1051   1.107   .     S
C1032  H1049   1.112   .     S
C1032  O1090   1.414   .     S
C1032  H1128   1.111   .     S
C1033  O1080   1.407   .     S
C1033  H1052   1.104   .     S
C1033  H1053   1.108   .     S
C1033  H1054   1.107   .     S
C1034  H1056   1.106   .     S
C1034  C1035   1.542   .     S
C1034  H1289   1.110   .     S
C1034  O1315   1.421   .     S
C1035  H1057   1.106   .     S
C1035  C1036   1.530   .     S
C1035  H1059   1.099   .     S
C1036  H1062   1.110   .     S
C1036  H1061   1.107   .     S
C1036  H1060   1.109   .     S
C1037  H1074   1.075   .     S
C1037  C1042   1.391   .     A
C1038  H1064   1.110   .     S
C1038  H1063   1.111   .     S
C1038  O1082   1.419   .     S
C1038  C1273   1.533   .     S
C1039  C1040   1.527   .     S
C1039  H1065   1.108   .     S
C1039  H1066   1.111   .     S
C1040  H1068   1.111   .     S
C1041  C1043   1.380   .     A
C1041  H1075   1.069   .     S
C1042  H1047   1.082   .     S
C1043  H1058   1.084   .     S
C1043  C327    1.385   1_556 S
C1044  C1201   1.375   .     S
C1044  O1315   1.406   .     S
C1046  O1088   1.292   .     A
H1048  N1078   1.027   .     S
H1067  C1274   1.109   .     S
H1070  C1274   1.111   .     S
H1071  C1099   1.084   .     S
H1076  N1077   1.027   .     S
N1077  N1078   1.301   .     D
N1077  Zn1092  2.010   .     S
N1078  Zn1091  2.010   .     S
O1079  Zn1091  1.981   .     S
O1079  C1093   1.274   .     S
O1082  C1279   1.393   .     S
O1083  Zn1092  1.981   .     S
O1084  Zn1092  2.014   .     S
O1085  Zn1091  2.014   .     S
O1086  Zn1091  1.973   .     S
O1086  C1124   1.294   .     S
O1087  Zn1092  1.973   .     S
O1088  Zn1092  1.942   .     S
O1089  Zn1091  1.942   .     S
C1093  O1162   1.294   .     A
C1093  C1122   1.435   .     S
C1094  C1096   1.441   .     S
C1094  O1167   1.296   .     A
C1094  O1009   1.280   1_655 S
C1095  C1099   1.404   .     A
C1095  C1101   1.409   .     A
C1095  C1124   1.455   .     S
C1096  C1100   1.399   .     A
C1096  C1102   1.391   .     A
C1097  H1150   1.082   .     S
C1097  C1099   1.390   .     A
C1097  C1106   1.398   .     A
C1098  C1107   1.399   .     A
C1098  C1100   1.387   .     A
C1098  H995    1.084   1_655 S
C1100  H991    1.084   1_655 S
C1101  O1158   1.391   .     S
C1101  C1103   1.404   .     A
C1102  O1168   1.383   .     S
C1102  C1105   1.403   .     A
C1103  C1106   1.413   .     A
C1103  C1108   1.411   .     A
C1104  O1163   1.294   .     A
C1104  C1123   1.420   .     S
C1104  O1005   1.270   1_655 S
C1105  C1107   1.424   .     A
C1105  C1109   1.422   .     A
C1106  C418    1.392   1_556 S
C1108  C1119   1.407   .     A
C1108  C407    1.412   1_556 S
C1109  C1115   1.418   .     A
C1110  H1129   1.107   .     S
C1110  H1127   1.112   .     S
C1110  O1168   1.414   .     S
C1110  H972    1.111   1_655 S
C1111  O1158   1.407   .     S
C1111  H1130   1.104   .     S
C1111  H1131   1.108   .     S
C1111  H1132   1.107   .     S
C1112  H1134   1.106   .     S
C1112  C1113   1.542   .     S
C1112  H1367   1.110   .     S
C1112  O1393   1.421   .     S
C1113  H1135   1.106   .     S
C1113  C1114   1.530   .     S
C1113  H1137   1.099   .     S
C1114  H1140   1.110   .     S
C1114  H1139   1.107   .     S
C1114  H1138   1.109   .     S
C1115  H1152   1.075   .     S
C1115  C1120   1.391   .     A
C1116  H1142   1.110   .     S
C1116  H1141   1.111   .     S
C1116  O1160   1.419   .     S
C1116  C1351   1.533   .     S
C1117  C1118   1.527   .     S
C1117  H1143   1.108   .     S
C1117  H1144   1.111   .     S
C1118  H1146   1.111   .     S
C1119  C1121   1.380   .     A
C1119  H1153   1.069   .     S
C1120  H1125   1.082   .     S
C1121  H1136   1.084   .     S
C1121  C405    1.385   1_556 S
C1122  C1279   1.375   .     S
C1122  O1393   1.406   .     S
C1123  C732    1.375   1_655 S
C1124  O1166   1.292   .     A
H1126  N1156   1.027   .     S
H1145  C1352   1.109   .     S
H1148  C1352   1.111   .     S
H1149  C943    1.084   1_655 S
H1154  N1155   1.027   .     S
N1155  N1156   1.301   .     D
N1155  Zn1170  2.010   .     S
N1156  Zn1169  2.010   .     S
O1157  Zn1169  1.981   .     S
O1157  C937    1.274   1_655 S
O1160  C1357   1.393   .     S
O1161  Zn1170  1.981   .     S
O1162  Zn1170  2.014   .     S
O1163  Zn1169  2.014   .     S
O1164  Zn1169  1.973   .     S
O1164  C968    1.294   1_655 S
O1165  Zn1170  1.973   .     S
O1166  Zn1170  1.942   .     S
O1167  Zn1169  1.942   .     S
C1171  O1240   1.294   .     A
C1171  C1200   1.435   .     S
C1171  O1391   1.274   1_455 S
C1172  C1174   1.441   .     S
C1172  O1245   1.296   .     A
C1172  O1321   1.280   .     S
C1173  C1177   1.404   .     A
C1173  C1179   1.409   .     A
C1173  C1202   1.455   .     S
C1174  C1178   1.399   .     A
C1174  C1180   1.391   .     A
C1175  H1228   1.082   .     S
C1175  C1177   1.390   .     A
C1175  C1184   1.398   .     A
C1176  C1185   1.399   .     A
C1176  C1178   1.387   .     A
C1176  H1307   1.084   .     S
C1177  H1383   1.084   1_455 S
C1178  H1303   1.084   .     S
C1179  O1236   1.391   .     S
C1179  C1181   1.404   .     A
C1180  O1246   1.383   .     S
C1180  C1183   1.403   .     A
C1181  C1184   1.413   .     A
C1181  C1186   1.411   .     A
C1182  O1241   1.294   .     A
C1182  C1201   1.420   .     S
C1182  O1317   1.270   .     S
C1183  C1185   1.424   .     A
C1183  C1187   1.422   .     A
C1184  C496    1.392   1_556 S
C1186  C1197   1.407   .     A
C1186  C485    1.412   1_556 S
C1187  C1193   1.418   .     A
C1188  H1207   1.107   .     S
C1188  H1205   1.112   .     S
C1188  O1246   1.414   .     S
C1188  H1284   1.111   .     S
C1189  O1236   1.407   .     S
C1189  H1208   1.104   .     S
C1189  H1209   1.108   .     S
C1189  H1210   1.107   .     S
C1190  H1212   1.106   .     S
C1190  C1191   1.542   .     S
C1190  H743    1.110   1_565 S
C1190  O769    1.421   1_565 S
C1191  H1213   1.106   .     S
C1191  C1192   1.530   .     S
C1191  H1215   1.099   .     S
C1192  H1218   1.110   .     S
C1192  H1217   1.107   .     S
C1192  H1216   1.109   .     S
C1193  H1230   1.075   .     S
C1193  C1198   1.391   .     A
C1194  H1220   1.110   .     S
C1194  H1219   1.111   .     S
C1194  O1238   1.419   .     S
C1194  C727    1.533   1_565 S
C1195  C1196   1.527   .     S
C1195  H1221   1.108   .     S
C1195  H1222   1.111   .     S
C1196  H1224   1.111   .     S
C1197  C1199   1.380   .     A
C1197  H1231   1.069   .     S
C1198  H1203   1.082   .     S
C1199  H1214   1.084   .     S
C1199  C483    1.385   1_556 S
C1200  C889    1.375   1_465 S
C1200  O769    1.406   1_565 S
C1202  O1244   1.292   .     A
C1202  O1398   1.294   1_455 S
H1204  N1234   1.027   .     S
H1206  C1344   1.111   1_455 S
H1223  C728    1.109   1_565 S
H1225  C1334   1.084   1_455 S
H1226  C728    1.111   1_565 S
H1227  C1255   1.084   .     S
H1229  C1332   1.084   1_455 S
H1232  N1233   1.027   .     S
N1233  N1234   1.301   .     D
N1233  Zn1248  2.010   .     S
N1234  Zn1247  2.010   .     S
O1235  Zn1247  1.981   .     S
O1235  C1249   1.274   .     S
O1238  C733    1.393   1_565 S
O1239  Zn1248  1.981   .     S
O1239  C1338   1.270   1_455 S
O1240  Zn1248  2.014   .     S
O1241  Zn1247  2.014   .     S
O1242  Zn1247  1.973   .     S
O1242  C1280   1.294   .     S
O1243  Zn1248  1.973   .     S
O1243  C1328   1.280   1_455 S
O1244  Zn1248  1.942   .     S
O1245  Zn1247  1.942   .     S
C1249  O1318   1.294   .     A
C1249  C1278   1.435   .     S
C1250  C1252   1.441   .     S
C1250  O1323   1.296   .     A
C1250  O1399   1.280   .     S
C1251  C1255   1.404   .     A
C1251  C1257   1.409   .     A
C1251  C1280   1.455   .     S
C1252  C1256   1.399   .     A
C1252  C1258   1.391   .     A
C1253  H1306   1.082   .     S
C1253  C1255   1.390   .     A
C1253  C1262   1.398   .     A
C1254  C1263   1.399   .     A
C1254  C1256   1.387   .     A
C1254  H1385   1.084   .     S
C1256  H1381   1.084   .     S
C1257  O1314   1.391   .     S
C1257  C1259   1.404   .     A
C1258  O1324   1.383   .     S
C1258  C1261   1.403   .     A
C1259  C1262   1.413   .     A
C1259  C1264   1.411   .     A
C1260  O1319   1.294   .     A
C1260  C1279   1.420   .     S
C1260  O1395   1.270   .     S
C1261  C1263   1.424   .     A
C1261  C1265   1.422   .     A
C1262  C574    1.392   1_556 S
C1264  C1275   1.407   .     A
C1264  C563    1.412   1_556 S
C1265  C1271   1.418   .     A
C1266  H1285   1.107   .     S
C1266  H1283   1.112   .     S
C1266  O1324   1.414   .     S
C1266  H1362   1.111   .     S
C1267  O1314   1.407   .     S
C1267  H1286   1.104   .     S
C1267  H1287   1.108   .     S
C1267  H1288   1.107   .     S
C1268  H1290   1.106   .     S
C1268  C1269   1.542   .     S
C1268  H821    1.110   1_565 S
C1268  O847    1.421   1_565 S
C1269  H1291   1.106   .     S
C1269  C1270   1.530   .     S
C1269  H1293   1.099   .     S
C1270  H1296   1.110   .     S
C1270  H1295   1.107   .     S
C1270  H1294   1.109   .     S
C1271  H1308   1.075   .     S
C1271  C1276   1.391   .     A
C1272  H1298   1.110   .     S
C1272  H1297   1.111   .     S
C1272  O1316   1.419   .     S
C1272  C805    1.533   1_565 S
C1273  C1274   1.527   .     S
C1273  H1299   1.108   .     S
C1273  H1300   1.111   .     S
C1274  H1302   1.111   .     S
C1275  C1277   1.380   .     A
C1275  H1309   1.069   .     S
C1276  H1281   1.082   .     S
C1277  H1292   1.084   .     S
C1277  C561    1.385   1_556 S
C1278  C733    1.375   1_565 S
C1278  O847    1.406   1_565 S
C1280  O1322   1.292   .     A
H1282  N1312   1.027   .     S
H1301  C806    1.109   1_565 S
H1304  C806    1.111   1_565 S
H1305  C1333   1.084   .     S
H1310  N1311   1.027   .     S
N1311  N1312   1.301   .     D
N1311  Zn1326  2.010   .     S
N1312  Zn1325  2.010   .     S
O1313  Zn1325  1.981   .     S
O1313  C1327   1.274   .     S
O1316  C811    1.393   1_565 S
O1317  Zn1326  1.981   .     S
O1318  Zn1326  2.014   .     S
O1319  Zn1325  2.014   .     S
O1320  Zn1325  1.973   .     S
O1320  C1358   1.294   .     S
O1321  Zn1326  1.973   .     S
O1322  Zn1326  1.942   .     S
O1323  Zn1325  1.942   .     S
C1327  O1396   1.294   .     A
C1327  C1356   1.435   .     S
C1328  C1330   1.441   .     S
C1328  O1401   1.296   .     A
C1328  O1243   1.280   1_655 S
C1329  C1333   1.404   .     A
C1329  C1335   1.409   .     A
C1329  C1358   1.455   .     S
C1330  C1334   1.399   .     A
C1330  C1336   1.391   .     A
C1331  H1384   1.082   .     S
C1331  C1333   1.390   .     A
C1331  C1340   1.398   .     A
C1332  C1341   1.399   .     A
C1332  C1334   1.387   .     A
C1332  H1229   1.084   1_655 S
C1334  H1225   1.084   1_655 S
C1335  O1392   1.391   .     S
C1335  C1337   1.404   .     A
C1336  O1402   1.383   .     S
C1336  C1339   1.403   .     A
C1337  C1340   1.413   .     A
C1337  C1342   1.411   .     A
C1338  O1397   1.294   .     A
C1338  C1357   1.420   .     S
C1338  O1239   1.270   1_655 S
C1339  C1341   1.424   .     A
C1339  C1343   1.422   .     A
C1340  C652    1.392   1_556 S
C1342  C1353   1.407   .     A
C1342  C641    1.412   1_556 S
C1343  C1349   1.418   .     A
C1344  H1363   1.107   .     S
C1344  H1361   1.112   .     S
C1344  O1402   1.414   .     S
C1344  H1206   1.111   1_655 S
C1345  O1392   1.407   .     S
C1345  H1364   1.104   .     S
C1345  H1365   1.108   .     S
C1345  H1366   1.107   .     S
C1346  H1368   1.106   .     S
C1346  C1347   1.542   .     S
C1346  H899    1.110   1_565 S
C1346  O925    1.421   1_565 S
C1347  H1369   1.106   .     S
C1347  C1348   1.530   .     S
C1347  H1371   1.099   .     S
C1348  H1374   1.110   .     S
C1348  H1373   1.107   .     S
C1348  H1372   1.109   .     S
C1349  H1386   1.075   .     S
C1349  C1354   1.391   .     A
C1350  H1376   1.110   .     S
C1350  H1375   1.111   .     S
C1350  O1394   1.419   .     S
C1350  C883    1.533   1_565 S
C1351  C1352   1.527   .     S
C1351  H1377   1.108   .     S
C1351  H1378   1.111   .     S
C1352  H1380   1.111   .     S
C1353  C1355   1.380   .     A
C1353  H1387   1.069   .     S
C1354  H1359   1.082   .     S
C1355  H1370   1.084   .     S
C1355  C639    1.385   1_556 S
C1356  C811    1.375   1_565 S
C1356  O925    1.406   1_565 S
C1357  C966    1.375   1_655 S
C1358  O1400   1.292   .     A
H1360  N1390   1.027   .     S
H1379  C884    1.109   1_565 S
H1382  C884    1.111   1_565 S
H1383  C1177   1.084   1_655 S
H1388  N1389   1.027   .     S
N1389  N1390   1.301   .     D
N1389  Zn1404  2.010   .     S
N1390  Zn1403  2.010   .     S
O1391  Zn1403  1.981   .     S
O1391  C1171   1.274   1_655 S
O1394  C889    1.393   1_565 S
O1395  Zn1404  1.981   .     S
O1396  Zn1404  2.014   .     S
O1397  Zn1403  2.014   .     S
O1398  Zn1403  1.973   .     S
O1398  C1202   1.294   1_655 S
O1399  Zn1404  1.973   .     S
O1400  Zn1404  1.942   .     S
O1401  Zn1403  1.942   .     S
