data_str_m3_o1_o17_pcu_sym.41
_audit_creation_date              2020-01-03
_audit_creation_method            'Materials Studio'
_symmetry_space_group_name_H-M    'P1'
_symmetry_Int_Tables_number       1
_symmetry_cell_setting            triclinic
loop_
_symmetry_equiv_pos_as_xyz
  x,y,z
_cell_length_a                    32.0465
_cell_length_b                    29.5469
_cell_length_c                    29.7750
_cell_angle_alpha                 90.1497
_cell_angle_beta                  90.1776
_cell_angle_gamma                 90.2482
loop_
_atom_site_label
_atom_site_type_symbol
_atom_site_fract_x
_atom_site_fract_y
_atom_site_fract_z
_atom_site_U_iso_or_equiv
_atom_site_adp_type
_atom_site_occupancy
C1     C     0.08665   0.16660   0.24991   0.00000  Uiso   1.00
C2     C     0.04251   0.16656   0.24989   0.00000  Uiso   1.00
C3     C     0.19371   0.02417   0.27673   0.00000  Uiso   1.00
C4     C     0.13963   0.30916   0.22327   0.00000  Uiso   1.00
C5     C     0.13963   0.02378   0.22327   0.00000  Uiso   1.00
C6     C     0.19371   0.30956   0.27673   0.00000  Uiso   1.00
C7     C     0.16659   0.16661   0.16352   0.00000  Uiso   1.00
C8     C     0.16675   0.16672   0.33647   0.00000  Uiso   1.00
C9     C     0.20261   0.15282   0.40659   0.00000  Uiso   1.00
C10    C     0.13067   0.18033   0.09339   0.00000  Uiso   1.00
C11    C     0.16695   0.16686   0.38407   0.00000  Uiso   1.00
C12    C     0.24668   0.16673   0.25015   0.00000  Uiso   1.00
C13    C     0.16638   0.16643   0.11591   0.00000  Uiso   1.00
C14    C     0.13143   0.18086   0.40651   0.00000  Uiso   1.00
C15    C     0.20185   0.15232   0.09348   0.00000  Uiso   1.00
C16    C     0.13092   0.18027   0.45293   0.00000  Uiso   1.00
C17    C     0.20232   0.15273   0.04705   0.00000  Uiso   1.00
C18    C     0.16695   0.16653   0.47660   0.00000  Uiso   1.00
C19    C     0.16628   0.16644   0.02338   0.00000  Uiso   1.00
C20    C     0.20356   0.15295   0.45337   0.00000  Uiso   1.00
C21    C     0.12965   0.17997   0.04661   0.00000  Uiso   1.00
C22    C     0.09473   0.19291   0.47566   0.00000  Uiso   1.00
C23    C     0.09344   0.19264   0.02241   0.00000  Uiso   1.00
C24    C     0.23843   0.13985   0.02432   0.00000  Uiso   1.00
C25    C     0.23967   0.13994   0.47754   0.00000  Uiso   1.00
C26    C     0.02125   0.12795   0.26432   0.00000  Uiso   1.00
C27    C     0.31208   0.20543   0.23592   0.00000  Uiso   1.00
C28    C     0.31185   0.12808   0.26457   0.00000  Uiso   1.00
C29    C     0.02148   0.20530   0.23568   0.00000  Uiso   1.00
C30    C     0.29082   0.16680   0.25030   0.00000  Uiso   1.00
H31    H     0.22924   0.14236   0.38697   0.00000  Uiso   1.00
H32    H     0.03796   0.23515   0.22407   0.00000  Uiso   1.00
H33    H     0.21533   0.04248   0.29811   0.00000  Uiso   1.00
H34    H     0.11800   0.29085   0.20189   0.00000  Uiso   1.00
H35    H     0.11800   0.04177   0.20189   0.00000  Uiso   1.00
H36    H     0.21533   0.29156   0.29811   0.00000  Uiso   1.00
H37    H     0.31548   0.21894   0.02769   0.00000  Uiso   1.00
H38    H     0.32866   0.15547   0.40305   0.00000  Uiso   1.00
H39    H     0.10406   0.19086   0.11301   0.00000  Uiso   1.00
H40    H     0.10411   0.19141   0.38765   0.00000  Uiso   1.00
H41    H     0.22918   0.14178   0.11233   0.00000  Uiso   1.00
H42    H     0.06735   0.20276   0.45669   0.00000  Uiso   1.00
H43    H     0.26577   0.12985   0.04330   0.00000  Uiso   1.00
H44    H     0.03755   0.09804   0.27578   0.00000  Uiso   1.00
H45    H     0.29579   0.23534   0.22446   0.00000  Uiso   1.00
H46    H     0.29537   0.09823   0.27617   0.00000  Uiso   1.00
N47    N     0.16667   0.28573   0.25000   0.00000  Uiso   1.00
N48    N     0.16667   0.04760   0.25000   0.00000  Uiso   1.00
O49    O     0.10559   0.20487   0.24999   0.00000  Uiso   1.00
O50    O     0.05257   0.24898   0.07734   0.00000  Uiso   1.00
O51    O     0.00855   0.21809   0.01051   0.00000  Uiso   1.00
O52    O     0.32033   0.11420   0.48489   0.00000  Uiso   1.00
O53    O     0.27930   0.08274   0.42253   0.00000  Uiso   1.00
O54    O     0.30302   0.16682   0.41768   0.00000  Uiso   1.00
O55    O     0.22774   0.12846   0.25000   0.00000  Uiso   1.00
O56    O     0.22774   0.20487   0.25000   0.00000  Uiso   1.00
O57    O     0.10559   0.12846   0.24999   0.00000  Uiso   1.00
O58    O     0.16666   0.20489   0.18392   0.00000  Uiso   1.00
O59    O     0.16667   0.12844   0.31607   0.00000  Uiso   1.00
O60    O     0.16667   0.20489   0.31607   0.00000  Uiso   1.00
O61    O     0.16666   0.12844   0.18392   0.00000  Uiso   1.00
O62    O     0.03187   0.16900   0.07830   0.00000  Uiso   1.00
S63    S     0.04586   0.20746   0.04890   0.00000  Uiso   1.00
S64    S     0.28692   0.12419   0.45081   0.00000  Uiso   1.00
Zn65   Zn    0.16667   0.21771   0.25000   0.00000  Uiso   1.00
Zn66   Zn    0.16667   0.11563   0.25000   0.00000  Uiso   1.00
C67    C     0.41999   0.16660   0.24991   0.00000  Uiso   1.00
C68    C     0.37585   0.16656   0.24989   0.00000  Uiso   1.00
C69    C     0.52704   0.02417   0.27673   0.00000  Uiso   1.00
C70    C     0.47296   0.30916   0.22327   0.00000  Uiso   1.00
C71    C     0.47296   0.02378   0.22327   0.00000  Uiso   1.00
C72    C     0.52704   0.30956   0.27673   0.00000  Uiso   1.00
C73    C     0.49992   0.16661   0.16352   0.00000  Uiso   1.00
C74    C     0.50008   0.16672   0.33647   0.00000  Uiso   1.00
C75    C     0.53594   0.15282   0.40659   0.00000  Uiso   1.00
C76    C     0.46400   0.18033   0.09339   0.00000  Uiso   1.00
C77    C     0.50028   0.16686   0.38407   0.00000  Uiso   1.00
C78    C     0.58001   0.16673   0.25015   0.00000  Uiso   1.00
C79    C     0.49971   0.16643   0.11591   0.00000  Uiso   1.00
C80    C     0.46476   0.18086   0.40651   0.00000  Uiso   1.00
C81    C     0.53519   0.15232   0.09348   0.00000  Uiso   1.00
C82    C     0.46425   0.18027   0.45293   0.00000  Uiso   1.00
C83    C     0.53565   0.15273   0.04705   0.00000  Uiso   1.00
C84    C     0.50029   0.16653   0.47660   0.00000  Uiso   1.00
C85    C     0.49961   0.16644   0.02338   0.00000  Uiso   1.00
C86    C     0.53689   0.15295   0.45337   0.00000  Uiso   1.00
C87    C     0.46298   0.17997   0.04661   0.00000  Uiso   1.00
C88    C     0.42806   0.19291   0.47566   0.00000  Uiso   1.00
C89    C     0.42677   0.19264   0.02241   0.00000  Uiso   1.00
C90    C     0.57176   0.13985   0.02432   0.00000  Uiso   1.00
C91    C     0.57301   0.13994   0.47754   0.00000  Uiso   1.00
C92    C     0.35458   0.12795   0.26432   0.00000  Uiso   1.00
C93    C     0.64542   0.20543   0.23592   0.00000  Uiso   1.00
C94    C     0.64518   0.12808   0.26457   0.00000  Uiso   1.00
C95    C     0.35481   0.20530   0.23568   0.00000  Uiso   1.00
C96    C     0.62415   0.16680   0.25030   0.00000  Uiso   1.00
H97    H     0.56257   0.14236   0.38697   0.00000  Uiso   1.00
H98    H     0.37129   0.23515   0.22407   0.00000  Uiso   1.00
H99    H     0.54866   0.04248   0.29811   0.00000  Uiso   1.00
H100   H     0.45134   0.29085   0.20189   0.00000  Uiso   1.00
H101   H     0.45134   0.04177   0.20189   0.00000  Uiso   1.00
H102   H     0.54866   0.29156   0.29811   0.00000  Uiso   1.00
H103   H     0.64881   0.21894   0.02769   0.00000  Uiso   1.00
H104   H     0.66199   0.15547   0.40305   0.00000  Uiso   1.00
H105   H     0.43740   0.19086   0.11301   0.00000  Uiso   1.00
H106   H     0.43744   0.19141   0.38765   0.00000  Uiso   1.00
H107   H     0.56251   0.14178   0.11233   0.00000  Uiso   1.00
H108   H     0.40068   0.20276   0.45669   0.00000  Uiso   1.00
H109   H     0.59910   0.12985   0.04330   0.00000  Uiso   1.00
H110   H     0.37089   0.09804   0.27578   0.00000  Uiso   1.00
H111   H     0.62912   0.23534   0.22446   0.00000  Uiso   1.00
H112   H     0.62870   0.09823   0.27617   0.00000  Uiso   1.00
N113   N     0.50000   0.28573   0.25000   0.00000  Uiso   1.00
N114   N     0.50000   0.04760   0.25000   0.00000  Uiso   1.00
O115   O     0.43892   0.20487   0.24999   0.00000  Uiso   1.00
O116   O     0.38590   0.24898   0.07734   0.00000  Uiso   1.00
O117   O     0.34188   0.21809   0.01051   0.00000  Uiso   1.00
O118   O     0.65366   0.11420   0.48489   0.00000  Uiso   1.00
O119   O     0.61264   0.08274   0.42253   0.00000  Uiso   1.00
O120   O     0.63635   0.16682   0.41768   0.00000  Uiso   1.00
O121   O     0.56108   0.12846   0.25000   0.00000  Uiso   1.00
O122   O     0.56108   0.20487   0.25000   0.00000  Uiso   1.00
O123   O     0.43892   0.12846   0.24999   0.00000  Uiso   1.00
O124   O     0.49999   0.20489   0.18392   0.00000  Uiso   1.00
O125   O     0.50001   0.12844   0.31607   0.00000  Uiso   1.00
O126   O     0.50001   0.20489   0.31607   0.00000  Uiso   1.00
O127   O     0.49999   0.12844   0.18392   0.00000  Uiso   1.00
O128   O     0.36520   0.16900   0.07830   0.00000  Uiso   1.00
S129   S     0.37919   0.20746   0.04890   0.00000  Uiso   1.00
S130   S     0.62025   0.12419   0.45081   0.00000  Uiso   1.00
Zn131  Zn    0.50000   0.21771   0.25000   0.00000  Uiso   1.00
Zn132  Zn    0.50000   0.11563   0.25000   0.00000  Uiso   1.00
C133   C     0.75332   0.16660   0.24991   0.00000  Uiso   1.00
C134   C     0.70918   0.16656   0.24989   0.00000  Uiso   1.00
C135   C     0.86037   0.02417   0.27673   0.00000  Uiso   1.00
C136   C     0.80629   0.30916   0.22327   0.00000  Uiso   1.00
C137   C     0.80629   0.02378   0.22327   0.00000  Uiso   1.00
C138   C     0.86037   0.30956   0.27673   0.00000  Uiso   1.00
C139   C     0.83325   0.16661   0.16352   0.00000  Uiso   1.00
C140   C     0.83342   0.16672   0.33647   0.00000  Uiso   1.00
C141   C     0.86927   0.15282   0.40659   0.00000  Uiso   1.00
C142   C     0.79733   0.18033   0.09339   0.00000  Uiso   1.00
C143   C     0.83361   0.16686   0.38407   0.00000  Uiso   1.00
C144   C     0.91335   0.16673   0.25015   0.00000  Uiso   1.00
C145   C     0.83304   0.16643   0.11591   0.00000  Uiso   1.00
C146   C     0.79810   0.18086   0.40651   0.00000  Uiso   1.00
C147   C     0.86852   0.15232   0.09348   0.00000  Uiso   1.00
C148   C     0.79759   0.18027   0.45293   0.00000  Uiso   1.00
C149   C     0.86898   0.15273   0.04705   0.00000  Uiso   1.00
C150   C     0.83362   0.16653   0.47660   0.00000  Uiso   1.00
C151   C     0.83294   0.16644   0.02338   0.00000  Uiso   1.00
C152   C     0.87022   0.15295   0.45337   0.00000  Uiso   1.00
C153   C     0.79632   0.17997   0.04661   0.00000  Uiso   1.00
C154   C     0.76140   0.19291   0.47566   0.00000  Uiso   1.00
C155   C     0.76010   0.19264   0.02241   0.00000  Uiso   1.00
C156   C     0.90509   0.13985   0.02432   0.00000  Uiso   1.00
C157   C     0.90634   0.13994   0.47754   0.00000  Uiso   1.00
C158   C     0.68792   0.12795   0.26432   0.00000  Uiso   1.00
C159   C     0.97875   0.20543   0.23592   0.00000  Uiso   1.00
C160   C     0.97852   0.12808   0.26457   0.00000  Uiso   1.00
C161   C     0.68815   0.20530   0.23568   0.00000  Uiso   1.00
C162   C     0.95749   0.16680   0.25030   0.00000  Uiso   1.00
H163   H     0.89590   0.14236   0.38697   0.00000  Uiso   1.00
H164   H     0.70463   0.23515   0.22407   0.00000  Uiso   1.00
H165   H     0.88200   0.04248   0.29811   0.00000  Uiso   1.00
H166   H     0.78467   0.29085   0.20189   0.00000  Uiso   1.00
H167   H     0.78467   0.04177   0.20189   0.00000  Uiso   1.00
H168   H     0.88200   0.29156   0.29811   0.00000  Uiso   1.00
H169   H     0.98214   0.21894   0.02769   0.00000  Uiso   1.00
H170   H     0.99533   0.15547   0.40305   0.00000  Uiso   1.00
H171   H     0.77073   0.19086   0.11301   0.00000  Uiso   1.00
H172   H     0.77078   0.19141   0.38765   0.00000  Uiso   1.00
H173   H     0.89584   0.14178   0.11233   0.00000  Uiso   1.00
H174   H     0.73402   0.20276   0.45669   0.00000  Uiso   1.00
H175   H     0.93243   0.12985   0.04330   0.00000  Uiso   1.00
H176   H     0.70422   0.09804   0.27578   0.00000  Uiso   1.00
H177   H     0.96245   0.23534   0.22446   0.00000  Uiso   1.00
H178   H     0.96203   0.09823   0.27617   0.00000  Uiso   1.00
N179   N     0.83333   0.28573   0.25000   0.00000  Uiso   1.00
N180   N     0.83333   0.04760   0.25000   0.00000  Uiso   1.00
O181   O     0.77226   0.20487   0.24999   0.00000  Uiso   1.00
O182   O     0.71924   0.24898   0.07734   0.00000  Uiso   1.00
O183   O     0.67521   0.21809   0.01051   0.00000  Uiso   1.00
O184   O     0.98699   0.11420   0.48489   0.00000  Uiso   1.00
O185   O     0.94597   0.08274   0.42253   0.00000  Uiso   1.00
O186   O     0.96969   0.16682   0.41768   0.00000  Uiso   1.00
O187   O     0.89441   0.12846   0.25000   0.00000  Uiso   1.00
O188   O     0.89441   0.20487   0.25000   0.00000  Uiso   1.00
O189   O     0.77226   0.12846   0.24999   0.00000  Uiso   1.00
O190   O     0.83333   0.20489   0.18392   0.00000  Uiso   1.00
O191   O     0.83334   0.12844   0.31607   0.00000  Uiso   1.00
O192   O     0.83334   0.20489   0.31607   0.00000  Uiso   1.00
O193   O     0.83333   0.12844   0.18392   0.00000  Uiso   1.00
O194   O     0.69854   0.16900   0.07830   0.00000  Uiso   1.00
S195   S     0.71252   0.20746   0.04890   0.00000  Uiso   1.00
S196   S     0.95358   0.12419   0.45081   0.00000  Uiso   1.00
Zn197  Zn    0.83333   0.21771   0.25000   0.00000  Uiso   1.00
Zn198  Zn    0.83333   0.11563   0.25000   0.00000  Uiso   1.00
C199   C     0.08665   0.49994   0.24991   0.00000  Uiso   1.00
C200   C     0.04251   0.49989   0.24989   0.00000  Uiso   1.00
C201   C     0.19371   0.35751   0.27673   0.00000  Uiso   1.00
C202   C     0.13963   0.64249   0.22327   0.00000  Uiso   1.00
C203   C     0.13963   0.35711   0.22327   0.00000  Uiso   1.00
C204   C     0.19371   0.64289   0.27673   0.00000  Uiso   1.00
C205   C     0.16659   0.49994   0.16352   0.00000  Uiso   1.00
C206   C     0.16675   0.50006   0.33647   0.00000  Uiso   1.00
C207   C     0.20261   0.48615   0.40659   0.00000  Uiso   1.00
C208   C     0.13067   0.51366   0.09339   0.00000  Uiso   1.00
C209   C     0.16695   0.50020   0.38407   0.00000  Uiso   1.00
C210   C     0.24668   0.50007   0.25015   0.00000  Uiso   1.00
C211   C     0.16638   0.49977   0.11591   0.00000  Uiso   1.00
C212   C     0.13143   0.51419   0.40651   0.00000  Uiso   1.00
C213   C     0.20185   0.48565   0.09348   0.00000  Uiso   1.00
C214   C     0.13092   0.51361   0.45293   0.00000  Uiso   1.00
C215   C     0.20232   0.48606   0.04705   0.00000  Uiso   1.00
C216   C     0.16695   0.49986   0.47660   0.00000  Uiso   1.00
C217   C     0.16628   0.49978   0.02338   0.00000  Uiso   1.00
C218   C     0.20356   0.48628   0.45337   0.00000  Uiso   1.00
C219   C     0.12965   0.51330   0.04661   0.00000  Uiso   1.00
C220   C     0.09473   0.52624   0.47566   0.00000  Uiso   1.00
C221   C     0.09344   0.52597   0.02241   0.00000  Uiso   1.00
C222   C     0.23843   0.47318   0.02432   0.00000  Uiso   1.00
C223   C     0.23967   0.47327   0.47754   0.00000  Uiso   1.00
C224   C     0.02125   0.46128   0.26432   0.00000  Uiso   1.00
C225   C     0.31208   0.53876   0.23592   0.00000  Uiso   1.00
C226   C     0.31185   0.46141   0.26457   0.00000  Uiso   1.00
C227   C     0.02148   0.53863   0.23568   0.00000  Uiso   1.00
C228   C     0.29082   0.50013   0.25030   0.00000  Uiso   1.00
H229   H     0.22924   0.47570   0.38697   0.00000  Uiso   1.00
H230   H     0.03796   0.56848   0.22407   0.00000  Uiso   1.00
H231   H     0.21533   0.37582   0.29811   0.00000  Uiso   1.00
H232   H     0.11800   0.62418   0.20189   0.00000  Uiso   1.00
H233   H     0.11800   0.37510   0.20189   0.00000  Uiso   1.00
H234   H     0.21533   0.62490   0.29811   0.00000  Uiso   1.00
H235   H     0.31548   0.55228   0.02769   0.00000  Uiso   1.00
H236   H     0.32866   0.48881   0.40305   0.00000  Uiso   1.00
H237   H     0.10406   0.52420   0.11301   0.00000  Uiso   1.00
H238   H     0.10411   0.52474   0.38765   0.00000  Uiso   1.00
H239   H     0.22918   0.47512   0.11233   0.00000  Uiso   1.00
H240   H     0.06735   0.53610   0.45669   0.00000  Uiso   1.00
H241   H     0.26577   0.46319   0.04330   0.00000  Uiso   1.00
H242   H     0.03755   0.43137   0.27578   0.00000  Uiso   1.00
H243   H     0.29579   0.56868   0.22446   0.00000  Uiso   1.00
H244   H     0.29537   0.43157   0.27617   0.00000  Uiso   1.00
N245   N     0.16667   0.61907   0.25000   0.00000  Uiso   1.00
N246   N     0.16667   0.38093   0.25000   0.00000  Uiso   1.00
O247   O     0.10559   0.53821   0.24999   0.00000  Uiso   1.00
O248   O     0.05257   0.58231   0.07734   0.00000  Uiso   1.00
O249   O     0.00855   0.55142   0.01051   0.00000  Uiso   1.00
O250   O     0.32033   0.44753   0.48489   0.00000  Uiso   1.00
O251   O     0.27930   0.41607   0.42253   0.00000  Uiso   1.00
O252   O     0.30302   0.50015   0.41768   0.00000  Uiso   1.00
O253   O     0.22774   0.46179   0.25000   0.00000  Uiso   1.00
O254   O     0.22774   0.53821   0.25000   0.00000  Uiso   1.00
O255   O     0.10559   0.46179   0.24999   0.00000  Uiso   1.00
O256   O     0.16666   0.53823   0.18392   0.00000  Uiso   1.00
O257   O     0.16667   0.46177   0.31607   0.00000  Uiso   1.00
O258   O     0.16667   0.53823   0.31607   0.00000  Uiso   1.00
O259   O     0.16666   0.46177   0.18392   0.00000  Uiso   1.00
O260   O     0.03187   0.50234   0.07830   0.00000  Uiso   1.00
S261   S     0.04586   0.54079   0.04890   0.00000  Uiso   1.00
S262   S     0.28692   0.45753   0.45081   0.00000  Uiso   1.00
Zn263  Zn    0.16667   0.55104   0.25000   0.00000  Uiso   1.00
Zn264  Zn    0.16667   0.44896   0.25000   0.00000  Uiso   1.00
C265   C     0.41999   0.49994   0.24991   0.00000  Uiso   1.00
C266   C     0.37585   0.49989   0.24989   0.00000  Uiso   1.00
C267   C     0.52704   0.35751   0.27673   0.00000  Uiso   1.00
C268   C     0.47296   0.64249   0.22327   0.00000  Uiso   1.00
C269   C     0.47296   0.35711   0.22327   0.00000  Uiso   1.00
C270   C     0.52704   0.64289   0.27673   0.00000  Uiso   1.00
C271   C     0.49992   0.49994   0.16352   0.00000  Uiso   1.00
C272   C     0.50008   0.50006   0.33647   0.00000  Uiso   1.00
C273   C     0.53594   0.48615   0.40659   0.00000  Uiso   1.00
C274   C     0.46400   0.51366   0.09339   0.00000  Uiso   1.00
C275   C     0.50028   0.50020   0.38407   0.00000  Uiso   1.00
C276   C     0.58001   0.50007   0.25015   0.00000  Uiso   1.00
C277   C     0.49971   0.49977   0.11591   0.00000  Uiso   1.00
C278   C     0.46476   0.51419   0.40651   0.00000  Uiso   1.00
C279   C     0.53519   0.48565   0.09348   0.00000  Uiso   1.00
C280   C     0.46425   0.51361   0.45293   0.00000  Uiso   1.00
C281   C     0.53565   0.48606   0.04705   0.00000  Uiso   1.00
C282   C     0.50029   0.49986   0.47660   0.00000  Uiso   1.00
C283   C     0.49961   0.49978   0.02338   0.00000  Uiso   1.00
C284   C     0.53689   0.48628   0.45337   0.00000  Uiso   1.00
C285   C     0.46298   0.51330   0.04661   0.00000  Uiso   1.00
C286   C     0.42806   0.52624   0.47566   0.00000  Uiso   1.00
C287   C     0.42677   0.52597   0.02241   0.00000  Uiso   1.00
C288   C     0.57176   0.47318   0.02432   0.00000  Uiso   1.00
C289   C     0.57301   0.47327   0.47754   0.00000  Uiso   1.00
C290   C     0.35458   0.46128   0.26432   0.00000  Uiso   1.00
C291   C     0.64542   0.53876   0.23592   0.00000  Uiso   1.00
C292   C     0.64518   0.46141   0.26457   0.00000  Uiso   1.00
C293   C     0.35481   0.53863   0.23568   0.00000  Uiso   1.00
C294   C     0.62415   0.50013   0.25030   0.00000  Uiso   1.00
H295   H     0.56257   0.47570   0.38697   0.00000  Uiso   1.00
H296   H     0.37129   0.56848   0.22407   0.00000  Uiso   1.00
H297   H     0.54866   0.37582   0.29811   0.00000  Uiso   1.00
H298   H     0.45134   0.62418   0.20189   0.00000  Uiso   1.00
H299   H     0.45134   0.37510   0.20189   0.00000  Uiso   1.00
H300   H     0.54866   0.62490   0.29811   0.00000  Uiso   1.00
H301   H     0.64881   0.55228   0.02769   0.00000  Uiso   1.00
H302   H     0.66199   0.48881   0.40305   0.00000  Uiso   1.00
H303   H     0.43740   0.52420   0.11301   0.00000  Uiso   1.00
H304   H     0.43744   0.52474   0.38765   0.00000  Uiso   1.00
H305   H     0.56251   0.47512   0.11233   0.00000  Uiso   1.00
H306   H     0.40068   0.53610   0.45669   0.00000  Uiso   1.00
H307   H     0.59910   0.46319   0.04330   0.00000  Uiso   1.00
H308   H     0.37089   0.43137   0.27578   0.00000  Uiso   1.00
H309   H     0.62912   0.56868   0.22446   0.00000  Uiso   1.00
H310   H     0.62870   0.43157   0.27617   0.00000  Uiso   1.00
N311   N     0.50000   0.61907   0.25000   0.00000  Uiso   1.00
N312   N     0.50000   0.38093   0.25000   0.00000  Uiso   1.00
O313   O     0.43892   0.53821   0.24999   0.00000  Uiso   1.00
O314   O     0.38590   0.58231   0.07734   0.00000  Uiso   1.00
O315   O     0.34188   0.55142   0.01051   0.00000  Uiso   1.00
O316   O     0.65366   0.44753   0.48489   0.00000  Uiso   1.00
O317   O     0.61264   0.41607   0.42253   0.00000  Uiso   1.00
O318   O     0.63635   0.50015   0.41768   0.00000  Uiso   1.00
O319   O     0.56108   0.46179   0.25000   0.00000  Uiso   1.00
O320   O     0.56108   0.53821   0.25000   0.00000  Uiso   1.00
O321   O     0.43892   0.46179   0.24999   0.00000  Uiso   1.00
O322   O     0.49999   0.53823   0.18392   0.00000  Uiso   1.00
O323   O     0.50001   0.46177   0.31607   0.00000  Uiso   1.00
O324   O     0.50001   0.53823   0.31607   0.00000  Uiso   1.00
O325   O     0.49999   0.46177   0.18392   0.00000  Uiso   1.00
O326   O     0.36520   0.50234   0.07830   0.00000  Uiso   1.00
S327   S     0.37919   0.54079   0.04890   0.00000  Uiso   1.00
S328   S     0.62025   0.45753   0.45081   0.00000  Uiso   1.00
Zn329  Zn    0.50000   0.55104   0.25000   0.00000  Uiso   1.00
Zn330  Zn    0.50000   0.44896   0.25000   0.00000  Uiso   1.00
C331   C     0.75332   0.49994   0.24991   0.00000  Uiso   1.00
C332   C     0.70918   0.49989   0.24989   0.00000  Uiso   1.00
C333   C     0.86037   0.35751   0.27673   0.00000  Uiso   1.00
C334   C     0.80629   0.64249   0.22327   0.00000  Uiso   1.00
C335   C     0.80629   0.35711   0.22327   0.00000  Uiso   1.00
C336   C     0.86037   0.64289   0.27673   0.00000  Uiso   1.00
C337   C     0.83325   0.49994   0.16352   0.00000  Uiso   1.00
C338   C     0.83342   0.50006   0.33647   0.00000  Uiso   1.00
C339   C     0.86927   0.48615   0.40659   0.00000  Uiso   1.00
C340   C     0.79733   0.51366   0.09339   0.00000  Uiso   1.00
C341   C     0.83361   0.50020   0.38407   0.00000  Uiso   1.00
C342   C     0.91335   0.50007   0.25015   0.00000  Uiso   1.00
C343   C     0.83304   0.49977   0.11591   0.00000  Uiso   1.00
C344   C     0.79810   0.51419   0.40651   0.00000  Uiso   1.00
C345   C     0.86852   0.48565   0.09348   0.00000  Uiso   1.00
C346   C     0.79759   0.51361   0.45293   0.00000  Uiso   1.00
C347   C     0.86898   0.48606   0.04705   0.00000  Uiso   1.00
C348   C     0.83362   0.49986   0.47660   0.00000  Uiso   1.00
C349   C     0.83294   0.49978   0.02338   0.00000  Uiso   1.00
C350   C     0.87022   0.48628   0.45337   0.00000  Uiso   1.00
C351   C     0.79632   0.51330   0.04661   0.00000  Uiso   1.00
C352   C     0.76140   0.52624   0.47566   0.00000  Uiso   1.00
C353   C     0.76010   0.52597   0.02241   0.00000  Uiso   1.00
C354   C     0.90509   0.47318   0.02432   0.00000  Uiso   1.00
C355   C     0.90634   0.47327   0.47754   0.00000  Uiso   1.00
C356   C     0.68792   0.46128   0.26432   0.00000  Uiso   1.00
C357   C     0.97875   0.53876   0.23592   0.00000  Uiso   1.00
C358   C     0.97852   0.46141   0.26457   0.00000  Uiso   1.00
C359   C     0.68815   0.53863   0.23568   0.00000  Uiso   1.00
C360   C     0.95749   0.50013   0.25030   0.00000  Uiso   1.00
H361   H     0.89590   0.47570   0.38697   0.00000  Uiso   1.00
H362   H     0.70463   0.56848   0.22407   0.00000  Uiso   1.00
H363   H     0.88200   0.37582   0.29811   0.00000  Uiso   1.00
H364   H     0.78467   0.62418   0.20189   0.00000  Uiso   1.00
H365   H     0.78467   0.37510   0.20189   0.00000  Uiso   1.00
H366   H     0.88200   0.62490   0.29811   0.00000  Uiso   1.00
H367   H     0.98214   0.55228   0.02769   0.00000  Uiso   1.00
H368   H     0.99533   0.48881   0.40305   0.00000  Uiso   1.00
H369   H     0.77073   0.52420   0.11301   0.00000  Uiso   1.00
H370   H     0.77078   0.52474   0.38765   0.00000  Uiso   1.00
H371   H     0.89584   0.47512   0.11233   0.00000  Uiso   1.00
H372   H     0.73402   0.53610   0.45669   0.00000  Uiso   1.00
H373   H     0.93243   0.46319   0.04330   0.00000  Uiso   1.00
H374   H     0.70422   0.43137   0.27578   0.00000  Uiso   1.00
H375   H     0.96245   0.56868   0.22446   0.00000  Uiso   1.00
H376   H     0.96203   0.43157   0.27617   0.00000  Uiso   1.00
N377   N     0.83333   0.61907   0.25000   0.00000  Uiso   1.00
N378   N     0.83333   0.38093   0.25000   0.00000  Uiso   1.00
O379   O     0.77226   0.53821   0.24999   0.00000  Uiso   1.00
O380   O     0.71924   0.58231   0.07734   0.00000  Uiso   1.00
O381   O     0.67521   0.55142   0.01051   0.00000  Uiso   1.00
O382   O     0.98699   0.44753   0.48489   0.00000  Uiso   1.00
O383   O     0.94597   0.41607   0.42253   0.00000  Uiso   1.00
O384   O     0.96969   0.50015   0.41768   0.00000  Uiso   1.00
O385   O     0.89441   0.46179   0.25000   0.00000  Uiso   1.00
O386   O     0.89441   0.53821   0.25000   0.00000  Uiso   1.00
O387   O     0.77226   0.46179   0.24999   0.00000  Uiso   1.00
O388   O     0.83333   0.53823   0.18392   0.00000  Uiso   1.00
O389   O     0.83334   0.46177   0.31607   0.00000  Uiso   1.00
O390   O     0.83334   0.53823   0.31607   0.00000  Uiso   1.00
O391   O     0.83333   0.46177   0.18392   0.00000  Uiso   1.00
O392   O     0.69854   0.50234   0.07830   0.00000  Uiso   1.00
S393   S     0.71252   0.54079   0.04890   0.00000  Uiso   1.00
S394   S     0.95358   0.45753   0.45081   0.00000  Uiso   1.00
Zn395  Zn    0.83333   0.55104   0.25000   0.00000  Uiso   1.00
Zn396  Zn    0.83333   0.44896   0.25000   0.00000  Uiso   1.00
C397   C     0.08665   0.83327   0.24991   0.00000  Uiso   1.00
C398   C     0.04251   0.83323   0.24989   0.00000  Uiso   1.00
C399   C     0.19371   0.69084   0.27673   0.00000  Uiso   1.00
C400   C     0.13963   0.97583   0.22327   0.00000  Uiso   1.00
C401   C     0.13963   0.69044   0.22327   0.00000  Uiso   1.00
C402   C     0.19371   0.97622   0.27673   0.00000  Uiso   1.00
C403   C     0.16659   0.83327   0.16352   0.00000  Uiso   1.00
C404   C     0.16675   0.83339   0.33647   0.00000  Uiso   1.00
C405   C     0.20261   0.81949   0.40659   0.00000  Uiso   1.00
C406   C     0.13067   0.84699   0.09339   0.00000  Uiso   1.00
C407   C     0.16695   0.83353   0.38407   0.00000  Uiso   1.00
C408   C     0.24668   0.83340   0.25015   0.00000  Uiso   1.00
C409   C     0.16638   0.83310   0.11591   0.00000  Uiso   1.00
C410   C     0.13143   0.84753   0.40651   0.00000  Uiso   1.00
C411   C     0.20185   0.81898   0.09348   0.00000  Uiso   1.00
C412   C     0.13092   0.84694   0.45293   0.00000  Uiso   1.00
C413   C     0.20232   0.81940   0.04705   0.00000  Uiso   1.00
C414   C     0.16695   0.83320   0.47660   0.00000  Uiso   1.00
C415   C     0.16628   0.83311   0.02338   0.00000  Uiso   1.00
C416   C     0.20356   0.81961   0.45337   0.00000  Uiso   1.00
C417   C     0.12965   0.84663   0.04661   0.00000  Uiso   1.00
C418   C     0.09473   0.85957   0.47566   0.00000  Uiso   1.00
C419   C     0.09344   0.85931   0.02241   0.00000  Uiso   1.00
C420   C     0.23843   0.80651   0.02432   0.00000  Uiso   1.00
C421   C     0.23967   0.80661   0.47754   0.00000  Uiso   1.00
C422   C     0.02125   0.79461   0.26432   0.00000  Uiso   1.00
C423   C     0.31208   0.87210   0.23592   0.00000  Uiso   1.00
C424   C     0.31185   0.79475   0.26457   0.00000  Uiso   1.00
C425   C     0.02148   0.87197   0.23568   0.00000  Uiso   1.00
C426   C     0.29082   0.83347   0.25030   0.00000  Uiso   1.00
H427   H     0.22924   0.80903   0.38697   0.00000  Uiso   1.00
H428   H     0.03796   0.90182   0.22407   0.00000  Uiso   1.00
H429   H     0.21533   0.70915   0.29811   0.00000  Uiso   1.00
H430   H     0.11800   0.95752   0.20189   0.00000  Uiso   1.00
H431   H     0.11800   0.70844   0.20189   0.00000  Uiso   1.00
H432   H     0.21533   0.95823   0.29811   0.00000  Uiso   1.00
H433   H     0.31548   0.88561   0.02769   0.00000  Uiso   1.00
H434   H     0.32866   0.82214   0.40305   0.00000  Uiso   1.00
H435   H     0.10406   0.85753   0.11301   0.00000  Uiso   1.00
H436   H     0.10411   0.85808   0.38765   0.00000  Uiso   1.00
H437   H     0.22918   0.80845   0.11233   0.00000  Uiso   1.00
H438   H     0.06735   0.86943   0.45669   0.00000  Uiso   1.00
H439   H     0.26577   0.79652   0.04330   0.00000  Uiso   1.00
H440   H     0.03755   0.76470   0.27578   0.00000  Uiso   1.00
H441   H     0.29579   0.90201   0.22446   0.00000  Uiso   1.00
H442   H     0.29537   0.76490   0.27617   0.00000  Uiso   1.00
N443   N     0.16667   0.95240   0.25000   0.00000  Uiso   1.00
N444   N     0.16667   0.71427   0.25000   0.00000  Uiso   1.00
O445   O     0.10559   0.87154   0.24999   0.00000  Uiso   1.00
O446   O     0.05257   0.91564   0.07734   0.00000  Uiso   1.00
O447   O     0.00855   0.88475   0.01051   0.00000  Uiso   1.00
O448   O     0.32033   0.78087   0.48489   0.00000  Uiso   1.00
O449   O     0.27930   0.74940   0.42253   0.00000  Uiso   1.00
O450   O     0.30302   0.83349   0.41768   0.00000  Uiso   1.00
O451   O     0.22774   0.79513   0.25000   0.00000  Uiso   1.00
O452   O     0.22774   0.87154   0.25000   0.00000  Uiso   1.00
O453   O     0.10559   0.79513   0.24999   0.00000  Uiso   1.00
O454   O     0.16666   0.87156   0.18392   0.00000  Uiso   1.00
O455   O     0.16667   0.79511   0.31607   0.00000  Uiso   1.00
O456   O     0.16667   0.87156   0.31607   0.00000  Uiso   1.00
O457   O     0.16666   0.79511   0.18392   0.00000  Uiso   1.00
O458   O     0.03187   0.83567   0.07830   0.00000  Uiso   1.00
S459   S     0.04586   0.87412   0.04890   0.00000  Uiso   1.00
S460   S     0.28692   0.79086   0.45081   0.00000  Uiso   1.00
Zn461  Zn    0.16667   0.88437   0.25000   0.00000  Uiso   1.00
Zn462  Zn    0.16667   0.78229   0.25000   0.00000  Uiso   1.00
C463   C     0.41999   0.83327   0.24991   0.00000  Uiso   1.00
C464   C     0.37585   0.83323   0.24989   0.00000  Uiso   1.00
C465   C     0.52704   0.69084   0.27673   0.00000  Uiso   1.00
C466   C     0.47296   0.97583   0.22327   0.00000  Uiso   1.00
C467   C     0.47296   0.69044   0.22327   0.00000  Uiso   1.00
C468   C     0.52704   0.97622   0.27673   0.00000  Uiso   1.00
C469   C     0.49992   0.83327   0.16352   0.00000  Uiso   1.00
C470   C     0.50008   0.83339   0.33647   0.00000  Uiso   1.00
C471   C     0.53594   0.81949   0.40659   0.00000  Uiso   1.00
C472   C     0.46400   0.84699   0.09339   0.00000  Uiso   1.00
C473   C     0.50028   0.83353   0.38407   0.00000  Uiso   1.00
C474   C     0.58001   0.83340   0.25015   0.00000  Uiso   1.00
C475   C     0.49971   0.83310   0.11591   0.00000  Uiso   1.00
C476   C     0.46476   0.84753   0.40651   0.00000  Uiso   1.00
C477   C     0.53519   0.81898   0.09348   0.00000  Uiso   1.00
C478   C     0.46425   0.84694   0.45293   0.00000  Uiso   1.00
C479   C     0.53565   0.81940   0.04705   0.00000  Uiso   1.00
C480   C     0.50029   0.83320   0.47660   0.00000  Uiso   1.00
C481   C     0.49961   0.83311   0.02338   0.00000  Uiso   1.00
C482   C     0.53689   0.81961   0.45337   0.00000  Uiso   1.00
C483   C     0.46298   0.84663   0.04661   0.00000  Uiso   1.00
C484   C     0.42806   0.85957   0.47566   0.00000  Uiso   1.00
C485   C     0.42677   0.85931   0.02241   0.00000  Uiso   1.00
C486   C     0.57176   0.80651   0.02432   0.00000  Uiso   1.00
C487   C     0.57301   0.80661   0.47754   0.00000  Uiso   1.00
C488   C     0.35458   0.79461   0.26432   0.00000  Uiso   1.00
C489   C     0.64542   0.87210   0.23592   0.00000  Uiso   1.00
C490   C     0.64518   0.79475   0.26457   0.00000  Uiso   1.00
C491   C     0.35481   0.87197   0.23568   0.00000  Uiso   1.00
C492   C     0.62415   0.83347   0.25030   0.00000  Uiso   1.00
H493   H     0.56257   0.80903   0.38697   0.00000  Uiso   1.00
H494   H     0.37129   0.90182   0.22407   0.00000  Uiso   1.00
H495   H     0.54866   0.70915   0.29811   0.00000  Uiso   1.00
H496   H     0.45134   0.95752   0.20189   0.00000  Uiso   1.00
H497   H     0.45134   0.70844   0.20189   0.00000  Uiso   1.00
H498   H     0.54866   0.95823   0.29811   0.00000  Uiso   1.00
H499   H     0.64881   0.88561   0.02769   0.00000  Uiso   1.00
H500   H     0.66199   0.82214   0.40305   0.00000  Uiso   1.00
H501   H     0.43740   0.85753   0.11301   0.00000  Uiso   1.00
H502   H     0.43744   0.85808   0.38765   0.00000  Uiso   1.00
H503   H     0.56251   0.80845   0.11233   0.00000  Uiso   1.00
H504   H     0.40068   0.86943   0.45669   0.00000  Uiso   1.00
H505   H     0.59910   0.79652   0.04330   0.00000  Uiso   1.00
H506   H     0.37089   0.76470   0.27578   0.00000  Uiso   1.00
H507   H     0.62912   0.90201   0.22446   0.00000  Uiso   1.00
H508   H     0.62870   0.76490   0.27617   0.00000  Uiso   1.00
N509   N     0.50000   0.95240   0.25000   0.00000  Uiso   1.00
N510   N     0.50000   0.71427   0.25000   0.00000  Uiso   1.00
O511   O     0.43892   0.87154   0.24999   0.00000  Uiso   1.00
O512   O     0.38590   0.91564   0.07734   0.00000  Uiso   1.00
O513   O     0.34188   0.88475   0.01051   0.00000  Uiso   1.00
O514   O     0.65366   0.78087   0.48489   0.00000  Uiso   1.00
O515   O     0.61264   0.74940   0.42253   0.00000  Uiso   1.00
O516   O     0.63635   0.83349   0.41768   0.00000  Uiso   1.00
O517   O     0.56108   0.79513   0.25000   0.00000  Uiso   1.00
O518   O     0.56108   0.87154   0.25000   0.00000  Uiso   1.00
O519   O     0.43892   0.79513   0.24999   0.00000  Uiso   1.00
O520   O     0.49999   0.87156   0.18392   0.00000  Uiso   1.00
O521   O     0.50001   0.79511   0.31607   0.00000  Uiso   1.00
O522   O     0.50001   0.87156   0.31607   0.00000  Uiso   1.00
O523   O     0.49999   0.79511   0.18392   0.00000  Uiso   1.00
O524   O     0.36520   0.83567   0.07830   0.00000  Uiso   1.00
S525   S     0.37919   0.87412   0.04890   0.00000  Uiso   1.00
S526   S     0.62025   0.79086   0.45081   0.00000  Uiso   1.00
Zn527  Zn    0.50000   0.88437   0.25000   0.00000  Uiso   1.00
Zn528  Zn    0.50000   0.78229   0.25000   0.00000  Uiso   1.00
C529   C     0.75332   0.83327   0.24991   0.00000  Uiso   1.00
C530   C     0.70918   0.83323   0.24989   0.00000  Uiso   1.00
C531   C     0.86037   0.69084   0.27673   0.00000  Uiso   1.00
C532   C     0.80629   0.97583   0.22327   0.00000  Uiso   1.00
C533   C     0.80629   0.69044   0.22327   0.00000  Uiso   1.00
C534   C     0.86037   0.97622   0.27673   0.00000  Uiso   1.00
C535   C     0.83325   0.83327   0.16352   0.00000  Uiso   1.00
C536   C     0.83342   0.83339   0.33647   0.00000  Uiso   1.00
C537   C     0.86927   0.81949   0.40659   0.00000  Uiso   1.00
C538   C     0.79733   0.84699   0.09339   0.00000  Uiso   1.00
C539   C     0.83361   0.83353   0.38407   0.00000  Uiso   1.00
C540   C     0.91335   0.83340   0.25015   0.00000  Uiso   1.00
C541   C     0.83304   0.83310   0.11591   0.00000  Uiso   1.00
C542   C     0.79810   0.84753   0.40651   0.00000  Uiso   1.00
C543   C     0.86852   0.81898   0.09348   0.00000  Uiso   1.00
C544   C     0.79759   0.84694   0.45293   0.00000  Uiso   1.00
C545   C     0.86898   0.81940   0.04705   0.00000  Uiso   1.00
C546   C     0.83362   0.83320   0.47660   0.00000  Uiso   1.00
C547   C     0.83294   0.83311   0.02338   0.00000  Uiso   1.00
C548   C     0.87022   0.81961   0.45337   0.00000  Uiso   1.00
C549   C     0.79632   0.84663   0.04661   0.00000  Uiso   1.00
C550   C     0.76140   0.85957   0.47566   0.00000  Uiso   1.00
C551   C     0.76010   0.85931   0.02241   0.00000  Uiso   1.00
C552   C     0.90509   0.80651   0.02432   0.00000  Uiso   1.00
C553   C     0.90634   0.80661   0.47754   0.00000  Uiso   1.00
C554   C     0.68792   0.79461   0.26432   0.00000  Uiso   1.00
C555   C     0.97875   0.87210   0.23592   0.00000  Uiso   1.00
C556   C     0.97852   0.79475   0.26457   0.00000  Uiso   1.00
C557   C     0.68815   0.87197   0.23568   0.00000  Uiso   1.00
C558   C     0.95749   0.83347   0.25030   0.00000  Uiso   1.00
H559   H     0.89590   0.80903   0.38697   0.00000  Uiso   1.00
H560   H     0.70463   0.90182   0.22407   0.00000  Uiso   1.00
H561   H     0.88200   0.70915   0.29811   0.00000  Uiso   1.00
H562   H     0.78467   0.95752   0.20189   0.00000  Uiso   1.00
H563   H     0.78467   0.70844   0.20189   0.00000  Uiso   1.00
H564   H     0.88200   0.95823   0.29811   0.00000  Uiso   1.00
H565   H     0.98214   0.88561   0.02769   0.00000  Uiso   1.00
H566   H     0.99533   0.82214   0.40305   0.00000  Uiso   1.00
H567   H     0.77073   0.85753   0.11301   0.00000  Uiso   1.00
H568   H     0.77078   0.85808   0.38765   0.00000  Uiso   1.00
H569   H     0.89584   0.80845   0.11233   0.00000  Uiso   1.00
H570   H     0.73402   0.86943   0.45669   0.00000  Uiso   1.00
H571   H     0.93243   0.79652   0.04330   0.00000  Uiso   1.00
H572   H     0.70422   0.76470   0.27578   0.00000  Uiso   1.00
H573   H     0.96245   0.90201   0.22446   0.00000  Uiso   1.00
H574   H     0.96203   0.76490   0.27617   0.00000  Uiso   1.00
N575   N     0.83333   0.95240   0.25000   0.00000  Uiso   1.00
N576   N     0.83333   0.71427   0.25000   0.00000  Uiso   1.00
O577   O     0.77226   0.87154   0.24999   0.00000  Uiso   1.00
O578   O     0.71924   0.91564   0.07734   0.00000  Uiso   1.00
O579   O     0.67521   0.88475   0.01051   0.00000  Uiso   1.00
O580   O     0.98699   0.78087   0.48489   0.00000  Uiso   1.00
O581   O     0.94597   0.74940   0.42253   0.00000  Uiso   1.00
O582   O     0.96969   0.83349   0.41768   0.00000  Uiso   1.00
O583   O     0.89441   0.79513   0.25000   0.00000  Uiso   1.00
O584   O     0.89441   0.87154   0.25000   0.00000  Uiso   1.00
O585   O     0.77226   0.79513   0.24999   0.00000  Uiso   1.00
O586   O     0.83333   0.87156   0.18392   0.00000  Uiso   1.00
O587   O     0.83334   0.79511   0.31607   0.00000  Uiso   1.00
O588   O     0.83334   0.87156   0.31607   0.00000  Uiso   1.00
O589   O     0.83333   0.79511   0.18392   0.00000  Uiso   1.00
O590   O     0.69854   0.83567   0.07830   0.00000  Uiso   1.00
S591   S     0.71252   0.87412   0.04890   0.00000  Uiso   1.00
S592   S     0.95358   0.79086   0.45081   0.00000  Uiso   1.00
Zn593  Zn    0.83333   0.88437   0.25000   0.00000  Uiso   1.00
Zn594  Zn    0.83333   0.78229   0.25000   0.00000  Uiso   1.00
C595   C     0.08665   0.16660   0.74991   0.00000  Uiso   1.00
C596   C     0.04251   0.16656   0.74989   0.00000  Uiso   1.00
C597   C     0.19371   0.02417   0.77673   0.00000  Uiso   1.00
C598   C     0.13963   0.30916   0.72327   0.00000  Uiso   1.00
C599   C     0.13963   0.02378   0.72327   0.00000  Uiso   1.00
C600   C     0.19371   0.30956   0.77673   0.00000  Uiso   1.00
C601   C     0.16659   0.16661   0.66352   0.00000  Uiso   1.00
C602   C     0.16675   0.16672   0.83647   0.00000  Uiso   1.00
C603   C     0.20261   0.15282   0.90659   0.00000  Uiso   1.00
C604   C     0.13067   0.18033   0.59339   0.00000  Uiso   1.00
C605   C     0.16695   0.16686   0.88407   0.00000  Uiso   1.00
C606   C     0.24668   0.16673   0.75015   0.00000  Uiso   1.00
C607   C     0.16638   0.16643   0.61591   0.00000  Uiso   1.00
C608   C     0.13143   0.18086   0.90651   0.00000  Uiso   1.00
C609   C     0.20185   0.15232   0.59348   0.00000  Uiso   1.00
C610   C     0.13092   0.18027   0.95293   0.00000  Uiso   1.00
C611   C     0.20232   0.15273   0.54705   0.00000  Uiso   1.00
C612   C     0.16695   0.16653   0.97660   0.00000  Uiso   1.00
C613   C     0.16628   0.16644   0.52338   0.00000  Uiso   1.00
C614   C     0.20356   0.15295   0.95337   0.00000  Uiso   1.00
C615   C     0.12965   0.17997   0.54661   0.00000  Uiso   1.00
C616   C     0.09473   0.19291   0.97566   0.00000  Uiso   1.00
C617   C     0.09344   0.19264   0.52241   0.00000  Uiso   1.00
C618   C     0.23843   0.13985   0.52432   0.00000  Uiso   1.00
C619   C     0.23967   0.13994   0.97754   0.00000  Uiso   1.00
C620   C     0.02125   0.12795   0.76432   0.00000  Uiso   1.00
C621   C     0.31208   0.20543   0.73592   0.00000  Uiso   1.00
C622   C     0.31185   0.12808   0.76457   0.00000  Uiso   1.00
C623   C     0.02148   0.20530   0.73568   0.00000  Uiso   1.00
C624   C     0.29082   0.16680   0.75030   0.00000  Uiso   1.00
H625   H     0.22924   0.14236   0.88697   0.00000  Uiso   1.00
H626   H     0.03796   0.23515   0.72407   0.00000  Uiso   1.00
H627   H     0.21533   0.04248   0.79811   0.00000  Uiso   1.00
H628   H     0.11800   0.29085   0.70189   0.00000  Uiso   1.00
H629   H     0.11800   0.04177   0.70189   0.00000  Uiso   1.00
H630   H     0.21533   0.29156   0.79811   0.00000  Uiso   1.00
H631   H     0.31548   0.21894   0.52769   0.00000  Uiso   1.00
H632   H     0.32866   0.15547   0.90305   0.00000  Uiso   1.00
H633   H     0.10406   0.19086   0.61301   0.00000  Uiso   1.00
H634   H     0.10411   0.19141   0.88765   0.00000  Uiso   1.00
H635   H     0.22918   0.14178   0.61233   0.00000  Uiso   1.00
H636   H     0.06735   0.20276   0.95669   0.00000  Uiso   1.00
H637   H     0.26577   0.12985   0.54330   0.00000  Uiso   1.00
H638   H     0.03755   0.09804   0.77578   0.00000  Uiso   1.00
H639   H     0.29579   0.23534   0.72446   0.00000  Uiso   1.00
H640   H     0.29537   0.09823   0.77617   0.00000  Uiso   1.00
N641   N     0.16667   0.28573   0.75000   0.00000  Uiso   1.00
N642   N     0.16667   0.04760   0.75000   0.00000  Uiso   1.00
O643   O     0.10559   0.20487   0.74999   0.00000  Uiso   1.00
O644   O     0.05257   0.24898   0.57734   0.00000  Uiso   1.00
O645   O     0.00855   0.21809   0.51051   0.00000  Uiso   1.00
O646   O     0.32033   0.11420   0.98489   0.00000  Uiso   1.00
O647   O     0.27930   0.08274   0.92253   0.00000  Uiso   1.00
O648   O     0.30302   0.16682   0.91768   0.00000  Uiso   1.00
O649   O     0.22774   0.12846   0.75000   0.00000  Uiso   1.00
O650   O     0.22774   0.20487   0.75000   0.00000  Uiso   1.00
O651   O     0.10559   0.12846   0.74999   0.00000  Uiso   1.00
O652   O     0.16666   0.20489   0.68392   0.00000  Uiso   1.00
O653   O     0.16667   0.12844   0.81607   0.00000  Uiso   1.00
O654   O     0.16667   0.20489   0.81607   0.00000  Uiso   1.00
O655   O     0.16666   0.12844   0.68392   0.00000  Uiso   1.00
O656   O     0.03187   0.16900   0.57830   0.00000  Uiso   1.00
S657   S     0.04586   0.20746   0.54890   0.00000  Uiso   1.00
S658   S     0.28692   0.12419   0.95081   0.00000  Uiso   1.00
Zn659  Zn    0.16667   0.21771   0.75000   0.00000  Uiso   1.00
Zn660  Zn    0.16667   0.11563   0.75000   0.00000  Uiso   1.00
C661   C     0.41999   0.16660   0.74991   0.00000  Uiso   1.00
C662   C     0.37585   0.16656   0.74989   0.00000  Uiso   1.00
C663   C     0.52704   0.02417   0.77673   0.00000  Uiso   1.00
C664   C     0.47296   0.30916   0.72327   0.00000  Uiso   1.00
C665   C     0.47296   0.02378   0.72327   0.00000  Uiso   1.00
C666   C     0.52704   0.30956   0.77673   0.00000  Uiso   1.00
C667   C     0.49992   0.16661   0.66352   0.00000  Uiso   1.00
C668   C     0.50008   0.16672   0.83647   0.00000  Uiso   1.00
C669   C     0.53594   0.15282   0.90659   0.00000  Uiso   1.00
C670   C     0.46400   0.18033   0.59339   0.00000  Uiso   1.00
C671   C     0.50028   0.16686   0.88407   0.00000  Uiso   1.00
C672   C     0.58001   0.16673   0.75015   0.00000  Uiso   1.00
C673   C     0.49971   0.16643   0.61591   0.00000  Uiso   1.00
C674   C     0.46476   0.18086   0.90651   0.00000  Uiso   1.00
C675   C     0.53519   0.15232   0.59348   0.00000  Uiso   1.00
C676   C     0.46425   0.18027   0.95293   0.00000  Uiso   1.00
C677   C     0.53565   0.15273   0.54705   0.00000  Uiso   1.00
C678   C     0.50029   0.16653   0.97660   0.00000  Uiso   1.00
C679   C     0.49961   0.16644   0.52338   0.00000  Uiso   1.00
C680   C     0.53689   0.15295   0.95337   0.00000  Uiso   1.00
C681   C     0.46298   0.17997   0.54661   0.00000  Uiso   1.00
C682   C     0.42806   0.19291   0.97566   0.00000  Uiso   1.00
C683   C     0.42677   0.19264   0.52241   0.00000  Uiso   1.00
C684   C     0.57176   0.13985   0.52432   0.00000  Uiso   1.00
C685   C     0.57301   0.13994   0.97754   0.00000  Uiso   1.00
C686   C     0.35458   0.12795   0.76432   0.00000  Uiso   1.00
C687   C     0.64542   0.20543   0.73592   0.00000  Uiso   1.00
C688   C     0.64518   0.12808   0.76457   0.00000  Uiso   1.00
C689   C     0.35481   0.20530   0.73568   0.00000  Uiso   1.00
C690   C     0.62415   0.16680   0.75030   0.00000  Uiso   1.00
H691   H     0.56257   0.14236   0.88697   0.00000  Uiso   1.00
H692   H     0.37129   0.23515   0.72407   0.00000  Uiso   1.00
H693   H     0.54866   0.04248   0.79811   0.00000  Uiso   1.00
H694   H     0.45134   0.29085   0.70189   0.00000  Uiso   1.00
H695   H     0.45134   0.04177   0.70189   0.00000  Uiso   1.00
H696   H     0.54866   0.29156   0.79811   0.00000  Uiso   1.00
H697   H     0.64881   0.21894   0.52769   0.00000  Uiso   1.00
H698   H     0.66199   0.15547   0.90305   0.00000  Uiso   1.00
H699   H     0.43740   0.19086   0.61301   0.00000  Uiso   1.00
H700   H     0.43744   0.19141   0.88765   0.00000  Uiso   1.00
H701   H     0.56251   0.14178   0.61233   0.00000  Uiso   1.00
H702   H     0.40068   0.20276   0.95669   0.00000  Uiso   1.00
H703   H     0.59910   0.12985   0.54330   0.00000  Uiso   1.00
H704   H     0.37089   0.09804   0.77578   0.00000  Uiso   1.00
H705   H     0.62912   0.23534   0.72446   0.00000  Uiso   1.00
H706   H     0.62870   0.09823   0.77617   0.00000  Uiso   1.00
N707   N     0.50000   0.28573   0.75000   0.00000  Uiso   1.00
N708   N     0.50000   0.04760   0.75000   0.00000  Uiso   1.00
O709   O     0.43892   0.20487   0.74999   0.00000  Uiso   1.00
O710   O     0.38590   0.24898   0.57734   0.00000  Uiso   1.00
O711   O     0.34188   0.21809   0.51051   0.00000  Uiso   1.00
O712   O     0.65366   0.11420   0.98489   0.00000  Uiso   1.00
O713   O     0.61264   0.08274   0.92253   0.00000  Uiso   1.00
O714   O     0.63635   0.16682   0.91768   0.00000  Uiso   1.00
O715   O     0.56108   0.12846   0.75000   0.00000  Uiso   1.00
O716   O     0.56108   0.20487   0.75000   0.00000  Uiso   1.00
O717   O     0.43892   0.12846   0.74999   0.00000  Uiso   1.00
O718   O     0.49999   0.20489   0.68392   0.00000  Uiso   1.00
O719   O     0.50001   0.12844   0.81607   0.00000  Uiso   1.00
O720   O     0.50001   0.20489   0.81607   0.00000  Uiso   1.00
O721   O     0.49999   0.12844   0.68392   0.00000  Uiso   1.00
O722   O     0.36520   0.16900   0.57830   0.00000  Uiso   1.00
S723   S     0.37919   0.20746   0.54890   0.00000  Uiso   1.00
S724   S     0.62025   0.12419   0.95081   0.00000  Uiso   1.00
Zn725  Zn    0.50000   0.21771   0.75000   0.00000  Uiso   1.00
Zn726  Zn    0.50000   0.11563   0.75000   0.00000  Uiso   1.00
C727   C     0.75332   0.16660   0.74991   0.00000  Uiso   1.00
C728   C     0.70918   0.16656   0.74989   0.00000  Uiso   1.00
C729   C     0.86037   0.02417   0.77673   0.00000  Uiso   1.00
C730   C     0.80629   0.30916   0.72327   0.00000  Uiso   1.00
C731   C     0.80629   0.02378   0.72327   0.00000  Uiso   1.00
C732   C     0.86037   0.30956   0.77673   0.00000  Uiso   1.00
C733   C     0.83325   0.16661   0.66352   0.00000  Uiso   1.00
C734   C     0.83342   0.16672   0.83647   0.00000  Uiso   1.00
C735   C     0.86927   0.15282   0.90659   0.00000  Uiso   1.00
C736   C     0.79733   0.18033   0.59339   0.00000  Uiso   1.00
C737   C     0.83361   0.16686   0.88407   0.00000  Uiso   1.00
C738   C     0.91335   0.16673   0.75015   0.00000  Uiso   1.00
C739   C     0.83304   0.16643   0.61591   0.00000  Uiso   1.00
C740   C     0.79810   0.18086   0.90651   0.00000  Uiso   1.00
C741   C     0.86852   0.15232   0.59348   0.00000  Uiso   1.00
C742   C     0.79759   0.18027   0.95293   0.00000  Uiso   1.00
C743   C     0.86898   0.15273   0.54705   0.00000  Uiso   1.00
C744   C     0.83362   0.16653   0.97660   0.00000  Uiso   1.00
C745   C     0.83294   0.16644   0.52338   0.00000  Uiso   1.00
C746   C     0.87022   0.15295   0.95337   0.00000  Uiso   1.00
C747   C     0.79632   0.17997   0.54661   0.00000  Uiso   1.00
C748   C     0.76140   0.19291   0.97566   0.00000  Uiso   1.00
C749   C     0.76010   0.19264   0.52241   0.00000  Uiso   1.00
C750   C     0.90509   0.13985   0.52432   0.00000  Uiso   1.00
C751   C     0.90634   0.13994   0.97754   0.00000  Uiso   1.00
C752   C     0.68792   0.12795   0.76432   0.00000  Uiso   1.00
C753   C     0.97875   0.20543   0.73592   0.00000  Uiso   1.00
C754   C     0.97852   0.12808   0.76457   0.00000  Uiso   1.00
C755   C     0.68815   0.20530   0.73568   0.00000  Uiso   1.00
C756   C     0.95749   0.16680   0.75030   0.00000  Uiso   1.00
H757   H     0.89590   0.14236   0.88697   0.00000  Uiso   1.00
H758   H     0.70463   0.23515   0.72407   0.00000  Uiso   1.00
H759   H     0.88200   0.04248   0.79811   0.00000  Uiso   1.00
H760   H     0.78467   0.29085   0.70189   0.00000  Uiso   1.00
H761   H     0.78467   0.04177   0.70189   0.00000  Uiso   1.00
H762   H     0.88200   0.29156   0.79811   0.00000  Uiso   1.00
H763   H     0.98214   0.21894   0.52769   0.00000  Uiso   1.00
H764   H     0.99533   0.15547   0.90305   0.00000  Uiso   1.00
H765   H     0.77073   0.19086   0.61301   0.00000  Uiso   1.00
H766   H     0.77078   0.19141   0.88765   0.00000  Uiso   1.00
H767   H     0.89584   0.14178   0.61233   0.00000  Uiso   1.00
H768   H     0.73402   0.20276   0.95669   0.00000  Uiso   1.00
H769   H     0.93243   0.12985   0.54330   0.00000  Uiso   1.00
H770   H     0.70422   0.09804   0.77578   0.00000  Uiso   1.00
H771   H     0.96245   0.23534   0.72446   0.00000  Uiso   1.00
H772   H     0.96203   0.09823   0.77617   0.00000  Uiso   1.00
N773   N     0.83333   0.28573   0.75000   0.00000  Uiso   1.00
N774   N     0.83333   0.04760   0.75000   0.00000  Uiso   1.00
O775   O     0.77226   0.20487   0.74999   0.00000  Uiso   1.00
O776   O     0.71924   0.24898   0.57734   0.00000  Uiso   1.00
O777   O     0.67521   0.21809   0.51051   0.00000  Uiso   1.00
O778   O     0.98699   0.11420   0.98489   0.00000  Uiso   1.00
O779   O     0.94597   0.08274   0.92253   0.00000  Uiso   1.00
O780   O     0.96969   0.16682   0.91768   0.00000  Uiso   1.00
O781   O     0.89441   0.12846   0.75000   0.00000  Uiso   1.00
O782   O     0.89441   0.20487   0.75000   0.00000  Uiso   1.00
O783   O     0.77226   0.12846   0.74999   0.00000  Uiso   1.00
O784   O     0.83333   0.20489   0.68392   0.00000  Uiso   1.00
O785   O     0.83334   0.12844   0.81607   0.00000  Uiso   1.00
O786   O     0.83334   0.20489   0.81607   0.00000  Uiso   1.00
O787   O     0.83333   0.12844   0.68392   0.00000  Uiso   1.00
O788   O     0.69854   0.16900   0.57830   0.00000  Uiso   1.00
S789   S     0.71252   0.20746   0.54890   0.00000  Uiso   1.00
S790   S     0.95358   0.12419   0.95081   0.00000  Uiso   1.00
Zn791  Zn    0.83333   0.21771   0.75000   0.00000  Uiso   1.00
Zn792  Zn    0.83333   0.11563   0.75000   0.00000  Uiso   1.00
C793   C     0.08665   0.49994   0.74991   0.00000  Uiso   1.00
C794   C     0.04251   0.49989   0.74989   0.00000  Uiso   1.00
C795   C     0.19371   0.35751   0.77673   0.00000  Uiso   1.00
C796   C     0.13963   0.64249   0.72327   0.00000  Uiso   1.00
C797   C     0.13963   0.35711   0.72327   0.00000  Uiso   1.00
C798   C     0.19371   0.64289   0.77673   0.00000  Uiso   1.00
C799   C     0.16659   0.49994   0.66352   0.00000  Uiso   1.00
C800   C     0.16675   0.50006   0.83647   0.00000  Uiso   1.00
C801   C     0.20261   0.48615   0.90659   0.00000  Uiso   1.00
C802   C     0.13067   0.51366   0.59339   0.00000  Uiso   1.00
C803   C     0.16695   0.50020   0.88407   0.00000  Uiso   1.00
C804   C     0.24668   0.50007   0.75015   0.00000  Uiso   1.00
C805   C     0.16638   0.49977   0.61591   0.00000  Uiso   1.00
C806   C     0.13143   0.51419   0.90651   0.00000  Uiso   1.00
C807   C     0.20185   0.48565   0.59348   0.00000  Uiso   1.00
C808   C     0.13092   0.51361   0.95293   0.00000  Uiso   1.00
C809   C     0.20232   0.48606   0.54705   0.00000  Uiso   1.00
C810   C     0.16695   0.49986   0.97660   0.00000  Uiso   1.00
C811   C     0.16628   0.49978   0.52338   0.00000  Uiso   1.00
C812   C     0.20356   0.48628   0.95337   0.00000  Uiso   1.00
C813   C     0.12965   0.51330   0.54661   0.00000  Uiso   1.00
C814   C     0.09473   0.52624   0.97566   0.00000  Uiso   1.00
C815   C     0.09344   0.52597   0.52241   0.00000  Uiso   1.00
C816   C     0.23843   0.47318   0.52432   0.00000  Uiso   1.00
C817   C     0.23967   0.47327   0.97754   0.00000  Uiso   1.00
C818   C     0.02125   0.46128   0.76432   0.00000  Uiso   1.00
C819   C     0.31208   0.53876   0.73592   0.00000  Uiso   1.00
C820   C     0.31185   0.46141   0.76457   0.00000  Uiso   1.00
C821   C     0.02148   0.53863   0.73568   0.00000  Uiso   1.00
C822   C     0.29082   0.50013   0.75030   0.00000  Uiso   1.00
H823   H     0.22924   0.47570   0.88697   0.00000  Uiso   1.00
H824   H     0.03796   0.56848   0.72407   0.00000  Uiso   1.00
H825   H     0.21533   0.37582   0.79811   0.00000  Uiso   1.00
H826   H     0.11800   0.62418   0.70189   0.00000  Uiso   1.00
H827   H     0.11800   0.37510   0.70189   0.00000  Uiso   1.00
H828   H     0.21533   0.62490   0.79811   0.00000  Uiso   1.00
H829   H     0.31548   0.55228   0.52769   0.00000  Uiso   1.00
H830   H     0.32866   0.48881   0.90305   0.00000  Uiso   1.00
H831   H     0.10406   0.52420   0.61301   0.00000  Uiso   1.00
H832   H     0.10411   0.52474   0.88765   0.00000  Uiso   1.00
H833   H     0.22918   0.47512   0.61233   0.00000  Uiso   1.00
H834   H     0.06735   0.53610   0.95669   0.00000  Uiso   1.00
H835   H     0.26577   0.46319   0.54330   0.00000  Uiso   1.00
H836   H     0.03755   0.43137   0.77578   0.00000  Uiso   1.00
H837   H     0.29579   0.56868   0.72446   0.00000  Uiso   1.00
H838   H     0.29537   0.43157   0.77617   0.00000  Uiso   1.00
N839   N     0.16667   0.61907   0.75000   0.00000  Uiso   1.00
N840   N     0.16667   0.38093   0.75000   0.00000  Uiso   1.00
O841   O     0.10559   0.53821   0.74999   0.00000  Uiso   1.00
O842   O     0.05257   0.58231   0.57734   0.00000  Uiso   1.00
O843   O     0.00855   0.55142   0.51051   0.00000  Uiso   1.00
O844   O     0.32033   0.44753   0.98489   0.00000  Uiso   1.00
O845   O     0.27930   0.41607   0.92253   0.00000  Uiso   1.00
O846   O     0.30302   0.50015   0.91768   0.00000  Uiso   1.00
O847   O     0.22774   0.46179   0.75000   0.00000  Uiso   1.00
O848   O     0.22774   0.53821   0.75000   0.00000  Uiso   1.00
O849   O     0.10559   0.46179   0.74999   0.00000  Uiso   1.00
O850   O     0.16666   0.53823   0.68392   0.00000  Uiso   1.00
O851   O     0.16667   0.46177   0.81607   0.00000  Uiso   1.00
O852   O     0.16667   0.53823   0.81607   0.00000  Uiso   1.00
O853   O     0.16666   0.46177   0.68392   0.00000  Uiso   1.00
O854   O     0.03187   0.50234   0.57830   0.00000  Uiso   1.00
S855   S     0.04586   0.54079   0.54890   0.00000  Uiso   1.00
S856   S     0.28692   0.45753   0.95081   0.00000  Uiso   1.00
Zn857  Zn    0.16667   0.55104   0.75000   0.00000  Uiso   1.00
Zn858  Zn    0.16667   0.44896   0.75000   0.00000  Uiso   1.00
C859   C     0.41999   0.49994   0.74991   0.00000  Uiso   1.00
C860   C     0.37585   0.49989   0.74989   0.00000  Uiso   1.00
C861   C     0.52704   0.35751   0.77673   0.00000  Uiso   1.00
C862   C     0.47296   0.64249   0.72327   0.00000  Uiso   1.00
C863   C     0.47296   0.35711   0.72327   0.00000  Uiso   1.00
C864   C     0.52704   0.64289   0.77673   0.00000  Uiso   1.00
C865   C     0.49992   0.49994   0.66352   0.00000  Uiso   1.00
C866   C     0.50008   0.50006   0.83647   0.00000  Uiso   1.00
C867   C     0.53594   0.48615   0.90659   0.00000  Uiso   1.00
C868   C     0.46400   0.51366   0.59339   0.00000  Uiso   1.00
C869   C     0.50028   0.50020   0.88407   0.00000  Uiso   1.00
C870   C     0.58001   0.50007   0.75015   0.00000  Uiso   1.00
C871   C     0.49971   0.49977   0.61591   0.00000  Uiso   1.00
C872   C     0.46476   0.51419   0.90651   0.00000  Uiso   1.00
C873   C     0.53519   0.48565   0.59348   0.00000  Uiso   1.00
C874   C     0.46425   0.51361   0.95293   0.00000  Uiso   1.00
C875   C     0.53565   0.48606   0.54705   0.00000  Uiso   1.00
C876   C     0.50029   0.49986   0.97660   0.00000  Uiso   1.00
C877   C     0.49961   0.49978   0.52338   0.00000  Uiso   1.00
C878   C     0.53689   0.48628   0.95337   0.00000  Uiso   1.00
C879   C     0.46298   0.51330   0.54661   0.00000  Uiso   1.00
C880   C     0.42806   0.52624   0.97566   0.00000  Uiso   1.00
C881   C     0.42677   0.52597   0.52241   0.00000  Uiso   1.00
C882   C     0.57176   0.47318   0.52432   0.00000  Uiso   1.00
C883   C     0.57301   0.47327   0.97754   0.00000  Uiso   1.00
C884   C     0.35458   0.46128   0.76432   0.00000  Uiso   1.00
C885   C     0.64542   0.53876   0.73592   0.00000  Uiso   1.00
C886   C     0.64518   0.46141   0.76457   0.00000  Uiso   1.00
C887   C     0.35481   0.53863   0.73568   0.00000  Uiso   1.00
C888   C     0.62415   0.50013   0.75030   0.00000  Uiso   1.00
H889   H     0.56257   0.47570   0.88697   0.00000  Uiso   1.00
H890   H     0.37129   0.56848   0.72407   0.00000  Uiso   1.00
H891   H     0.54866   0.37582   0.79811   0.00000  Uiso   1.00
H892   H     0.45134   0.62418   0.70189   0.00000  Uiso   1.00
H893   H     0.45134   0.37510   0.70189   0.00000  Uiso   1.00
H894   H     0.54866   0.62490   0.79811   0.00000  Uiso   1.00
H895   H     0.64881   0.55228   0.52769   0.00000  Uiso   1.00
H896   H     0.66199   0.48881   0.90305   0.00000  Uiso   1.00
H897   H     0.43740   0.52420   0.61301   0.00000  Uiso   1.00
H898   H     0.43744   0.52474   0.88765   0.00000  Uiso   1.00
H899   H     0.56251   0.47512   0.61233   0.00000  Uiso   1.00
H900   H     0.40068   0.53610   0.95669   0.00000  Uiso   1.00
H901   H     0.59910   0.46319   0.54330   0.00000  Uiso   1.00
H902   H     0.37089   0.43137   0.77578   0.00000  Uiso   1.00
H903   H     0.62912   0.56868   0.72446   0.00000  Uiso   1.00
H904   H     0.62870   0.43157   0.77617   0.00000  Uiso   1.00
N905   N     0.50000   0.61907   0.75000   0.00000  Uiso   1.00
N906   N     0.50000   0.38093   0.75000   0.00000  Uiso   1.00
O907   O     0.43892   0.53821   0.74999   0.00000  Uiso   1.00
O908   O     0.38590   0.58231   0.57734   0.00000  Uiso   1.00
O909   O     0.34188   0.55142   0.51051   0.00000  Uiso   1.00
O910   O     0.65366   0.44753   0.98489   0.00000  Uiso   1.00
O911   O     0.61264   0.41607   0.92253   0.00000  Uiso   1.00
O912   O     0.63635   0.50015   0.91768   0.00000  Uiso   1.00
O913   O     0.56108   0.46179   0.75000   0.00000  Uiso   1.00
O914   O     0.56108   0.53821   0.75000   0.00000  Uiso   1.00
O915   O     0.43892   0.46179   0.74999   0.00000  Uiso   1.00
O916   O     0.49999   0.53823   0.68392   0.00000  Uiso   1.00
O917   O     0.50001   0.46177   0.81607   0.00000  Uiso   1.00
O918   O     0.50001   0.53823   0.81607   0.00000  Uiso   1.00
O919   O     0.49999   0.46177   0.68392   0.00000  Uiso   1.00
O920   O     0.36520   0.50234   0.57830   0.00000  Uiso   1.00
S921   S     0.37919   0.54079   0.54890   0.00000  Uiso   1.00
S922   S     0.62025   0.45753   0.95081   0.00000  Uiso   1.00
Zn923  Zn    0.50000   0.55104   0.75000   0.00000  Uiso   1.00
Zn924  Zn    0.50000   0.44896   0.75000   0.00000  Uiso   1.00
C925   C     0.75332   0.49994   0.74991   0.00000  Uiso   1.00
C926   C     0.70918   0.49989   0.74989   0.00000  Uiso   1.00
C927   C     0.86037   0.35751   0.77673   0.00000  Uiso   1.00
C928   C     0.80629   0.64249   0.72327   0.00000  Uiso   1.00
C929   C     0.80629   0.35711   0.72327   0.00000  Uiso   1.00
C930   C     0.86037   0.64289   0.77673   0.00000  Uiso   1.00
C931   C     0.83325   0.49994   0.66352   0.00000  Uiso   1.00
C932   C     0.83342   0.50006   0.83647   0.00000  Uiso   1.00
C933   C     0.86927   0.48615   0.90659   0.00000  Uiso   1.00
C934   C     0.79733   0.51366   0.59339   0.00000  Uiso   1.00
C935   C     0.83361   0.50020   0.88407   0.00000  Uiso   1.00
C936   C     0.91335   0.50007   0.75015   0.00000  Uiso   1.00
C937   C     0.83304   0.49977   0.61591   0.00000  Uiso   1.00
C938   C     0.79810   0.51419   0.90651   0.00000  Uiso   1.00
C939   C     0.86852   0.48565   0.59348   0.00000  Uiso   1.00
C940   C     0.79759   0.51361   0.95293   0.00000  Uiso   1.00
C941   C     0.86898   0.48606   0.54705   0.00000  Uiso   1.00
C942   C     0.83362   0.49986   0.97660   0.00000  Uiso   1.00
C943   C     0.83294   0.49978   0.52338   0.00000  Uiso   1.00
C944   C     0.87022   0.48628   0.95337   0.00000  Uiso   1.00
C945   C     0.79632   0.51330   0.54661   0.00000  Uiso   1.00
C946   C     0.76140   0.52624   0.97566   0.00000  Uiso   1.00
C947   C     0.76010   0.52597   0.52241   0.00000  Uiso   1.00
C948   C     0.90509   0.47318   0.52432   0.00000  Uiso   1.00
C949   C     0.90634   0.47327   0.97754   0.00000  Uiso   1.00
C950   C     0.68792   0.46128   0.76432   0.00000  Uiso   1.00
C951   C     0.97875   0.53876   0.73592   0.00000  Uiso   1.00
C952   C     0.97852   0.46141   0.76457   0.00000  Uiso   1.00
C953   C     0.68815   0.53863   0.73568   0.00000  Uiso   1.00
C954   C     0.95749   0.50013   0.75030   0.00000  Uiso   1.00
H955   H     0.89590   0.47570   0.88697   0.00000  Uiso   1.00
H956   H     0.70463   0.56848   0.72407   0.00000  Uiso   1.00
H957   H     0.88200   0.37582   0.79811   0.00000  Uiso   1.00
H958   H     0.78467   0.62418   0.70189   0.00000  Uiso   1.00
H959   H     0.78467   0.37510   0.70189   0.00000  Uiso   1.00
H960   H     0.88200   0.62490   0.79811   0.00000  Uiso   1.00
H961   H     0.98214   0.55228   0.52769   0.00000  Uiso   1.00
H962   H     0.99533   0.48881   0.90305   0.00000  Uiso   1.00
H963   H     0.77073   0.52420   0.61301   0.00000  Uiso   1.00
H964   H     0.77078   0.52474   0.88765   0.00000  Uiso   1.00
H965   H     0.89584   0.47512   0.61233   0.00000  Uiso   1.00
H966   H     0.73402   0.53610   0.95669   0.00000  Uiso   1.00
H967   H     0.93243   0.46319   0.54330   0.00000  Uiso   1.00
H968   H     0.70422   0.43137   0.77578   0.00000  Uiso   1.00
H969   H     0.96245   0.56868   0.72446   0.00000  Uiso   1.00
H970   H     0.96203   0.43157   0.77617   0.00000  Uiso   1.00
N971   N     0.83333   0.61907   0.75000   0.00000  Uiso   1.00
N972   N     0.83333   0.38093   0.75000   0.00000  Uiso   1.00
O973   O     0.77226   0.53821   0.74999   0.00000  Uiso   1.00
O974   O     0.71924   0.58231   0.57734   0.00000  Uiso   1.00
O975   O     0.67521   0.55142   0.51051   0.00000  Uiso   1.00
O976   O     0.98699   0.44753   0.98489   0.00000  Uiso   1.00
O977   O     0.94597   0.41607   0.92253   0.00000  Uiso   1.00
O978   O     0.96969   0.50015   0.91768   0.00000  Uiso   1.00
O979   O     0.89441   0.46179   0.75000   0.00000  Uiso   1.00
O980   O     0.89441   0.53821   0.75000   0.00000  Uiso   1.00
O981   O     0.77226   0.46179   0.74999   0.00000  Uiso   1.00
O982   O     0.83333   0.53823   0.68392   0.00000  Uiso   1.00
O983   O     0.83334   0.46177   0.81607   0.00000  Uiso   1.00
O984   O     0.83334   0.53823   0.81607   0.00000  Uiso   1.00
O985   O     0.83333   0.46177   0.68392   0.00000  Uiso   1.00
O986   O     0.69854   0.50234   0.57830   0.00000  Uiso   1.00
S987   S     0.71252   0.54079   0.54890   0.00000  Uiso   1.00
S988   S     0.95358   0.45753   0.95081   0.00000  Uiso   1.00
Zn989  Zn    0.83333   0.55104   0.75000   0.00000  Uiso   1.00
Zn990  Zn    0.83333   0.44896   0.75000   0.00000  Uiso   1.00
C991   C     0.08665   0.83327   0.74991   0.00000  Uiso   1.00
C992   C     0.04251   0.83323   0.74989   0.00000  Uiso   1.00
C993   C     0.19371   0.69084   0.77673   0.00000  Uiso   1.00
C994   C     0.13963   0.97583   0.72327   0.00000  Uiso   1.00
C995   C     0.13963   0.69044   0.72327   0.00000  Uiso   1.00
C996   C     0.19371   0.97622   0.77673   0.00000  Uiso   1.00
C997   C     0.16659   0.83327   0.66352   0.00000  Uiso   1.00
C998   C     0.16675   0.83339   0.83647   0.00000  Uiso   1.00
C999   C     0.20261   0.81949   0.90659   0.00000  Uiso   1.00
C1000  C     0.13067   0.84699   0.59339   0.00000  Uiso   1.00
C1001  C     0.16695   0.83353   0.88407   0.00000  Uiso   1.00
C1002  C     0.24668   0.83340   0.75015   0.00000  Uiso   1.00
C1003  C     0.16638   0.83310   0.61591   0.00000  Uiso   1.00
C1004  C     0.13143   0.84753   0.90651   0.00000  Uiso   1.00
C1005  C     0.20185   0.81898   0.59348   0.00000  Uiso   1.00
C1006  C     0.13092   0.84694   0.95293   0.00000  Uiso   1.00
C1007  C     0.20232   0.81940   0.54705   0.00000  Uiso   1.00
C1008  C     0.16695   0.83320   0.97660   0.00000  Uiso   1.00
C1009  C     0.16628   0.83311   0.52338   0.00000  Uiso   1.00
C1010  C     0.20356   0.81961   0.95337   0.00000  Uiso   1.00
C1011  C     0.12965   0.84663   0.54661   0.00000  Uiso   1.00
C1012  C     0.09473   0.85957   0.97566   0.00000  Uiso   1.00
C1013  C     0.09344   0.85931   0.52241   0.00000  Uiso   1.00
C1014  C     0.23843   0.80651   0.52432   0.00000  Uiso   1.00
C1015  C     0.23967   0.80661   0.97754   0.00000  Uiso   1.00
C1016  C     0.02125   0.79461   0.76432   0.00000  Uiso   1.00
C1017  C     0.31208   0.87210   0.73592   0.00000  Uiso   1.00
C1018  C     0.31185   0.79475   0.76457   0.00000  Uiso   1.00
C1019  C     0.02148   0.87197   0.73568   0.00000  Uiso   1.00
C1020  C     0.29082   0.83347   0.75030   0.00000  Uiso   1.00
H1021  H     0.22924   0.80903   0.88697   0.00000  Uiso   1.00
H1022  H     0.03796   0.90182   0.72407   0.00000  Uiso   1.00
H1023  H     0.21533   0.70915   0.79811   0.00000  Uiso   1.00
H1024  H     0.11800   0.95752   0.70189   0.00000  Uiso   1.00
H1025  H     0.11800   0.70844   0.70189   0.00000  Uiso   1.00
H1026  H     0.21533   0.95823   0.79811   0.00000  Uiso   1.00
H1027  H     0.31548   0.88561   0.52769   0.00000  Uiso   1.00
H1028  H     0.32866   0.82214   0.90305   0.00000  Uiso   1.00
H1029  H     0.10406   0.85753   0.61301   0.00000  Uiso   1.00
H1030  H     0.10411   0.85808   0.88765   0.00000  Uiso   1.00
H1031  H     0.22918   0.80845   0.61233   0.00000  Uiso   1.00
H1032  H     0.06735   0.86943   0.95669   0.00000  Uiso   1.00
H1033  H     0.26577   0.79652   0.54330   0.00000  Uiso   1.00
H1034  H     0.03755   0.76470   0.77578   0.00000  Uiso   1.00
H1035  H     0.29579   0.90201   0.72446   0.00000  Uiso   1.00
H1036  H     0.29537   0.76490   0.77617   0.00000  Uiso   1.00
N1037  N     0.16667   0.95240   0.75000   0.00000  Uiso   1.00
N1038  N     0.16667   0.71427   0.75000   0.00000  Uiso   1.00
O1039  O     0.10559   0.87154   0.74999   0.00000  Uiso   1.00
O1040  O     0.05257   0.91564   0.57734   0.00000  Uiso   1.00
O1041  O     0.00855   0.88475   0.51051   0.00000  Uiso   1.00
O1042  O     0.32033   0.78087   0.98489   0.00000  Uiso   1.00
O1043  O     0.27930   0.74940   0.92253   0.00000  Uiso   1.00
O1044  O     0.30302   0.83349   0.91768   0.00000  Uiso   1.00
O1045  O     0.22774   0.79513   0.75000   0.00000  Uiso   1.00
O1046  O     0.22774   0.87154   0.75000   0.00000  Uiso   1.00
O1047  O     0.10559   0.79513   0.74999   0.00000  Uiso   1.00
O1048  O     0.16666   0.87156   0.68392   0.00000  Uiso   1.00
O1049  O     0.16667   0.79511   0.81607   0.00000  Uiso   1.00
O1050  O     0.16667   0.87156   0.81607   0.00000  Uiso   1.00
O1051  O     0.16666   0.79511   0.68392   0.00000  Uiso   1.00
O1052  O     0.03187   0.83567   0.57830   0.00000  Uiso   1.00
S1053  S     0.04586   0.87412   0.54890   0.00000  Uiso   1.00
S1054  S     0.28692   0.79086   0.95081   0.00000  Uiso   1.00
Zn1055 Zn    0.16667   0.88437   0.75000   0.00000  Uiso   1.00
Zn1056 Zn    0.16667   0.78229   0.75000   0.00000  Uiso   1.00
C1057  C     0.41999   0.83327   0.74991   0.00000  Uiso   1.00
C1058  C     0.37585   0.83323   0.74989   0.00000  Uiso   1.00
C1059  C     0.52704   0.69084   0.77673   0.00000  Uiso   1.00
C1060  C     0.47296   0.97583   0.72327   0.00000  Uiso   1.00
C1061  C     0.47296   0.69044   0.72327   0.00000  Uiso   1.00
C1062  C     0.52704   0.97622   0.77673   0.00000  Uiso   1.00
C1063  C     0.49992   0.83327   0.66352   0.00000  Uiso   1.00
C1064  C     0.50008   0.83339   0.83647   0.00000  Uiso   1.00
C1065  C     0.53594   0.81949   0.90659   0.00000  Uiso   1.00
C1066  C     0.46400   0.84699   0.59339   0.00000  Uiso   1.00
C1067  C     0.50028   0.83353   0.88407   0.00000  Uiso   1.00
C1068  C     0.58001   0.83340   0.75015   0.00000  Uiso   1.00
C1069  C     0.49971   0.83310   0.61591   0.00000  Uiso   1.00
C1070  C     0.46476   0.84753   0.90651   0.00000  Uiso   1.00
C1071  C     0.53519   0.81898   0.59348   0.00000  Uiso   1.00
C1072  C     0.46425   0.84694   0.95293   0.00000  Uiso   1.00
C1073  C     0.53565   0.81940   0.54705   0.00000  Uiso   1.00
C1074  C     0.50029   0.83320   0.97660   0.00000  Uiso   1.00
C1075  C     0.49961   0.83311   0.52338   0.00000  Uiso   1.00
C1076  C     0.53689   0.81961   0.95337   0.00000  Uiso   1.00
C1077  C     0.46298   0.84663   0.54661   0.00000  Uiso   1.00
C1078  C     0.42806   0.85957   0.97566   0.00000  Uiso   1.00
C1079  C     0.42677   0.85931   0.52241   0.00000  Uiso   1.00
C1080  C     0.57176   0.80651   0.52432   0.00000  Uiso   1.00
C1081  C     0.57301   0.80661   0.97754   0.00000  Uiso   1.00
C1082  C     0.35458   0.79461   0.76432   0.00000  Uiso   1.00
C1083  C     0.64542   0.87210   0.73592   0.00000  Uiso   1.00
C1084  C     0.64518   0.79475   0.76457   0.00000  Uiso   1.00
C1085  C     0.35481   0.87197   0.73568   0.00000  Uiso   1.00
C1086  C     0.62415   0.83347   0.75030   0.00000  Uiso   1.00
H1087  H     0.56257   0.80903   0.88697   0.00000  Uiso   1.00
H1088  H     0.37129   0.90182   0.72407   0.00000  Uiso   1.00
H1089  H     0.54866   0.70915   0.79811   0.00000  Uiso   1.00
H1090  H     0.45134   0.95752   0.70189   0.00000  Uiso   1.00
H1091  H     0.45134   0.70844   0.70189   0.00000  Uiso   1.00
H1092  H     0.54866   0.95823   0.79811   0.00000  Uiso   1.00
H1093  H     0.64881   0.88561   0.52769   0.00000  Uiso   1.00
H1094  H     0.66199   0.82214   0.90305   0.00000  Uiso   1.00
H1095  H     0.43740   0.85753   0.61301   0.00000  Uiso   1.00
H1096  H     0.43744   0.85808   0.88765   0.00000  Uiso   1.00
H1097  H     0.56251   0.80845   0.61233   0.00000  Uiso   1.00
H1098  H     0.40068   0.86943   0.95669   0.00000  Uiso   1.00
H1099  H     0.59910   0.79652   0.54330   0.00000  Uiso   1.00
H1100  H     0.37089   0.76470   0.77578   0.00000  Uiso   1.00
H1101  H     0.62912   0.90201   0.72446   0.00000  Uiso   1.00
H1102  H     0.62870   0.76490   0.77617   0.00000  Uiso   1.00
N1103  N     0.50000   0.95240   0.75000   0.00000  Uiso   1.00
N1104  N     0.50000   0.71427   0.75000   0.00000  Uiso   1.00
O1105  O     0.43892   0.87154   0.74999   0.00000  Uiso   1.00
O1106  O     0.38590   0.91564   0.57734   0.00000  Uiso   1.00
O1107  O     0.34188   0.88475   0.51051   0.00000  Uiso   1.00
O1108  O     0.65366   0.78087   0.98489   0.00000  Uiso   1.00
O1109  O     0.61264   0.74940   0.92253   0.00000  Uiso   1.00
O1110  O     0.63635   0.83349   0.91768   0.00000  Uiso   1.00
O1111  O     0.56108   0.79513   0.75000   0.00000  Uiso   1.00
O1112  O     0.56108   0.87154   0.75000   0.00000  Uiso   1.00
O1113  O     0.43892   0.79513   0.74999   0.00000  Uiso   1.00
O1114  O     0.49999   0.87156   0.68392   0.00000  Uiso   1.00
O1115  O     0.50001   0.79511   0.81607   0.00000  Uiso   1.00
O1116  O     0.50001   0.87156   0.81607   0.00000  Uiso   1.00
O1117  O     0.49999   0.79511   0.68392   0.00000  Uiso   1.00
O1118  O     0.36520   0.83567   0.57830   0.00000  Uiso   1.00
S1119  S     0.37919   0.87412   0.54890   0.00000  Uiso   1.00
S1120  S     0.62025   0.79086   0.95081   0.00000  Uiso   1.00
Zn1121 Zn    0.50000   0.88437   0.75000   0.00000  Uiso   1.00
Zn1122 Zn    0.50000   0.78229   0.75000   0.00000  Uiso   1.00
C1123  C     0.75332   0.83327   0.74991   0.00000  Uiso   1.00
C1124  C     0.70918   0.83323   0.74989   0.00000  Uiso   1.00
C1125  C     0.86037   0.69084   0.77673   0.00000  Uiso   1.00
C1126  C     0.80629   0.97583   0.72327   0.00000  Uiso   1.00
C1127  C     0.80629   0.69044   0.72327   0.00000  Uiso   1.00
C1128  C     0.86037   0.97622   0.77673   0.00000  Uiso   1.00
C1129  C     0.83325   0.83327   0.66352   0.00000  Uiso   1.00
C1130  C     0.83342   0.83339   0.83647   0.00000  Uiso   1.00
C1131  C     0.86927   0.81949   0.90659   0.00000  Uiso   1.00
C1132  C     0.79733   0.84699   0.59339   0.00000  Uiso   1.00
C1133  C     0.83361   0.83353   0.88407   0.00000  Uiso   1.00
C1134  C     0.91335   0.83340   0.75015   0.00000  Uiso   1.00
C1135  C     0.83304   0.83310   0.61591   0.00000  Uiso   1.00
C1136  C     0.79810   0.84753   0.90651   0.00000  Uiso   1.00
C1137  C     0.86852   0.81898   0.59348   0.00000  Uiso   1.00
C1138  C     0.79759   0.84694   0.95293   0.00000  Uiso   1.00
C1139  C     0.86898   0.81940   0.54705   0.00000  Uiso   1.00
C1140  C     0.83362   0.83320   0.97660   0.00000  Uiso   1.00
C1141  C     0.83294   0.83311   0.52338   0.00000  Uiso   1.00
C1142  C     0.87022   0.81961   0.95337   0.00000  Uiso   1.00
C1143  C     0.79632   0.84663   0.54661   0.00000  Uiso   1.00
C1144  C     0.76140   0.85957   0.97566   0.00000  Uiso   1.00
C1145  C     0.76010   0.85931   0.52241   0.00000  Uiso   1.00
C1146  C     0.90509   0.80651   0.52432   0.00000  Uiso   1.00
C1147  C     0.90634   0.80661   0.97754   0.00000  Uiso   1.00
C1148  C     0.68792   0.79461   0.76432   0.00000  Uiso   1.00
C1149  C     0.97875   0.87210   0.73592   0.00000  Uiso   1.00
C1150  C     0.97852   0.79475   0.76457   0.00000  Uiso   1.00
C1151  C     0.68815   0.87197   0.73568   0.00000  Uiso   1.00
C1152  C     0.95749   0.83347   0.75030   0.00000  Uiso   1.00
H1153  H     0.89590   0.80903   0.88697   0.00000  Uiso   1.00
H1154  H     0.70463   0.90182   0.72407   0.00000  Uiso   1.00
H1155  H     0.88200   0.70915   0.79811   0.00000  Uiso   1.00
H1156  H     0.78467   0.95752   0.70189   0.00000  Uiso   1.00
H1157  H     0.78467   0.70844   0.70189   0.00000  Uiso   1.00
H1158  H     0.88200   0.95823   0.79811   0.00000  Uiso   1.00
H1159  H     0.98214   0.88561   0.52769   0.00000  Uiso   1.00
H1160  H     0.99533   0.82214   0.90305   0.00000  Uiso   1.00
H1161  H     0.77073   0.85753   0.61301   0.00000  Uiso   1.00
H1162  H     0.77078   0.85808   0.88765   0.00000  Uiso   1.00
H1163  H     0.89584   0.80845   0.61233   0.00000  Uiso   1.00
H1164  H     0.73402   0.86943   0.95669   0.00000  Uiso   1.00
H1165  H     0.93243   0.79652   0.54330   0.00000  Uiso   1.00
H1166  H     0.70422   0.76470   0.77578   0.00000  Uiso   1.00
H1167  H     0.96245   0.90201   0.72446   0.00000  Uiso   1.00
H1168  H     0.96203   0.76490   0.77617   0.00000  Uiso   1.00
N1169  N     0.83333   0.95240   0.75000   0.00000  Uiso   1.00
N1170  N     0.83333   0.71427   0.75000   0.00000  Uiso   1.00
O1171  O     0.77226   0.87154   0.74999   0.00000  Uiso   1.00
O1172  O     0.71924   0.91564   0.57734   0.00000  Uiso   1.00
O1173  O     0.67521   0.88475   0.51051   0.00000  Uiso   1.00
O1174  O     0.98699   0.78087   0.98489   0.00000  Uiso   1.00
O1175  O     0.94597   0.74940   0.92253   0.00000  Uiso   1.00
O1176  O     0.96969   0.83349   0.91768   0.00000  Uiso   1.00
O1177  O     0.89441   0.79513   0.75000   0.00000  Uiso   1.00
O1178  O     0.89441   0.87154   0.75000   0.00000  Uiso   1.00
O1179  O     0.77226   0.79513   0.74999   0.00000  Uiso   1.00
O1180  O     0.83333   0.87156   0.68392   0.00000  Uiso   1.00
O1181  O     0.83334   0.79511   0.81607   0.00000  Uiso   1.00
O1182  O     0.83334   0.87156   0.81607   0.00000  Uiso   1.00
O1183  O     0.83333   0.79511   0.68392   0.00000  Uiso   1.00
O1184  O     0.69854   0.83567   0.57830   0.00000  Uiso   1.00
S1185  S     0.71252   0.87412   0.54890   0.00000  Uiso   1.00
S1186  S     0.95358   0.79086   0.95081   0.00000  Uiso   1.00
Zn1187 Zn    0.83333   0.88437   0.75000   0.00000  Uiso   1.00
Zn1188 Zn    0.83333   0.78229   0.75000   0.00000  Uiso   1.00
loop_
_geom_bond_atom_site_label_1
_geom_bond_atom_site_label_2
_geom_bond_distance
_geom_bond_site_symmetry_2
_ccdc_geom_bond_type
C1     O57     1.282   .     A
C1     C2      1.415   .     S
C1     O49     1.281   .     A
C2     C26     1.396   .     A
C2     C29     1.397   .     A
C3     H33     1.082   .     S
C3     N48     1.367   .     A
C3     C402    1.417   1_545 S
C4     H34     1.082   .     S
C4     N47     1.366   .     A
C4     C203    1.417   .     S
C5     H35     1.082   .     S
C5     N48     1.366   .     A
C5     C400    1.417   1_545 S
C6     H36     1.082   .     S
C6     N47     1.366   .     A
C6     C201    1.417   .     S
C7     O58     1.283   .     A
C7     C13     1.418   .     S
C7     O61     1.282   .     A
C8     O59     1.283   .     A
C8     O60     1.282   .     A
C8     C11     1.417   .     S
C9     C20     1.393   .     A
C9     H31     1.081   .     S
C9     C11     1.389   .     A
C10    H39     1.081   .     S
C10    C13     1.389   .     A
C10    C21     1.393   .     A
C11    C14     1.386   .     A
C12    O56     1.282   .     A
C12    O55     1.281   .     A
C12    C30     1.415   .     S
C13    C15     1.386   .     A
C14    C16     1.382   .     A
C14    H40     1.086   .     S
C15    H41     1.086   .     S
C15    C17     1.383   .     A
C16    C18     1.413   .     A
C16    C22     1.396   .     A
C17    C19     1.413   .     A
C17    C24     1.396   .     A
C18    C20     1.422   .     A
C18    C613    1.393   .     S
C19    C21     1.422   .     A
C19    C612    1.393   1_554 S
C20    C25     1.416   .     A
C21    C23     1.416   .     A
C22    H42     1.083   .     S
C22    C617    1.393   .     S
C23    S63     1.775   .     S
C23    C616    1.393   1_554 S
C24    H43     1.084   .     S
C24    C619    1.393   1_554 S
C25    S64     1.776   .     S
C25    C618    1.393   .     S
C26    H44     1.084   .     S
C26    C160    1.370   1_455 S
C27    H45     1.084   .     S
C27    C30     1.396   .     A
C27    C95     1.369   .     S
C28    C30     1.397   .     A
C28    H46     1.084   .     S
C28    C92     1.370   .     S
C29    H32     1.084   .     S
C29    C159    1.369   1_455 S
H37    O117    0.991   .     S
H38    O54     0.991   .     S
N47    Zn65    2.010   .     S
N48    Zn66    2.010   .     S
O49    Zn65    1.992   .     S
O50    S63     1.503   .     D
O51    S63     1.683   .     S
O51    H169    0.991   1_455 S
O52    S64     1.504   .     D
O53    S64     1.503   .     D
O54    S64     1.682   .     S
O55    Zn66    1.992   .     S
O56    Zn65    1.995   .     S
O57    Zn66    1.995   .     S
O58    Zn65    2.003   .     S
O59    Zn66    2.003   .     S
O60    Zn65    2.004   .     S
O61    Zn66    2.004   .     S
O62    S63     1.504   .     D
C67    O123    1.282   .     A
C67    C68     1.415   .     S
C67    O115    1.281   .     A
C68    C92     1.396   .     A
C68    C95     1.397   .     A
C69    H99     1.082   .     S
C69    N114    1.367   .     A
C69    C468    1.417   1_545 S
C70    H100    1.082   .     S
C70    N113    1.366   .     A
C70    C269    1.417   .     S
C71    H101    1.082   .     S
C71    N114    1.366   .     A
C71    C466    1.417   1_545 S
C72    H102    1.082   .     S
C72    N113    1.366   .     A
C72    C267    1.417   .     S
C73    O124    1.283   .     A
C73    C79     1.418   .     S
C73    O127    1.282   .     A
C74    O125    1.283   .     A
C74    O126    1.282   .     A
C74    C77     1.417   .     S
C75    C86     1.393   .     A
C75    H97     1.081   .     S
C75    C77     1.389   .     A
C76    H105    1.081   .     S
C76    C79     1.389   .     A
C76    C87     1.393   .     A
C77    C80     1.386   .     A
C78    O122    1.282   .     A
C78    O121    1.281   .     A
C78    C96     1.415   .     S
C79    C81     1.386   .     A
C80    C82     1.382   .     A
C80    H106    1.086   .     S
C81    H107    1.086   .     S
C81    C83     1.383   .     A
C82    C84     1.413   .     A
C82    C88     1.396   .     A
C83    C85     1.413   .     A
C83    C90     1.396   .     A
C84    C86     1.422   .     A
C84    C679    1.393   .     S
C85    C87     1.422   .     A
C85    C678    1.393   1_554 S
C86    C91     1.416   .     A
C87    C89     1.416   .     A
C88    H108    1.083   .     S
C88    C683    1.393   .     S
C89    S129    1.775   .     S
C89    C682    1.393   1_554 S
C90    H109    1.084   .     S
C90    C685    1.393   1_554 S
C91    S130    1.776   .     S
C91    C684    1.393   .     S
C92    H110    1.084   .     S
C93    H111    1.084   .     S
C93    C96     1.396   .     A
C93    C161    1.369   .     S
C94    C96     1.397   .     A
C94    H112    1.084   .     S
C94    C158    1.370   .     S
C95    H98     1.084   .     S
H103   O183    0.991   .     S
H104   O120    0.991   .     S
N113   Zn131   2.010   .     S
N114   Zn132   2.010   .     S
O115   Zn131   1.992   .     S
O116   S129    1.503   .     D
O117   S129    1.683   .     S
O118   S130    1.504   .     D
O119   S130    1.503   .     D
O120   S130    1.682   .     S
O121   Zn132   1.992   .     S
O122   Zn131   1.995   .     S
O123   Zn132   1.995   .     S
O124   Zn131   2.003   .     S
O125   Zn132   2.003   .     S
O126   Zn131   2.004   .     S
O127   Zn132   2.004   .     S
O128   S129    1.504   .     D
C133   O189    1.282   .     A
C133   C134    1.415   .     S
C133   O181    1.281   .     A
C134   C158    1.396   .     A
C134   C161    1.397   .     A
C135   H165    1.082   .     S
C135   N180    1.367   .     A
C135   C534    1.417   1_545 S
C136   H166    1.082   .     S
C136   N179    1.366   .     A
C136   C335    1.417   .     S
C137   H167    1.082   .     S
C137   N180    1.366   .     A
C137   C532    1.417   1_545 S
C138   H168    1.082   .     S
C138   N179    1.366   .     A
C138   C333    1.417   .     S
C139   O190    1.283   .     A
C139   C145    1.418   .     S
C139   O193    1.282   .     A
C140   O191    1.283   .     A
C140   O192    1.282   .     A
C140   C143    1.417   .     S
C141   C152    1.393   .     A
C141   H163    1.081   .     S
C141   C143    1.389   .     A
C142   H171    1.081   .     S
C142   C145    1.389   .     A
C142   C153    1.393   .     A
C143   C146    1.386   .     A
C144   O188    1.282   .     A
C144   O187    1.281   .     A
C144   C162    1.415   .     S
C145   C147    1.386   .     A
C146   C148    1.382   .     A
C146   H172    1.086   .     S
C147   H173    1.086   .     S
C147   C149    1.383   .     A
C148   C150    1.413   .     A
C148   C154    1.396   .     A
C149   C151    1.413   .     A
C149   C156    1.396   .     A
C150   C152    1.422   .     A
C150   C745    1.393   .     S
C151   C153    1.422   .     A
C151   C744    1.393   1_554 S
C152   C157    1.416   .     A
C153   C155    1.416   .     A
C154   H174    1.083   .     S
C154   C749    1.393   .     S
C155   S195    1.775   .     S
C155   C748    1.393   1_554 S
C156   H175    1.084   .     S
C156   C751    1.393   1_554 S
C157   S196    1.776   .     S
C157   C750    1.393   .     S
C158   H176    1.084   .     S
C159   H177    1.084   .     S
C159   C162    1.396   .     A
C159   C29     1.369   1_655 S
C160   C162    1.397   .     A
C160   H178    1.084   .     S
C160   C26     1.370   1_655 S
C161   H164    1.084   .     S
H169   O51     0.991   1_655 S
H170   O186    0.991   .     S
N179   Zn197   2.010   .     S
N180   Zn198   2.010   .     S
O181   Zn197   1.992   .     S
O182   S195    1.503   .     D
O183   S195    1.683   .     S
O184   S196    1.504   .     D
O185   S196    1.503   .     D
O186   S196    1.682   .     S
O187   Zn198   1.992   .     S
O188   Zn197   1.995   .     S
O189   Zn198   1.995   .     S
O190   Zn197   2.003   .     S
O191   Zn198   2.003   .     S
O192   Zn197   2.004   .     S
O193   Zn198   2.004   .     S
O194   S195    1.504   .     D
C199   O255    1.282   .     A
C199   C200    1.415   .     S
C199   O247    1.281   .     A
C200   C224    1.396   .     A
C200   C227    1.397   .     A
C201   H231    1.082   .     S
C201   N246    1.367   .     A
C202   H232    1.082   .     S
C202   N245    1.366   .     A
C202   C401    1.417   .     S
C203   H233    1.082   .     S
C203   N246    1.366   .     A
C204   H234    1.082   .     S
C204   N245    1.366   .     A
C204   C399    1.417   .     S
C205   O256    1.283   .     A
C205   C211    1.418   .     S
C205   O259    1.282   .     A
C206   O257    1.283   .     A
C206   O258    1.282   .     A
C206   C209    1.417   .     S
C207   C218    1.393   .     A
C207   H229    1.081   .     S
C207   C209    1.389   .     A
C208   H237    1.081   .     S
C208   C211    1.389   .     A
C208   C219    1.393   .     A
C209   C212    1.386   .     A
C210   O254    1.282   .     A
C210   O253    1.281   .     A
C210   C228    1.415   .     S
C211   C213    1.386   .     A
C212   C214    1.382   .     A
C212   H238    1.086   .     S
C213   H239    1.086   .     S
C213   C215    1.383   .     A
C214   C216    1.413   .     A
C214   C220    1.396   .     A
C215   C217    1.413   .     A
C215   C222    1.396   .     A
C216   C218    1.422   .     A
C216   C811    1.393   .     S
C217   C219    1.422   .     A
C217   C810    1.393   1_554 S
C218   C223    1.416   .     A
C219   C221    1.416   .     A
C220   H240    1.083   .     S
C220   C815    1.393   .     S
C221   S261    1.775   .     S
C221   C814    1.393   1_554 S
C222   H241    1.084   .     S
C222   C817    1.393   1_554 S
C223   S262    1.776   .     S
C223   C816    1.393   .     S
C224   H242    1.084   .     S
C224   C358    1.370   1_455 S
C225   H243    1.084   .     S
C225   C228    1.396   .     A
C225   C293    1.369   .     S
C226   C228    1.397   .     A
C226   H244    1.084   .     S
C226   C290    1.370   .     S
C227   H230    1.084   .     S
C227   C357    1.369   1_455 S
H235   O315    0.991   .     S
H236   O252    0.991   .     S
N245   Zn263   2.010   .     S
N246   Zn264   2.010   .     S
O247   Zn263   1.992   .     S
O248   S261    1.503   .     D
O249   S261    1.683   .     S
O249   H367    0.991   1_455 S
O250   S262    1.504   .     D
O251   S262    1.503   .     D
O252   S262    1.682   .     S
O253   Zn264   1.992   .     S
O254   Zn263   1.995   .     S
O255   Zn264   1.995   .     S
O256   Zn263   2.003   .     S
O257   Zn264   2.003   .     S
O258   Zn263   2.004   .     S
O259   Zn264   2.004   .     S
O260   S261    1.504   .     D
C265   O321    1.282   .     A
C265   C266    1.415   .     S
C265   O313    1.281   .     A
C266   C290    1.396   .     A
C266   C293    1.397   .     A
C267   H297    1.082   .     S
C267   N312    1.367   .     A
C268   H298    1.082   .     S
C268   N311    1.366   .     A
C268   C467    1.417   .     S
C269   H299    1.082   .     S
C269   N312    1.366   .     A
C270   H300    1.082   .     S
C270   N311    1.366   .     A
C270   C465    1.417   .     S
C271   O322    1.283   .     A
C271   C277    1.418   .     S
C271   O325    1.282   .     A
C272   O323    1.283   .     A
C272   O324    1.282   .     A
C272   C275    1.417   .     S
C273   C284    1.393   .     A
C273   H295    1.081   .     S
C273   C275    1.389   .     A
C274   H303    1.081   .     S
C274   C277    1.389   .     A
C274   C285    1.393   .     A
C275   C278    1.386   .     A
C276   O320    1.282   .     A
C276   O319    1.281   .     A
C276   C294    1.415   .     S
C277   C279    1.386   .     A
C278   C280    1.382   .     A
C278   H304    1.086   .     S
C279   H305    1.086   .     S
C279   C281    1.383   .     A
C280   C282    1.413   .     A
C280   C286    1.396   .     A
C281   C283    1.413   .     A
C281   C288    1.396   .     A
C282   C284    1.422   .     A
C282   C877    1.393   .     S
C283   C285    1.422   .     A
C283   C876    1.393   1_554 S
C284   C289    1.416   .     A
C285   C287    1.416   .     A
C286   H306    1.083   .     S
C286   C881    1.393   .     S
C287   S327    1.775   .     S
C287   C880    1.393   1_554 S
C288   H307    1.084   .     S
C288   C883    1.393   1_554 S
C289   S328    1.776   .     S
C289   C882    1.393   .     S
C290   H308    1.084   .     S
C291   H309    1.084   .     S
C291   C294    1.396   .     A
C291   C359    1.369   .     S
C292   C294    1.397   .     A
C292   H310    1.084   .     S
C292   C356    1.370   .     S
C293   H296    1.084   .     S
H301   O381    0.991   .     S
H302   O318    0.991   .     S
N311   Zn329   2.010   .     S
N312   Zn330   2.010   .     S
O313   Zn329   1.992   .     S
O314   S327    1.503   .     D
O315   S327    1.683   .     S
O316   S328    1.504   .     D
O317   S328    1.503   .     D
O318   S328    1.682   .     S
O319   Zn330   1.992   .     S
O320   Zn329   1.995   .     S
O321   Zn330   1.995   .     S
O322   Zn329   2.003   .     S
O323   Zn330   2.003   .     S
O324   Zn329   2.004   .     S
O325   Zn330   2.004   .     S
O326   S327    1.504   .     D
C331   O387    1.282   .     A
C331   C332    1.415   .     S
C331   O379    1.281   .     A
C332   C356    1.396   .     A
C332   C359    1.397   .     A
C333   H363    1.082   .     S
C333   N378    1.367   .     A
C334   H364    1.082   .     S
C334   N377    1.366   .     A
C334   C533    1.417   .     S
C335   H365    1.082   .     S
C335   N378    1.366   .     A
C336   H366    1.082   .     S
C336   N377    1.366   .     A
C336   C531    1.417   .     S
C337   O388    1.283   .     A
C337   C343    1.418   .     S
C337   O391    1.282   .     A
C338   O389    1.283   .     A
C338   O390    1.282   .     A
C338   C341    1.417   .     S
C339   C350    1.393   .     A
C339   H361    1.081   .     S
C339   C341    1.389   .     A
C340   H369    1.081   .     S
C340   C343    1.389   .     A
C340   C351    1.393   .     A
C341   C344    1.386   .     A
C342   O386    1.282   .     A
C342   O385    1.281   .     A
C342   C360    1.415   .     S
C343   C345    1.386   .     A
C344   C346    1.382   .     A
C344   H370    1.086   .     S
C345   H371    1.086   .     S
C345   C347    1.383   .     A
C346   C348    1.413   .     A
C346   C352    1.396   .     A
C347   C349    1.413   .     A
C347   C354    1.396   .     A
C348   C350    1.422   .     A
C348   C943    1.393   .     S
C349   C351    1.422   .     A
C349   C942    1.393   1_554 S
C350   C355    1.416   .     A
C351   C353    1.416   .     A
C352   H372    1.083   .     S
C352   C947    1.393   .     S
C353   S393    1.775   .     S
C353   C946    1.393   1_554 S
C354   H373    1.084   .     S
C354   C949    1.393   1_554 S
C355   S394    1.776   .     S
C355   C948    1.393   .     S
C356   H374    1.084   .     S
C357   H375    1.084   .     S
C357   C360    1.396   .     A
C357   C227    1.369   1_655 S
C358   C360    1.397   .     A
C358   H376    1.084   .     S
C358   C224    1.370   1_655 S
C359   H362    1.084   .     S
H367   O249    0.991   1_655 S
H368   O384    0.991   .     S
N377   Zn395   2.010   .     S
N378   Zn396   2.010   .     S
O379   Zn395   1.992   .     S
O380   S393    1.503   .     D
O381   S393    1.683   .     S
O382   S394    1.504   .     D
O383   S394    1.503   .     D
O384   S394    1.682   .     S
O385   Zn396   1.992   .     S
O386   Zn395   1.995   .     S
O387   Zn396   1.995   .     S
O388   Zn395   2.003   .     S
O389   Zn396   2.003   .     S
O390   Zn395   2.004   .     S
O391   Zn396   2.004   .     S
O392   S393    1.504   .     D
C397   O453    1.282   .     A
C397   C398    1.415   .     S
C397   O445    1.281   .     A
C398   C422    1.396   .     A
C398   C425    1.397   .     A
C399   H429    1.082   .     S
C399   N444    1.367   .     A
C400   H430    1.082   .     S
C400   N443    1.366   .     A
C400   C5      1.417   1_565 S
C401   H431    1.082   .     S
C401   N444    1.366   .     A
C402   H432    1.082   .     S
C402   N443    1.366   .     A
C402   C3      1.417   1_565 S
C403   O454    1.283   .     A
C403   C409    1.418   .     S
C403   O457    1.282   .     A
C404   O455    1.283   .     A
C404   O456    1.282   .     A
C404   C407    1.417   .     S
C405   C416    1.393   .     A
C405   H427    1.081   .     S
C405   C407    1.389   .     A
C406   H435    1.081   .     S
C406   C409    1.389   .     A
C406   C417    1.393   .     A
C407   C410    1.386   .     A
C408   O452    1.282   .     A
C408   O451    1.281   .     A
C408   C426    1.415   .     S
C409   C411    1.386   .     A
C410   C412    1.382   .     A
C410   H436    1.086   .     S
C411   H437    1.086   .     S
C411   C413    1.383   .     A
C412   C414    1.413   .     A
C412   C418    1.396   .     A
C413   C415    1.413   .     A
C413   C420    1.396   .     A
C414   C416    1.422   .     A
C414   C1009   1.393   .     S
C415   C417    1.422   .     A
C415   C1008   1.393   1_554 S
C416   C421    1.416   .     A
C417   C419    1.416   .     A
C418   H438    1.083   .     S
C418   C1013   1.393   .     S
C419   S459    1.775   .     S
C419   C1012   1.393   1_554 S
C420   H439    1.084   .     S
C420   C1015   1.393   1_554 S
C421   S460    1.776   .     S
C421   C1014   1.393   .     S
C422   H440    1.084   .     S
C422   C556    1.370   1_455 S
C423   H441    1.084   .     S
C423   C426    1.396   .     A
C423   C491    1.369   .     S
C424   C426    1.397   .     A
C424   H442    1.084   .     S
C424   C488    1.370   .     S
C425   H428    1.084   .     S
C425   C555    1.369   1_455 S
H433   O513    0.991   .     S
H434   O450    0.991   .     S
N443   Zn461   2.010   .     S
N444   Zn462   2.010   .     S
O445   Zn461   1.992   .     S
O446   S459    1.503   .     D
O447   S459    1.683   .     S
O447   H565    0.991   1_455 S
O448   S460    1.504   .     D
O449   S460    1.503   .     D
O450   S460    1.682   .     S
O451   Zn462   1.992   .     S
O452   Zn461   1.995   .     S
O453   Zn462   1.995   .     S
O454   Zn461   2.003   .     S
O455   Zn462   2.003   .     S
O456   Zn461   2.004   .     S
O457   Zn462   2.004   .     S
O458   S459    1.504   .     D
C463   O519    1.282   .     A
C463   C464    1.415   .     S
C463   O511    1.281   .     A
C464   C488    1.396   .     A
C464   C491    1.397   .     A
C465   H495    1.082   .     S
C465   N510    1.367   .     A
C466   H496    1.082   .     S
C466   N509    1.366   .     A
C466   C71     1.417   1_565 S
C467   H497    1.082   .     S
C467   N510    1.366   .     A
C468   H498    1.082   .     S
C468   N509    1.366   .     A
C468   C69     1.417   1_565 S
C469   O520    1.283   .     A
C469   C475    1.418   .     S
C469   O523    1.282   .     A
C470   O521    1.283   .     A
C470   O522    1.282   .     A
C470   C473    1.417   .     S
C471   C482    1.393   .     A
C471   H493    1.081   .     S
C471   C473    1.389   .     A
C472   H501    1.081   .     S
C472   C475    1.389   .     A
C472   C483    1.393   .     A
C473   C476    1.386   .     A
C474   O518    1.282   .     A
C474   O517    1.281   .     A
C474   C492    1.415   .     S
C475   C477    1.386   .     A
C476   C478    1.382   .     A
C476   H502    1.086   .     S
C477   H503    1.086   .     S
C477   C479    1.383   .     A
C478   C480    1.413   .     A
C478   C484    1.396   .     A
C479   C481    1.413   .     A
C479   C486    1.396   .     A
C480   C482    1.422   .     A
C480   C1075   1.393   .     S
C481   C483    1.422   .     A
C481   C1074   1.393   1_554 S
C482   C487    1.416   .     A
C483   C485    1.416   .     A
C484   H504    1.083   .     S
C484   C1079   1.393   .     S
C485   S525    1.775   .     S
C485   C1078   1.393   1_554 S
C486   H505    1.084   .     S
C486   C1081   1.393   1_554 S
C487   S526    1.776   .     S
C487   C1080   1.393   .     S
C488   H506    1.084   .     S
C489   H507    1.084   .     S
C489   C492    1.396   .     A
C489   C557    1.369   .     S
C490   C492    1.397   .     A
C490   H508    1.084   .     S
C490   C554    1.370   .     S
C491   H494    1.084   .     S
H499   O579    0.991   .     S
H500   O516    0.991   .     S
N509   Zn527   2.010   .     S
N510   Zn528   2.010   .     S
O511   Zn527   1.992   .     S
O512   S525    1.503   .     D
O513   S525    1.683   .     S
O514   S526    1.504   .     D
O515   S526    1.503   .     D
O516   S526    1.682   .     S
O517   Zn528   1.992   .     S
O518   Zn527   1.995   .     S
O519   Zn528   1.995   .     S
O520   Zn527   2.003   .     S
O521   Zn528   2.003   .     S
O522   Zn527   2.004   .     S
O523   Zn528   2.004   .     S
O524   S525    1.504   .     D
C529   O585    1.282   .     A
C529   C530    1.415   .     S
C529   O577    1.281   .     A
C530   C554    1.396   .     A
C530   C557    1.397   .     A
C531   H561    1.082   .     S
C531   N576    1.367   .     A
C532   H562    1.082   .     S
C532   N575    1.366   .     A
C532   C137    1.417   1_565 S
C533   H563    1.082   .     S
C533   N576    1.366   .     A
C534   H564    1.082   .     S
C534   N575    1.366   .     A
C534   C135    1.417   1_565 S
C535   O586    1.283   .     A
C535   C541    1.418   .     S
C535   O589    1.282   .     A
C536   O587    1.283   .     A
C536   O588    1.282   .     A
C536   C539    1.417   .     S
C537   C548    1.393   .     A
C537   H559    1.081   .     S
C537   C539    1.389   .     A
C538   H567    1.081   .     S
C538   C541    1.389   .     A
C538   C549    1.393   .     A
C539   C542    1.386   .     A
C540   O584    1.282   .     A
C540   O583    1.281   .     A
C540   C558    1.415   .     S
C541   C543    1.386   .     A
C542   C544    1.382   .     A
C542   H568    1.086   .     S
C543   H569    1.086   .     S
C543   C545    1.383   .     A
C544   C546    1.413   .     A
C544   C550    1.396   .     A
C545   C547    1.413   .     A
C545   C552    1.396   .     A
C546   C548    1.422   .     A
C546   C1141   1.393   .     S
C547   C549    1.422   .     A
C547   C1140   1.393   1_554 S
C548   C553    1.416   .     A
C549   C551    1.416   .     A
C550   H570    1.083   .     S
C550   C1145   1.393   .     S
C551   S591    1.775   .     S
C551   C1144   1.393   1_554 S
C552   H571    1.084   .     S
C552   C1147   1.393   1_554 S
C553   S592    1.776   .     S
C553   C1146   1.393   .     S
C554   H572    1.084   .     S
C555   H573    1.084   .     S
C555   C558    1.396   .     A
C555   C425    1.369   1_655 S
C556   C558    1.397   .     A
C556   H574    1.084   .     S
C556   C422    1.370   1_655 S
C557   H560    1.084   .     S
H565   O447    0.991   1_655 S
H566   O582    0.991   .     S
N575   Zn593   2.010   .     S
N576   Zn594   2.010   .     S
O577   Zn593   1.992   .     S
O578   S591    1.503   .     D
O579   S591    1.683   .     S
O580   S592    1.504   .     D
O581   S592    1.503   .     D
O582   S592    1.682   .     S
O583   Zn594   1.992   .     S
O584   Zn593   1.995   .     S
O585   Zn594   1.995   .     S
O586   Zn593   2.003   .     S
O587   Zn594   2.003   .     S
O588   Zn593   2.004   .     S
O589   Zn594   2.004   .     S
O590   S591    1.504   .     D
C595   O651    1.282   .     A
C595   C596    1.415   .     S
C595   O643    1.281   .     A
C596   C620    1.396   .     A
C596   C623    1.397   .     A
C597   H627    1.082   .     S
C597   N642    1.367   .     A
C597   C996    1.417   1_545 S
C598   H628    1.082   .     S
C598   N641    1.366   .     A
C598   C797    1.417   .     S
C599   H629    1.082   .     S
C599   N642    1.366   .     A
C599   C994    1.417   1_545 S
C600   H630    1.082   .     S
C600   N641    1.366   .     A
C600   C795    1.417   .     S
C601   O652    1.283   .     A
C601   C607    1.418   .     S
C601   O655    1.282   .     A
C602   O653    1.283   .     A
C602   O654    1.282   .     A
C602   C605    1.417   .     S
C603   C614    1.393   .     A
C603   H625    1.081   .     S
C603   C605    1.389   .     A
C604   H633    1.081   .     S
C604   C607    1.389   .     A
C604   C615    1.393   .     A
C605   C608    1.386   .     A
C606   O650    1.282   .     A
C606   O649    1.281   .     A
C606   C624    1.415   .     S
C607   C609    1.386   .     A
C608   C610    1.382   .     A
C608   H634    1.086   .     S
C609   H635    1.086   .     S
C609   C611    1.383   .     A
C610   C612    1.413   .     A
C610   C616    1.396   .     A
C611   C613    1.413   .     A
C611   C618    1.396   .     A
C612   C614    1.422   .     A
C612   C19     1.393   1_556 S
C613   C615    1.422   .     A
C614   C619    1.416   .     A
C615   C617    1.416   .     A
C616   H636    1.083   .     S
C616   C23     1.393   1_556 S
C617   S657    1.775   .     S
C618   H637    1.084   .     S
C619   S658    1.776   .     S
C619   C24     1.393   1_556 S
C620   H638    1.084   .     S
C620   C754    1.370   1_455 S
C621   H639    1.084   .     S
C621   C624    1.396   .     A
C621   C689    1.369   .     S
C622   C624    1.397   .     A
C622   H640    1.084   .     S
C622   C686    1.370   .     S
C623   H626    1.084   .     S
C623   C753    1.369   1_455 S
H631   O711    0.991   .     S
H632   O648    0.991   .     S
N641   Zn659   2.010   .     S
N642   Zn660   2.010   .     S
O643   Zn659   1.992   .     S
O644   S657    1.503   .     D
O645   S657    1.683   .     S
O645   H763    0.991   1_455 S
O646   S658    1.504   .     D
O647   S658    1.503   .     D
O648   S658    1.682   .     S
O649   Zn660   1.992   .     S
O650   Zn659   1.995   .     S
O651   Zn660   1.995   .     S
O652   Zn659   2.003   .     S
O653   Zn660   2.003   .     S
O654   Zn659   2.004   .     S
O655   Zn660   2.004   .     S
O656   S657    1.504   .     D
C661   O717    1.282   .     A
C661   C662    1.415   .     S
C661   O709    1.281   .     A
C662   C686    1.396   .     A
C662   C689    1.397   .     A
C663   H693    1.082   .     S
C663   N708    1.367   .     A
C663   C1062   1.417   1_545 S
C664   H694    1.082   .     S
C664   N707    1.366   .     A
C664   C863    1.417   .     S
C665   H695    1.082   .     S
C665   N708    1.366   .     A
C665   C1060   1.417   1_545 S
C666   H696    1.082   .     S
C666   N707    1.366   .     A
C666   C861    1.417   .     S
C667   O718    1.283   .     A
C667   C673    1.418   .     S
C667   O721    1.282   .     A
C668   O719    1.283   .     A
C668   O720    1.282   .     A
C668   C671    1.417   .     S
C669   C680    1.393   .     A
C669   H691    1.081   .     S
C669   C671    1.389   .     A
C670   H699    1.081   .     S
C670   C673    1.389   .     A
C670   C681    1.393   .     A
C671   C674    1.386   .     A
C672   O716    1.282   .     A
C672   O715    1.281   .     A
C672   C690    1.415   .     S
C673   C675    1.386   .     A
C674   C676    1.382   .     A
C674   H700    1.086   .     S
C675   H701    1.086   .     S
C675   C677    1.383   .     A
C676   C678    1.413   .     A
C676   C682    1.396   .     A
C677   C679    1.413   .     A
C677   C684    1.396   .     A
C678   C680    1.422   .     A
C678   C85     1.393   1_556 S
C679   C681    1.422   .     A
C680   C685    1.416   .     A
C681   C683    1.416   .     A
C682   H702    1.083   .     S
C682   C89     1.393   1_556 S
C683   S723    1.775   .     S
C684   H703    1.084   .     S
C685   S724    1.776   .     S
C685   C90     1.393   1_556 S
C686   H704    1.084   .     S
C687   H705    1.084   .     S
C687   C690    1.396   .     A
C687   C755    1.369   .     S
C688   C690    1.397   .     A
C688   H706    1.084   .     S
C688   C752    1.370   .     S
C689   H692    1.084   .     S
H697   O777    0.991   .     S
H698   O714    0.991   .     S
N707   Zn725   2.010   .     S
N708   Zn726   2.010   .     S
O709   Zn725   1.992   .     S
O710   S723    1.503   .     D
O711   S723    1.683   .     S
O712   S724    1.504   .     D
O713   S724    1.503   .     D
O714   S724    1.682   .     S
O715   Zn726   1.992   .     S
O716   Zn725   1.995   .     S
O717   Zn726   1.995   .     S
O718   Zn725   2.003   .     S
O719   Zn726   2.003   .     S
O720   Zn725   2.004   .     S
O721   Zn726   2.004   .     S
O722   S723    1.504   .     D
C727   O783    1.282   .     A
C727   C728    1.415   .     S
C727   O775    1.281   .     A
C728   C752    1.396   .     A
C728   C755    1.397   .     A
C729   H759    1.082   .     S
C729   N774    1.367   .     A
C729   C1128   1.417   1_545 S
C730   H760    1.082   .     S
C730   N773    1.366   .     A
C730   C929    1.417   .     S
C731   H761    1.082   .     S
C731   N774    1.366   .     A
C731   C1126   1.417   1_545 S
C732   H762    1.082   .     S
C732   N773    1.366   .     A
C732   C927    1.417   .     S
C733   O784    1.283   .     A
C733   C739    1.418   .     S
C733   O787    1.282   .     A
C734   O785    1.283   .     A
C734   O786    1.282   .     A
C734   C737    1.417   .     S
C735   C746    1.393   .     A
C735   H757    1.081   .     S
C735   C737    1.389   .     A
C736   H765    1.081   .     S
C736   C739    1.389   .     A
C736   C747    1.393   .     A
C737   C740    1.386   .     A
C738   O782    1.282   .     A
C738   O781    1.281   .     A
C738   C756    1.415   .     S
C739   C741    1.386   .     A
C740   C742    1.382   .     A
C740   H766    1.086   .     S
C741   H767    1.086   .     S
C741   C743    1.383   .     A
C742   C744    1.413   .     A
C742   C748    1.396   .     A
C743   C745    1.413   .     A
C743   C750    1.396   .     A
C744   C746    1.422   .     A
C744   C151    1.393   1_556 S
C745   C747    1.422   .     A
C746   C751    1.416   .     A
C747   C749    1.416   .     A
C748   H768    1.083   .     S
C748   C155    1.393   1_556 S
C749   S789    1.775   .     S
C750   H769    1.084   .     S
C751   S790    1.776   .     S
C751   C156    1.393   1_556 S
C752   H770    1.084   .     S
C753   H771    1.084   .     S
C753   C756    1.396   .     A
C753   C623    1.369   1_655 S
C754   C756    1.397   .     A
C754   H772    1.084   .     S
C754   C620    1.370   1_655 S
C755   H758    1.084   .     S
H763   O645    0.991   1_655 S
H764   O780    0.991   .     S
N773   Zn791   2.010   .     S
N774   Zn792   2.010   .     S
O775   Zn791   1.992   .     S
O776   S789    1.503   .     D
O777   S789    1.683   .     S
O778   S790    1.504   .     D
O779   S790    1.503   .     D
O780   S790    1.682   .     S
O781   Zn792   1.992   .     S
O782   Zn791   1.995   .     S
O783   Zn792   1.995   .     S
O784   Zn791   2.003   .     S
O785   Zn792   2.003   .     S
O786   Zn791   2.004   .     S
O787   Zn792   2.004   .     S
O788   S789    1.504   .     D
C793   O849    1.282   .     A
C793   C794    1.415   .     S
C793   O841    1.281   .     A
C794   C818    1.396   .     A
C794   C821    1.397   .     A
C795   H825    1.082   .     S
C795   N840    1.367   .     A
C796   H826    1.082   .     S
C796   N839    1.366   .     A
C796   C995    1.417   .     S
C797   H827    1.082   .     S
C797   N840    1.366   .     A
C798   H828    1.082   .     S
C798   N839    1.366   .     A
C798   C993    1.417   .     S
C799   O850    1.283   .     A
C799   C805    1.418   .     S
C799   O853    1.282   .     A
C800   O851    1.283   .     A
C800   O852    1.282   .     A
C800   C803    1.417   .     S
C801   C812    1.393   .     A
C801   H823    1.081   .     S
C801   C803    1.389   .     A
C802   H831    1.081   .     S
C802   C805    1.389   .     A
C802   C813    1.393   .     A
C803   C806    1.386   .     A
C804   O848    1.282   .     A
C804   O847    1.281   .     A
C804   C822    1.415   .     S
C805   C807    1.386   .     A
C806   C808    1.382   .     A
C806   H832    1.086   .     S
C807   H833    1.086   .     S
C807   C809    1.383   .     A
C808   C810    1.413   .     A
C808   C814    1.396   .     A
C809   C811    1.413   .     A
C809   C816    1.396   .     A
C810   C812    1.422   .     A
C810   C217    1.393   1_556 S
C811   C813    1.422   .     A
C812   C817    1.416   .     A
C813   C815    1.416   .     A
C814   H834    1.083   .     S
C814   C221    1.393   1_556 S
C815   S855    1.775   .     S
C816   H835    1.084   .     S
C817   S856    1.776   .     S
C817   C222    1.393   1_556 S
C818   H836    1.084   .     S
C818   C952    1.370   1_455 S
C819   H837    1.084   .     S
C819   C822    1.396   .     A
C819   C887    1.369   .     S
C820   C822    1.397   .     A
C820   H838    1.084   .     S
C820   C884    1.370   .     S
C821   H824    1.084   .     S
C821   C951    1.369   1_455 S
H829   O909    0.991   .     S
H830   O846    0.991   .     S
N839   Zn857   2.010   .     S
N840   Zn858   2.010   .     S
O841   Zn857   1.992   .     S
O842   S855    1.503   .     D
O843   S855    1.683   .     S
O843   H961    0.991   1_455 S
O844   S856    1.504   .     D
O845   S856    1.503   .     D
O846   S856    1.682   .     S
O847   Zn858   1.992   .     S
O848   Zn857   1.995   .     S
O849   Zn858   1.995   .     S
O850   Zn857   2.003   .     S
O851   Zn858   2.003   .     S
O852   Zn857   2.004   .     S
O853   Zn858   2.004   .     S
O854   S855    1.504   .     D
C859   O915    1.282   .     A
C859   C860    1.415   .     S
C859   O907    1.281   .     A
C860   C884    1.396   .     A
C860   C887    1.397   .     A
C861   H891    1.082   .     S
C861   N906    1.367   .     A
C862   H892    1.082   .     S
C862   N905    1.366   .     A
C862   C1061   1.417   .     S
C863   H893    1.082   .     S
C863   N906    1.366   .     A
C864   H894    1.082   .     S
C864   N905    1.366   .     A
C864   C1059   1.417   .     S
C865   O916    1.283   .     A
C865   C871    1.418   .     S
C865   O919    1.282   .     A
C866   O917    1.283   .     A
C866   O918    1.282   .     A
C866   C869    1.417   .     S
C867   C878    1.393   .     A
C867   H889    1.081   .     S
C867   C869    1.389   .     A
C868   H897    1.081   .     S
C868   C871    1.389   .     A
C868   C879    1.393   .     A
C869   C872    1.386   .     A
C870   O914    1.282   .     A
C870   O913    1.281   .     A
C870   C888    1.415   .     S
C871   C873    1.386   .     A
C872   C874    1.382   .     A
C872   H898    1.086   .     S
C873   H899    1.086   .     S
C873   C875    1.383   .     A
C874   C876    1.413   .     A
C874   C880    1.396   .     A
C875   C877    1.413   .     A
C875   C882    1.396   .     A
C876   C878    1.422   .     A
C876   C283    1.393   1_556 S
C877   C879    1.422   .     A
C878   C883    1.416   .     A
C879   C881    1.416   .     A
C880   H900    1.083   .     S
C880   C287    1.393   1_556 S
C881   S921    1.775   .     S
C882   H901    1.084   .     S
C883   S922    1.776   .     S
C883   C288    1.393   1_556 S
C884   H902    1.084   .     S
C885   H903    1.084   .     S
C885   C888    1.396   .     A
C885   C953    1.369   .     S
C886   C888    1.397   .     A
C886   H904    1.084   .     S
C886   C950    1.370   .     S
C887   H890    1.084   .     S
H895   O975    0.991   .     S
H896   O912    0.991   .     S
N905   Zn923   2.010   .     S
N906   Zn924   2.010   .     S
O907   Zn923   1.992   .     S
O908   S921    1.503   .     D
O909   S921    1.683   .     S
O910   S922    1.504   .     D
O911   S922    1.503   .     D
O912   S922    1.682   .     S
O913   Zn924   1.992   .     S
O914   Zn923   1.995   .     S
O915   Zn924   1.995   .     S
O916   Zn923   2.003   .     S
O917   Zn924   2.003   .     S
O918   Zn923   2.004   .     S
O919   Zn924   2.004   .     S
O920   S921    1.504   .     D
C925   O981    1.282   .     A
C925   C926    1.415   .     S
C925   O973    1.281   .     A
C926   C950    1.396   .     A
C926   C953    1.397   .     A
C927   H957    1.082   .     S
C927   N972    1.367   .     A
C928   H958    1.082   .     S
C928   N971    1.366   .     A
C928   C1127   1.417   .     S
C929   H959    1.082   .     S
C929   N972    1.366   .     A
C930   H960    1.082   .     S
C930   N971    1.366   .     A
C930   C1125   1.417   .     S
C931   O982    1.283   .     A
C931   C937    1.418   .     S
C931   O985    1.282   .     A
C932   O983    1.283   .     A
C932   O984    1.282   .     A
C932   C935    1.417   .     S
C933   C944    1.393   .     A
C933   H955    1.081   .     S
C933   C935    1.389   .     A
C934   H963    1.081   .     S
C934   C937    1.389   .     A
C934   C945    1.393   .     A
C935   C938    1.386   .     A
C936   O980    1.282   .     A
C936   O979    1.281   .     A
C936   C954    1.415   .     S
C937   C939    1.386   .     A
C938   C940    1.382   .     A
C938   H964    1.086   .     S
C939   H965    1.086   .     S
C939   C941    1.383   .     A
C940   C942    1.413   .     A
C940   C946    1.396   .     A
C941   C943    1.413   .     A
C941   C948    1.396   .     A
C942   C944    1.422   .     A
C942   C349    1.393   1_556 S
C943   C945    1.422   .     A
C944   C949    1.416   .     A
C945   C947    1.416   .     A
C946   H966    1.083   .     S
C946   C353    1.393   1_556 S
C947   S987    1.775   .     S
C948   H967    1.084   .     S
C949   S988    1.776   .     S
C949   C354    1.393   1_556 S
C950   H968    1.084   .     S
C951   H969    1.084   .     S
C951   C954    1.396   .     A
C951   C821    1.369   1_655 S
C952   C954    1.397   .     A
C952   H970    1.084   .     S
C952   C818    1.370   1_655 S
C953   H956    1.084   .     S
H961   O843    0.991   1_655 S
H962   O978    0.991   .     S
N971   Zn989   2.010   .     S
N972   Zn990   2.010   .     S
O973   Zn989   1.992   .     S
O974   S987    1.503   .     D
O975   S987    1.683   .     S
O976   S988    1.504   .     D
O977   S988    1.503   .     D
O978   S988    1.682   .     S
O979   Zn990   1.992   .     S
O980   Zn989   1.995   .     S
O981   Zn990   1.995   .     S
O982   Zn989   2.003   .     S
O983   Zn990   2.003   .     S
O984   Zn989   2.004   .     S
O985   Zn990   2.004   .     S
O986   S987    1.504   .     D
C991   O1047   1.282   .     A
C991   C992    1.415   .     S
C991   O1039   1.281   .     A
C992   C1016   1.396   .     A
C992   C1019   1.397   .     A
C993   H1023   1.082   .     S
C993   N1038   1.367   .     A
C994   H1024   1.082   .     S
C994   N1037   1.366   .     A
C994   C599    1.417   1_565 S
C995   H1025   1.082   .     S
C995   N1038   1.366   .     A
C996   H1026   1.082   .     S
C996   N1037   1.366   .     A
C996   C597    1.417   1_565 S
C997   O1048   1.283   .     A
C997   C1003   1.418   .     S
C997   O1051   1.282   .     A
C998   O1049   1.283   .     A
C998   O1050   1.282   .     A
C998   C1001   1.417   .     S
C999   C1010   1.393   .     A
C999   H1021   1.081   .     S
C999   C1001   1.389   .     A
C1000  H1029   1.081   .     S
C1000  C1003   1.389   .     A
C1000  C1011   1.393   .     A
C1001  C1004   1.386   .     A
C1002  O1046   1.282   .     A
C1002  O1045   1.281   .     A
C1002  C1020   1.415   .     S
C1003  C1005   1.386   .     A
C1004  C1006   1.382   .     A
C1004  H1030   1.086   .     S
C1005  H1031   1.086   .     S
C1005  C1007   1.383   .     A
C1006  C1008   1.413   .     A
C1006  C1012   1.396   .     A
C1007  C1009   1.413   .     A
C1007  C1014   1.396   .     A
C1008  C1010   1.422   .     A
C1008  C415    1.393   1_556 S
C1009  C1011   1.422   .     A
C1010  C1015   1.416   .     A
C1011  C1013   1.416   .     A
C1012  H1032   1.083   .     S
C1012  C419    1.393   1_556 S
C1013  S1053   1.775   .     S
C1014  H1033   1.084   .     S
C1015  S1054   1.776   .     S
C1015  C420    1.393   1_556 S
C1016  H1034   1.084   .     S
C1016  C1150   1.370   1_455 S
C1017  H1035   1.084   .     S
C1017  C1020   1.396   .     A
C1017  C1085   1.369   .     S
C1018  C1020   1.397   .     A
C1018  H1036   1.084   .     S
C1018  C1082   1.370   .     S
C1019  H1022   1.084   .     S
C1019  C1149   1.369   1_455 S
H1027  O1107   0.991   .     S
H1028  O1044   0.991   .     S
N1037  Zn1055  2.010   .     S
N1038  Zn1056  2.010   .     S
O1039  Zn1055  1.992   .     S
O1040  S1053   1.503   .     D
O1041  S1053   1.683   .     S
O1041  H1159   0.991   1_455 S
O1042  S1054   1.504   .     D
O1043  S1054   1.503   .     D
O1044  S1054   1.682   .     S
O1045  Zn1056  1.992   .     S
O1046  Zn1055  1.995   .     S
O1047  Zn1056  1.995   .     S
O1048  Zn1055  2.003   .     S
O1049  Zn1056  2.003   .     S
O1050  Zn1055  2.004   .     S
O1051  Zn1056  2.004   .     S
O1052  S1053   1.504   .     D
C1057  O1113   1.282   .     A
C1057  C1058   1.415   .     S
C1057  O1105   1.281   .     A
C1058  C1082   1.396   .     A
C1058  C1085   1.397   .     A
C1059  H1089   1.082   .     S
C1059  N1104   1.367   .     A
C1060  H1090   1.082   .     S
C1060  N1103   1.366   .     A
C1060  C665    1.417   1_565 S
C1061  H1091   1.082   .     S
C1061  N1104   1.366   .     A
C1062  H1092   1.082   .     S
C1062  N1103   1.366   .     A
C1062  C663    1.417   1_565 S
C1063  O1114   1.283   .     A
C1063  C1069   1.418   .     S
C1063  O1117   1.282   .     A
C1064  O1115   1.283   .     A
C1064  O1116   1.282   .     A
C1064  C1067   1.417   .     S
C1065  C1076   1.393   .     A
C1065  H1087   1.081   .     S
C1065  C1067   1.389   .     A
C1066  H1095   1.081   .     S
C1066  C1069   1.389   .     A
C1066  C1077   1.393   .     A
C1067  C1070   1.386   .     A
C1068  O1112   1.282   .     A
C1068  O1111   1.281   .     A
C1068  C1086   1.415   .     S
C1069  C1071   1.386   .     A
C1070  C1072   1.382   .     A
C1070  H1096   1.086   .     S
C1071  H1097   1.086   .     S
C1071  C1073   1.383   .     A
C1072  C1074   1.413   .     A
C1072  C1078   1.396   .     A
C1073  C1075   1.413   .     A
C1073  C1080   1.396   .     A
C1074  C1076   1.422   .     A
C1074  C481    1.393   1_556 S
C1075  C1077   1.422   .     A
C1076  C1081   1.416   .     A
C1077  C1079   1.416   .     A
C1078  H1098   1.083   .     S
C1078  C485    1.393   1_556 S
C1079  S1119   1.775   .     S
C1080  H1099   1.084   .     S
C1081  S1120   1.776   .     S
C1081  C486    1.393   1_556 S
C1082  H1100   1.084   .     S
C1083  H1101   1.084   .     S
C1083  C1086   1.396   .     A
C1083  C1151   1.369   .     S
C1084  C1086   1.397   .     A
C1084  H1102   1.084   .     S
C1084  C1148   1.370   .     S
C1085  H1088   1.084   .     S
H1093  O1173   0.991   .     S
H1094  O1110   0.991   .     S
N1103  Zn1121  2.010   .     S
N1104  Zn1122  2.010   .     S
O1105  Zn1121  1.992   .     S
O1106  S1119   1.503   .     D
O1107  S1119   1.683   .     S
O1108  S1120   1.504   .     D
O1109  S1120   1.503   .     D
O1110  S1120   1.682   .     S
O1111  Zn1122  1.992   .     S
O1112  Zn1121  1.995   .     S
O1113  Zn1122  1.995   .     S
O1114  Zn1121  2.003   .     S
O1115  Zn1122  2.003   .     S
O1116  Zn1121  2.004   .     S
O1117  Zn1122  2.004   .     S
O1118  S1119   1.504   .     D
C1123  O1179   1.282   .     A
C1123  C1124   1.415   .     S
C1123  O1171   1.281   .     A
C1124  C1148   1.396   .     A
C1124  C1151   1.397   .     A
C1125  H1155   1.082   .     S
C1125  N1170   1.367   .     A
C1126  H1156   1.082   .     S
C1126  N1169   1.366   .     A
C1126  C731    1.417   1_565 S
C1127  H1157   1.082   .     S
C1127  N1170   1.366   .     A
C1128  H1158   1.082   .     S
C1128  N1169   1.366   .     A
C1128  C729    1.417   1_565 S
C1129  O1180   1.283   .     A
C1129  C1135   1.418   .     S
C1129  O1183   1.282   .     A
C1130  O1181   1.283   .     A
C1130  O1182   1.282   .     A
C1130  C1133   1.417   .     S
C1131  C1142   1.393   .     A
C1131  H1153   1.081   .     S
C1131  C1133   1.389   .     A
C1132  H1161   1.081   .     S
C1132  C1135   1.389   .     A
C1132  C1143   1.393   .     A
C1133  C1136   1.386   .     A
C1134  O1178   1.282   .     A
C1134  O1177   1.281   .     A
C1134  C1152   1.415   .     S
C1135  C1137   1.386   .     A
C1136  C1138   1.382   .     A
C1136  H1162   1.086   .     S
C1137  H1163   1.086   .     S
C1137  C1139   1.383   .     A
C1138  C1140   1.413   .     A
C1138  C1144   1.396   .     A
C1139  C1141   1.413   .     A
C1139  C1146   1.396   .     A
C1140  C1142   1.422   .     A
C1140  C547    1.393   1_556 S
C1141  C1143   1.422   .     A
C1142  C1147   1.416   .     A
C1143  C1145   1.416   .     A
C1144  H1164   1.083   .     S
C1144  C551    1.393   1_556 S
C1145  S1185   1.775   .     S
C1146  H1165   1.084   .     S
C1147  S1186   1.776   .     S
C1147  C552    1.393   1_556 S
C1148  H1166   1.084   .     S
C1149  H1167   1.084   .     S
C1149  C1152   1.396   .     A
C1149  C1019   1.369   1_655 S
C1150  C1152   1.397   .     A
C1150  H1168   1.084   .     S
C1150  C1016   1.370   1_655 S
C1151  H1154   1.084   .     S
H1159  O1041   0.991   1_655 S
H1160  O1176   0.991   .     S
N1169  Zn1187  2.010   .     S
N1170  Zn1188  2.010   .     S
O1171  Zn1187  1.992   .     S
O1172  S1185   1.503   .     D
O1173  S1185   1.683   .     S
O1174  S1186   1.504   .     D
O1175  S1186   1.503   .     D
O1176  S1186   1.682   .     S
O1177  Zn1188  1.992   .     S
O1178  Zn1187  1.995   .     S
O1179  Zn1188  1.995   .     S
O1180  Zn1187  2.003   .     S
O1181  Zn1188  2.003   .     S
O1182  Zn1187  2.004   .     S
O1183  Zn1188  2.004   .     S
O1184  S1185   1.504   .     D
