data_str_m3_o1_o2_pcu_sym.135
_audit_creation_date              2020-01-03
_audit_creation_method            'Materials Studio'
_symmetry_space_group_name_H-M    'P1'
_symmetry_Int_Tables_number       1
_symmetry_cell_setting            triclinic
loop_
_symmetry_equiv_pos_as_xyz
  x,y,z
_cell_length_a                    31.8536
_cell_length_b                    30.0328
_cell_length_c                    29.9015
_cell_angle_alpha                 89.9984
_cell_angle_beta                  93.1605
_cell_angle_gamma                 90.0027
loop_
_atom_site_label
_atom_site_type_symbol
_atom_site_fract_x
_atom_site_fract_y
_atom_site_fract_z
_atom_site_U_iso_or_equiv
_atom_site_adp_type
_atom_site_occupancy
C1     C     0.08648   0.16668   0.24401   0.00000  Uiso   1.00
C2     C     0.24685   0.16669   0.25599   0.00000  Uiso   1.00
C3     C     0.16621   0.16685   0.16423   0.00000  Uiso   1.00
C4     C     0.16712   0.16685   0.33578   0.00000  Uiso   1.00
C5     C     0.18375   0.02348   0.28563   0.00000  Uiso   1.00
C6     C     0.14928   0.30953   0.21451   0.00000  Uiso   1.00
C7     C     0.14958   0.02348   0.21437   0.00000  Uiso   1.00
C8     C     0.18406   0.30953   0.28549   0.00000  Uiso   1.00
C9     C     0.01889   0.12613   0.23941   0.00000  Uiso   1.00
C10    C     0.31435   0.20736   0.26035   0.00000  Uiso   1.00
C11    C     0.31444   0.12613   0.26062   0.00000  Uiso   1.00
C12    C     0.01898   0.20735   0.23961   0.00000  Uiso   1.00
C13    C     0.19774   0.19434   0.04979   0.00000  Uiso   1.00
C14    C     0.19945   0.14870   0.45560   0.00000  Uiso   1.00
C15    C     0.13560   0.19434   0.45021   0.00000  Uiso   1.00
C16    C     0.13388   0.14871   0.04440   0.00000  Uiso   1.00
C17    C     0.19891   0.19071   0.09616   0.00000  Uiso   1.00
C18    C     0.20096   0.14976   0.40935   0.00000  Uiso   1.00
C19    C     0.13443   0.19071   0.40384   0.00000  Uiso   1.00
C20    C     0.13237   0.14976   0.09065   0.00000  Uiso   1.00
C21    C     0.16627   0.16810   0.11632   0.00000  Uiso   1.00
C22    C     0.16707   0.16809   0.38368   0.00000  Uiso   1.00
C23    C     0.16621   0.17168   0.02414   0.00000  Uiso   1.00
C24    C     0.16713   0.17168   0.47586   0.00000  Uiso   1.00
C25    C     0.29255   0.16671   0.26324   0.00000  Uiso   1.00
C26    C     0.04078   0.16670   0.23676   0.00000  Uiso   1.00
N27    N     0.16667   0.28573   0.25000   0.00000  Uiso   1.00
N28    N     0.16667   0.04760   0.25000   0.00000  Uiso   1.00
O29    O     0.10559   0.20487   0.25000   0.00000  Uiso   1.00
O30    O     0.22774   0.12846   0.25001   0.00000  Uiso   1.00
O31    O     0.22774   0.20487   0.25001   0.00000  Uiso   1.00
O32    O     0.10559   0.12846   0.25000   0.00000  Uiso   1.00
O33    O     0.16666   0.20489   0.18453   0.00000  Uiso   1.00
O34    O     0.16667   0.12845   0.31547   0.00000  Uiso   1.00
O35    O     0.16667   0.20489   0.31547   0.00000  Uiso   1.00
O36    O     0.16666   0.12845   0.18453   0.00000  Uiso   1.00
Zn37   Zn    0.16667   0.21771   0.25000   0.00000  Uiso   1.00
Zn38   Zn    0.16667   0.11563   0.25000   0.00000  Uiso   1.00
Cl39   Cl    0.20562   0.04975   0.33353   0.00000  Uiso   1.00
Cl40   Cl    0.12595   0.28227   0.16752   0.00000  Uiso   1.00
Cl41   Cl    0.12771   0.04975   0.16648   0.00000  Uiso   1.00
Cl42   Cl    0.20740   0.28226   0.33247   0.00000  Uiso   1.00
Cl43   Cl    0.23560   0.22735   0.02395   0.00000  Uiso   1.00
Cl44   Cl    0.23801   0.11836   0.48787   0.00000  Uiso   1.00
Cl45   Cl    0.09776   0.22737   0.47605   0.00000  Uiso   1.00
Cl46   Cl    0.09532   0.11837   0.01213   0.00000  Uiso   1.00
Cl47   Cl    0.24137   0.21440   0.12875   0.00000  Uiso   1.00
Cl48   Cl    0.24750   0.13304   0.38463   0.00000  Uiso   1.00
Cl49   Cl    0.09197   0.21441   0.37126   0.00000  Uiso   1.00
Cl50   Cl    0.08584   0.13303   0.11537   0.00000  Uiso   1.00
C51    C     0.03203   0.08492   0.21414   0.00000  Uiso   1.00
C52    C     0.00009   0.07350   0.17576   0.00000  Uiso   1.00
H53    H     0.32982   0.10207   0.15224   0.00000  Uiso   1.00
H54    H     0.01137   0.04424   0.15714   0.00000  Uiso   1.00
H55    H     0.30221   0.06529   0.18821   0.00000  Uiso   1.00
H56    H     0.03670   0.05587   0.23675   0.00000  Uiso   1.00
H57    H     0.06170   0.09091   0.19802   0.00000  Uiso   1.00
C58    C     0.30246   0.24817   0.28710   0.00000  Uiso   1.00
C59    C     0.29999   0.23654   0.33664   0.00000  Uiso   1.00
H60    H     0.32930   0.21967   0.34934   0.00000  Uiso   1.00
H61    H     0.27286   0.21429   0.34156   0.00000  Uiso   1.00
H62    H     0.29615   0.26740   0.35645   0.00000  Uiso   1.00
H63    H     0.32683   0.27452   0.28588   0.00000  Uiso   1.00
H64    H     0.27290   0.26354   0.27351   0.00000  Uiso   1.00
C65    C     0.30130   0.08494   0.28591   0.00000  Uiso   1.00
C66    C     0.33324   0.07355   0.32430   0.00000  Uiso   1.00
H67    H     0.00350   0.10213   0.34780   0.00000  Uiso   1.00
H68    H     0.32195   0.04430   0.34294   0.00000  Uiso   1.00
H69    H     0.03112   0.06534   0.31186   0.00000  Uiso   1.00
H70    H     0.29663   0.05588   0.26332   0.00000  Uiso   1.00
H71    H     0.27163   0.09094   0.30202   0.00000  Uiso   1.00
C72    C     0.03087   0.24814   0.21283   0.00000  Uiso   1.00
C73    C     0.03339   0.23647   0.16330   0.00000  Uiso   1.00
H74    H     0.06055   0.21425   0.15844   0.00000  Uiso   1.00
H75    H     0.03722   0.26732   0.14347   0.00000  Uiso   1.00
H76    H     0.00410   0.21956   0.15060   0.00000  Uiso   1.00
H77    H     0.00649   0.27448   0.21401   0.00000  Uiso   1.00
H78    H     0.06042   0.26353   0.22644   0.00000  Uiso   1.00
C79    C     0.41981   0.16668   0.24401   0.00000  Uiso   1.00
C80    C     0.58019   0.16669   0.25599   0.00000  Uiso   1.00
C81    C     0.49954   0.16685   0.16423   0.00000  Uiso   1.00
C82    C     0.50046   0.16685   0.33578   0.00000  Uiso   1.00
C83    C     0.51708   0.02348   0.28563   0.00000  Uiso   1.00
C84    C     0.48261   0.30953   0.21451   0.00000  Uiso   1.00
C85    C     0.48292   0.02348   0.21437   0.00000  Uiso   1.00
C86    C     0.51739   0.30953   0.28549   0.00000  Uiso   1.00
C87    C     0.35223   0.12613   0.23941   0.00000  Uiso   1.00
C88    C     0.64768   0.20736   0.26035   0.00000  Uiso   1.00
C89    C     0.64777   0.12613   0.26062   0.00000  Uiso   1.00
C90    C     0.35232   0.20735   0.23961   0.00000  Uiso   1.00
C91    C     0.53107   0.19434   0.04979   0.00000  Uiso   1.00
C92    C     0.53279   0.14870   0.45560   0.00000  Uiso   1.00
C93    C     0.46894   0.19434   0.45021   0.00000  Uiso   1.00
C94    C     0.46721   0.14871   0.04440   0.00000  Uiso   1.00
C95    C     0.53224   0.19071   0.09616   0.00000  Uiso   1.00
C96    C     0.53430   0.14976   0.40935   0.00000  Uiso   1.00
C97    C     0.46776   0.19071   0.40384   0.00000  Uiso   1.00
C98    C     0.46570   0.14976   0.09065   0.00000  Uiso   1.00
C99    C     0.49960   0.16810   0.11632   0.00000  Uiso   1.00
C100   C     0.50040   0.16809   0.38368   0.00000  Uiso   1.00
C101   C     0.49954   0.17168   0.02414   0.00000  Uiso   1.00
C102   C     0.50047   0.17168   0.47586   0.00000  Uiso   1.00
C103   C     0.62589   0.16671   0.26324   0.00000  Uiso   1.00
C104   C     0.37411   0.16670   0.23676   0.00000  Uiso   1.00
N105   N     0.50000   0.28573   0.25000   0.00000  Uiso   1.00
N106   N     0.50000   0.04760   0.25000   0.00000  Uiso   1.00
O107   O     0.43892   0.20487   0.25000   0.00000  Uiso   1.00
O108   O     0.56108   0.12846   0.25001   0.00000  Uiso   1.00
O109   O     0.56108   0.20487   0.25001   0.00000  Uiso   1.00
O110   O     0.43892   0.12846   0.25000   0.00000  Uiso   1.00
O111   O     0.50000   0.20489   0.18453   0.00000  Uiso   1.00
O112   O     0.50000   0.12845   0.31547   0.00000  Uiso   1.00
O113   O     0.50000   0.20489   0.31547   0.00000  Uiso   1.00
O114   O     0.50000   0.12845   0.18453   0.00000  Uiso   1.00
Zn115  Zn    0.50000   0.21771   0.25000   0.00000  Uiso   1.00
Zn116  Zn    0.50000   0.11563   0.25000   0.00000  Uiso   1.00
Cl117  Cl    0.53895   0.04975   0.33353   0.00000  Uiso   1.00
Cl118  Cl    0.45929   0.28227   0.16752   0.00000  Uiso   1.00
Cl119  Cl    0.46104   0.04975   0.16648   0.00000  Uiso   1.00
Cl120  Cl    0.54074   0.28226   0.33247   0.00000  Uiso   1.00
Cl121  Cl    0.56893   0.22735   0.02395   0.00000  Uiso   1.00
Cl122  Cl    0.57134   0.11836   0.48787   0.00000  Uiso   1.00
Cl123  Cl    0.43109   0.22737   0.47605   0.00000  Uiso   1.00
Cl124  Cl    0.42865   0.11837   0.01213   0.00000  Uiso   1.00
Cl125  Cl    0.57471   0.21440   0.12875   0.00000  Uiso   1.00
Cl126  Cl    0.58083   0.13304   0.38463   0.00000  Uiso   1.00
Cl127  Cl    0.42530   0.21441   0.37126   0.00000  Uiso   1.00
Cl128  Cl    0.41917   0.13303   0.11537   0.00000  Uiso   1.00
C129   C     0.36537   0.08492   0.21414   0.00000  Uiso   1.00
C130   C     0.33342   0.07350   0.17576   0.00000  Uiso   1.00
H131   H     0.66315   0.10207   0.15224   0.00000  Uiso   1.00
H132   H     0.34471   0.04424   0.15714   0.00000  Uiso   1.00
H133   H     0.63554   0.06529   0.18821   0.00000  Uiso   1.00
H134   H     0.37004   0.05587   0.23675   0.00000  Uiso   1.00
H135   H     0.39503   0.09091   0.19802   0.00000  Uiso   1.00
C136   C     0.63580   0.24817   0.28710   0.00000  Uiso   1.00
C137   C     0.63333   0.23654   0.33664   0.00000  Uiso   1.00
H138   H     0.66264   0.21967   0.34934   0.00000  Uiso   1.00
H139   H     0.60619   0.21429   0.34156   0.00000  Uiso   1.00
H140   H     0.62948   0.26740   0.35645   0.00000  Uiso   1.00
H141   H     0.66017   0.27452   0.28588   0.00000  Uiso   1.00
H142   H     0.60623   0.26354   0.27351   0.00000  Uiso   1.00
C143   C     0.63463   0.08494   0.28591   0.00000  Uiso   1.00
C144   C     0.66657   0.07355   0.32430   0.00000  Uiso   1.00
H145   H     0.33683   0.10213   0.34780   0.00000  Uiso   1.00
H146   H     0.65529   0.04430   0.34294   0.00000  Uiso   1.00
H147   H     0.36445   0.06534   0.31186   0.00000  Uiso   1.00
H148   H     0.62996   0.05588   0.26332   0.00000  Uiso   1.00
H149   H     0.60496   0.09094   0.30202   0.00000  Uiso   1.00
C150   C     0.36421   0.24814   0.21283   0.00000  Uiso   1.00
C151   C     0.36672   0.23647   0.16330   0.00000  Uiso   1.00
H152   H     0.39388   0.21425   0.15844   0.00000  Uiso   1.00
H153   H     0.37055   0.26732   0.14347   0.00000  Uiso   1.00
H154   H     0.33743   0.21956   0.15060   0.00000  Uiso   1.00
H155   H     0.33982   0.27448   0.21401   0.00000  Uiso   1.00
H156   H     0.39376   0.26353   0.22644   0.00000  Uiso   1.00
C157   C     0.75314   0.16668   0.24401   0.00000  Uiso   1.00
C158   C     0.91352   0.16669   0.25599   0.00000  Uiso   1.00
C159   C     0.83288   0.16685   0.16423   0.00000  Uiso   1.00
C160   C     0.83379   0.16685   0.33578   0.00000  Uiso   1.00
C161   C     0.85042   0.02348   0.28563   0.00000  Uiso   1.00
C162   C     0.81595   0.30953   0.21451   0.00000  Uiso   1.00
C163   C     0.81625   0.02348   0.21437   0.00000  Uiso   1.00
C164   C     0.85072   0.30953   0.28549   0.00000  Uiso   1.00
C165   C     0.68556   0.12613   0.23941   0.00000  Uiso   1.00
C166   C     0.98102   0.20736   0.26035   0.00000  Uiso   1.00
C167   C     0.98110   0.12613   0.26062   0.00000  Uiso   1.00
C168   C     0.68565   0.20735   0.23961   0.00000  Uiso   1.00
C169   C     0.86441   0.19434   0.04979   0.00000  Uiso   1.00
C170   C     0.86612   0.14870   0.45560   0.00000  Uiso   1.00
C171   C     0.80227   0.19434   0.45021   0.00000  Uiso   1.00
C172   C     0.80055   0.14871   0.04440   0.00000  Uiso   1.00
C173   C     0.86558   0.19071   0.09616   0.00000  Uiso   1.00
C174   C     0.86763   0.14976   0.40935   0.00000  Uiso   1.00
C175   C     0.80110   0.19071   0.40384   0.00000  Uiso   1.00
C176   C     0.79904   0.14976   0.09065   0.00000  Uiso   1.00
C177   C     0.83293   0.16810   0.11632   0.00000  Uiso   1.00
C178   C     0.83374   0.16809   0.38368   0.00000  Uiso   1.00
C179   C     0.83288   0.17168   0.02414   0.00000  Uiso   1.00
C180   C     0.83380   0.17168   0.47586   0.00000  Uiso   1.00
C181   C     0.95922   0.16671   0.26324   0.00000  Uiso   1.00
C182   C     0.70745   0.16670   0.23676   0.00000  Uiso   1.00
N183   N     0.83333   0.28573   0.25000   0.00000  Uiso   1.00
N184   N     0.83333   0.04760   0.25000   0.00000  Uiso   1.00
O185   O     0.77226   0.20487   0.25000   0.00000  Uiso   1.00
O186   O     0.89441   0.12846   0.25001   0.00000  Uiso   1.00
O187   O     0.89441   0.20487   0.25001   0.00000  Uiso   1.00
O188   O     0.77226   0.12846   0.25000   0.00000  Uiso   1.00
O189   O     0.83333   0.20489   0.18453   0.00000  Uiso   1.00
O190   O     0.83334   0.12845   0.31547   0.00000  Uiso   1.00
O191   O     0.83334   0.20489   0.31547   0.00000  Uiso   1.00
O192   O     0.83333   0.12845   0.18453   0.00000  Uiso   1.00
Zn193  Zn    0.83333   0.21771   0.25000   0.00000  Uiso   1.00
Zn194  Zn    0.83333   0.11563   0.25000   0.00000  Uiso   1.00
Cl195  Cl    0.87228   0.04975   0.33353   0.00000  Uiso   1.00
Cl196  Cl    0.79262   0.28227   0.16752   0.00000  Uiso   1.00
Cl197  Cl    0.79437   0.04975   0.16648   0.00000  Uiso   1.00
Cl198  Cl    0.87407   0.28226   0.33247   0.00000  Uiso   1.00
Cl199  Cl    0.90227   0.22735   0.02395   0.00000  Uiso   1.00
Cl200  Cl    0.90468   0.11836   0.48787   0.00000  Uiso   1.00
Cl201  Cl    0.76442   0.22737   0.47605   0.00000  Uiso   1.00
Cl202  Cl    0.76199   0.11837   0.01213   0.00000  Uiso   1.00
Cl203  Cl    0.90804   0.21440   0.12875   0.00000  Uiso   1.00
Cl204  Cl    0.91416   0.13304   0.38463   0.00000  Uiso   1.00
Cl205  Cl    0.75864   0.21441   0.37126   0.00000  Uiso   1.00
Cl206  Cl    0.75250   0.13303   0.11537   0.00000  Uiso   1.00
C207   C     0.69870   0.08492   0.21414   0.00000  Uiso   1.00
C208   C     0.66675   0.07350   0.17576   0.00000  Uiso   1.00
H209   H     0.99649   0.10207   0.15224   0.00000  Uiso   1.00
H210   H     0.67804   0.04424   0.15714   0.00000  Uiso   1.00
H211   H     0.96888   0.06529   0.18821   0.00000  Uiso   1.00
H212   H     0.70337   0.05587   0.23675   0.00000  Uiso   1.00
H213   H     0.72836   0.09091   0.19802   0.00000  Uiso   1.00
C214   C     0.96913   0.24817   0.28710   0.00000  Uiso   1.00
C215   C     0.96666   0.23654   0.33664   0.00000  Uiso   1.00
H216   H     0.99597   0.21967   0.34934   0.00000  Uiso   1.00
H217   H     0.93953   0.21429   0.34156   0.00000  Uiso   1.00
H218   H     0.96281   0.26740   0.35645   0.00000  Uiso   1.00
H219   H     0.99350   0.27452   0.28588   0.00000  Uiso   1.00
H220   H     0.93957   0.26354   0.27351   0.00000  Uiso   1.00
C221   C     0.96796   0.08494   0.28591   0.00000  Uiso   1.00
C222   C     0.99990   0.07355   0.32430   0.00000  Uiso   1.00
H223   H     0.67016   0.10213   0.34780   0.00000  Uiso   1.00
H224   H     0.98862   0.04430   0.34294   0.00000  Uiso   1.00
H225   H     0.69778   0.06534   0.31186   0.00000  Uiso   1.00
H226   H     0.96329   0.05588   0.26332   0.00000  Uiso   1.00
H227   H     0.93829   0.09094   0.30202   0.00000  Uiso   1.00
C228   C     0.69754   0.24814   0.21283   0.00000  Uiso   1.00
C229   C     0.70005   0.23647   0.16330   0.00000  Uiso   1.00
H230   H     0.72721   0.21425   0.15844   0.00000  Uiso   1.00
H231   H     0.70389   0.26732   0.14347   0.00000  Uiso   1.00
H232   H     0.67077   0.21956   0.15060   0.00000  Uiso   1.00
H233   H     0.67316   0.27448   0.21401   0.00000  Uiso   1.00
H234   H     0.72709   0.26353   0.22644   0.00000  Uiso   1.00
C235   C     0.08648   0.50002   0.24401   0.00000  Uiso   1.00
C236   C     0.24685   0.50002   0.25599   0.00000  Uiso   1.00
C237   C     0.16621   0.50018   0.16423   0.00000  Uiso   1.00
C238   C     0.16712   0.50018   0.33578   0.00000  Uiso   1.00
C239   C     0.18375   0.35681   0.28563   0.00000  Uiso   1.00
C240   C     0.14928   0.64287   0.21451   0.00000  Uiso   1.00
C241   C     0.14958   0.35681   0.21437   0.00000  Uiso   1.00
C242   C     0.18406   0.64287   0.28549   0.00000  Uiso   1.00
C243   C     0.01889   0.45946   0.23941   0.00000  Uiso   1.00
C244   C     0.31435   0.54069   0.26035   0.00000  Uiso   1.00
C245   C     0.31444   0.45947   0.26062   0.00000  Uiso   1.00
C246   C     0.01898   0.54069   0.23961   0.00000  Uiso   1.00
C247   C     0.19774   0.52767   0.04979   0.00000  Uiso   1.00
C248   C     0.19945   0.48203   0.45560   0.00000  Uiso   1.00
C249   C     0.13560   0.52768   0.45021   0.00000  Uiso   1.00
C250   C     0.13388   0.48204   0.04440   0.00000  Uiso   1.00
C251   C     0.19891   0.52404   0.09616   0.00000  Uiso   1.00
C252   C     0.20096   0.48310   0.40935   0.00000  Uiso   1.00
C253   C     0.13443   0.52404   0.40384   0.00000  Uiso   1.00
C254   C     0.13237   0.48310   0.09065   0.00000  Uiso   1.00
C255   C     0.16627   0.50143   0.11632   0.00000  Uiso   1.00
C256   C     0.16707   0.50143   0.38368   0.00000  Uiso   1.00
C257   C     0.16621   0.50502   0.02414   0.00000  Uiso   1.00
C258   C     0.16713   0.50502   0.47586   0.00000  Uiso   1.00
C259   C     0.29255   0.50004   0.26324   0.00000  Uiso   1.00
C260   C     0.04078   0.50004   0.23676   0.00000  Uiso   1.00
N261   N     0.16667   0.61907   0.25000   0.00000  Uiso   1.00
N262   N     0.16667   0.38093   0.25000   0.00000  Uiso   1.00
O263   O     0.10559   0.53821   0.25000   0.00000  Uiso   1.00
O264   O     0.22774   0.46179   0.25001   0.00000  Uiso   1.00
O265   O     0.22774   0.53821   0.25001   0.00000  Uiso   1.00
O266   O     0.10559   0.46179   0.25000   0.00000  Uiso   1.00
O267   O     0.16666   0.53822   0.18453   0.00000  Uiso   1.00
O268   O     0.16667   0.46178   0.31547   0.00000  Uiso   1.00
O269   O     0.16667   0.53822   0.31547   0.00000  Uiso   1.00
O270   O     0.16666   0.46178   0.18453   0.00000  Uiso   1.00
Zn271  Zn    0.16667   0.55104   0.25000   0.00000  Uiso   1.00
Zn272  Zn    0.16667   0.44896   0.25000   0.00000  Uiso   1.00
Cl273  Cl    0.20562   0.38308   0.33353   0.00000  Uiso   1.00
Cl274  Cl    0.12595   0.61560   0.16752   0.00000  Uiso   1.00
Cl275  Cl    0.12771   0.38308   0.16648   0.00000  Uiso   1.00
Cl276  Cl    0.20740   0.61560   0.33247   0.00000  Uiso   1.00
Cl277  Cl    0.23560   0.56069   0.02395   0.00000  Uiso   1.00
Cl278  Cl    0.23801   0.45169   0.48787   0.00000  Uiso   1.00
Cl279  Cl    0.09776   0.56070   0.47605   0.00000  Uiso   1.00
Cl280  Cl    0.09532   0.45171   0.01213   0.00000  Uiso   1.00
Cl281  Cl    0.24137   0.54774   0.12875   0.00000  Uiso   1.00
Cl282  Cl    0.24750   0.46637   0.38463   0.00000  Uiso   1.00
Cl283  Cl    0.09197   0.54774   0.37126   0.00000  Uiso   1.00
Cl284  Cl    0.08584   0.46636   0.11537   0.00000  Uiso   1.00
C285   C     0.03203   0.41825   0.21414   0.00000  Uiso   1.00
C286   C     0.00009   0.40684   0.17576   0.00000  Uiso   1.00
H287   H     0.32982   0.43540   0.15224   0.00000  Uiso   1.00
H288   H     0.01137   0.37758   0.15714   0.00000  Uiso   1.00
H289   H     0.30221   0.39862   0.18821   0.00000  Uiso   1.00
H290   H     0.03670   0.38921   0.23675   0.00000  Uiso   1.00
H291   H     0.06170   0.42424   0.19802   0.00000  Uiso   1.00
C292   C     0.30246   0.58150   0.28710   0.00000  Uiso   1.00
C293   C     0.29999   0.56987   0.33664   0.00000  Uiso   1.00
H294   H     0.32930   0.55301   0.34934   0.00000  Uiso   1.00
H295   H     0.27286   0.54763   0.34156   0.00000  Uiso   1.00
H296   H     0.29615   0.60073   0.35645   0.00000  Uiso   1.00
H297   H     0.32683   0.60785   0.28588   0.00000  Uiso   1.00
H298   H     0.27290   0.59687   0.27351   0.00000  Uiso   1.00
C299   C     0.30130   0.41827   0.28591   0.00000  Uiso   1.00
C300   C     0.33324   0.40688   0.32430   0.00000  Uiso   1.00
H301   H     0.00350   0.43546   0.34780   0.00000  Uiso   1.00
H302   H     0.32195   0.37763   0.34294   0.00000  Uiso   1.00
H303   H     0.03112   0.39868   0.31186   0.00000  Uiso   1.00
H304   H     0.29663   0.38921   0.26332   0.00000  Uiso   1.00
H305   H     0.27163   0.42427   0.30202   0.00000  Uiso   1.00
C306   C     0.03087   0.58148   0.21283   0.00000  Uiso   1.00
C307   C     0.03339   0.56981   0.16330   0.00000  Uiso   1.00
H308   H     0.06055   0.54758   0.15844   0.00000  Uiso   1.00
H309   H     0.03722   0.60065   0.14347   0.00000  Uiso   1.00
H310   H     0.00410   0.55289   0.15060   0.00000  Uiso   1.00
H311   H     0.00649   0.60782   0.21401   0.00000  Uiso   1.00
H312   H     0.06042   0.59687   0.22644   0.00000  Uiso   1.00
C313   C     0.41981   0.50002   0.24401   0.00000  Uiso   1.00
C314   C     0.58019   0.50002   0.25599   0.00000  Uiso   1.00
C315   C     0.49954   0.50018   0.16423   0.00000  Uiso   1.00
C316   C     0.50046   0.50018   0.33578   0.00000  Uiso   1.00
C317   C     0.51708   0.35681   0.28563   0.00000  Uiso   1.00
C318   C     0.48261   0.64287   0.21451   0.00000  Uiso   1.00
C319   C     0.48292   0.35681   0.21437   0.00000  Uiso   1.00
C320   C     0.51739   0.64287   0.28549   0.00000  Uiso   1.00
C321   C     0.35223   0.45946   0.23941   0.00000  Uiso   1.00
C322   C     0.64768   0.54069   0.26035   0.00000  Uiso   1.00
C323   C     0.64777   0.45947   0.26062   0.00000  Uiso   1.00
C324   C     0.35232   0.54069   0.23961   0.00000  Uiso   1.00
C325   C     0.53107   0.52767   0.04979   0.00000  Uiso   1.00
C326   C     0.53279   0.48203   0.45560   0.00000  Uiso   1.00
C327   C     0.46894   0.52768   0.45021   0.00000  Uiso   1.00
C328   C     0.46721   0.48204   0.04440   0.00000  Uiso   1.00
C329   C     0.53224   0.52404   0.09616   0.00000  Uiso   1.00
C330   C     0.53430   0.48310   0.40935   0.00000  Uiso   1.00
C331   C     0.46776   0.52404   0.40384   0.00000  Uiso   1.00
C332   C     0.46570   0.48310   0.09065   0.00000  Uiso   1.00
C333   C     0.49960   0.50143   0.11632   0.00000  Uiso   1.00
C334   C     0.50040   0.50143   0.38368   0.00000  Uiso   1.00
C335   C     0.49954   0.50502   0.02414   0.00000  Uiso   1.00
C336   C     0.50047   0.50502   0.47586   0.00000  Uiso   1.00
C337   C     0.62589   0.50004   0.26324   0.00000  Uiso   1.00
C338   C     0.37411   0.50004   0.23676   0.00000  Uiso   1.00
N339   N     0.50000   0.61907   0.25000   0.00000  Uiso   1.00
N340   N     0.50000   0.38093   0.25000   0.00000  Uiso   1.00
O341   O     0.43892   0.53821   0.25000   0.00000  Uiso   1.00
O342   O     0.56108   0.46179   0.25001   0.00000  Uiso   1.00
O343   O     0.56108   0.53821   0.25001   0.00000  Uiso   1.00
O344   O     0.43892   0.46179   0.25000   0.00000  Uiso   1.00
O345   O     0.50000   0.53822   0.18453   0.00000  Uiso   1.00
O346   O     0.50000   0.46178   0.31547   0.00000  Uiso   1.00
O347   O     0.50000   0.53822   0.31547   0.00000  Uiso   1.00
O348   O     0.50000   0.46178   0.18453   0.00000  Uiso   1.00
Zn349  Zn    0.50000   0.55104   0.25000   0.00000  Uiso   1.00
Zn350  Zn    0.50000   0.44896   0.25000   0.00000  Uiso   1.00
Cl351  Cl    0.53895   0.38308   0.33353   0.00000  Uiso   1.00
Cl352  Cl    0.45929   0.61560   0.16752   0.00000  Uiso   1.00
Cl353  Cl    0.46104   0.38308   0.16648   0.00000  Uiso   1.00
Cl354  Cl    0.54074   0.61560   0.33247   0.00000  Uiso   1.00
Cl355  Cl    0.56893   0.56069   0.02395   0.00000  Uiso   1.00
Cl356  Cl    0.57134   0.45169   0.48787   0.00000  Uiso   1.00
Cl357  Cl    0.43109   0.56070   0.47605   0.00000  Uiso   1.00
Cl358  Cl    0.42865   0.45171   0.01213   0.00000  Uiso   1.00
Cl359  Cl    0.57471   0.54774   0.12875   0.00000  Uiso   1.00
Cl360  Cl    0.58083   0.46637   0.38463   0.00000  Uiso   1.00
Cl361  Cl    0.42530   0.54774   0.37126   0.00000  Uiso   1.00
Cl362  Cl    0.41917   0.46636   0.11537   0.00000  Uiso   1.00
C363   C     0.36537   0.41825   0.21414   0.00000  Uiso   1.00
C364   C     0.33342   0.40684   0.17576   0.00000  Uiso   1.00
H365   H     0.66315   0.43540   0.15224   0.00000  Uiso   1.00
H366   H     0.34471   0.37758   0.15714   0.00000  Uiso   1.00
H367   H     0.63554   0.39862   0.18821   0.00000  Uiso   1.00
H368   H     0.37004   0.38921   0.23675   0.00000  Uiso   1.00
H369   H     0.39503   0.42424   0.19802   0.00000  Uiso   1.00
C370   C     0.63580   0.58150   0.28710   0.00000  Uiso   1.00
C371   C     0.63333   0.56987   0.33664   0.00000  Uiso   1.00
H372   H     0.66264   0.55301   0.34934   0.00000  Uiso   1.00
H373   H     0.60619   0.54763   0.34156   0.00000  Uiso   1.00
H374   H     0.62948   0.60073   0.35645   0.00000  Uiso   1.00
H375   H     0.66017   0.60785   0.28588   0.00000  Uiso   1.00
H376   H     0.60623   0.59687   0.27351   0.00000  Uiso   1.00
C377   C     0.63463   0.41827   0.28591   0.00000  Uiso   1.00
C378   C     0.66657   0.40688   0.32430   0.00000  Uiso   1.00
H379   H     0.33683   0.43546   0.34780   0.00000  Uiso   1.00
H380   H     0.65529   0.37763   0.34294   0.00000  Uiso   1.00
H381   H     0.36445   0.39868   0.31186   0.00000  Uiso   1.00
H382   H     0.62996   0.38921   0.26332   0.00000  Uiso   1.00
H383   H     0.60496   0.42427   0.30202   0.00000  Uiso   1.00
C384   C     0.36421   0.58148   0.21283   0.00000  Uiso   1.00
C385   C     0.36672   0.56981   0.16330   0.00000  Uiso   1.00
H386   H     0.39388   0.54758   0.15844   0.00000  Uiso   1.00
H387   H     0.37055   0.60065   0.14347   0.00000  Uiso   1.00
H388   H     0.33743   0.55289   0.15060   0.00000  Uiso   1.00
H389   H     0.33982   0.60782   0.21401   0.00000  Uiso   1.00
H390   H     0.39376   0.59687   0.22644   0.00000  Uiso   1.00
C391   C     0.75314   0.50002   0.24401   0.00000  Uiso   1.00
C392   C     0.91352   0.50002   0.25599   0.00000  Uiso   1.00
C393   C     0.83288   0.50018   0.16423   0.00000  Uiso   1.00
C394   C     0.83379   0.50018   0.33578   0.00000  Uiso   1.00
C395   C     0.85042   0.35681   0.28563   0.00000  Uiso   1.00
C396   C     0.81595   0.64287   0.21451   0.00000  Uiso   1.00
C397   C     0.81625   0.35681   0.21437   0.00000  Uiso   1.00
C398   C     0.85072   0.64287   0.28549   0.00000  Uiso   1.00
C399   C     0.68556   0.45946   0.23941   0.00000  Uiso   1.00
C400   C     0.98102   0.54069   0.26035   0.00000  Uiso   1.00
C401   C     0.98110   0.45947   0.26062   0.00000  Uiso   1.00
C402   C     0.68565   0.54069   0.23961   0.00000  Uiso   1.00
C403   C     0.86441   0.52767   0.04979   0.00000  Uiso   1.00
C404   C     0.86612   0.48203   0.45560   0.00000  Uiso   1.00
C405   C     0.80227   0.52768   0.45021   0.00000  Uiso   1.00
C406   C     0.80055   0.48204   0.04440   0.00000  Uiso   1.00
C407   C     0.86558   0.52404   0.09616   0.00000  Uiso   1.00
C408   C     0.86763   0.48310   0.40935   0.00000  Uiso   1.00
C409   C     0.80110   0.52404   0.40384   0.00000  Uiso   1.00
C410   C     0.79904   0.48310   0.09065   0.00000  Uiso   1.00
C411   C     0.83293   0.50143   0.11632   0.00000  Uiso   1.00
C412   C     0.83374   0.50143   0.38368   0.00000  Uiso   1.00
C413   C     0.83288   0.50502   0.02414   0.00000  Uiso   1.00
C414   C     0.83380   0.50502   0.47586   0.00000  Uiso   1.00
C415   C     0.95922   0.50004   0.26324   0.00000  Uiso   1.00
C416   C     0.70745   0.50004   0.23676   0.00000  Uiso   1.00
N417   N     0.83333   0.61907   0.25000   0.00000  Uiso   1.00
N418   N     0.83333   0.38093   0.25000   0.00000  Uiso   1.00
O419   O     0.77226   0.53821   0.25000   0.00000  Uiso   1.00
O420   O     0.89441   0.46179   0.25001   0.00000  Uiso   1.00
O421   O     0.89441   0.53821   0.25001   0.00000  Uiso   1.00
O422   O     0.77226   0.46179   0.25000   0.00000  Uiso   1.00
O423   O     0.83333   0.53822   0.18453   0.00000  Uiso   1.00
O424   O     0.83334   0.46178   0.31547   0.00000  Uiso   1.00
O425   O     0.83334   0.53822   0.31547   0.00000  Uiso   1.00
O426   O     0.83333   0.46178   0.18453   0.00000  Uiso   1.00
Zn427  Zn    0.83333   0.55104   0.25000   0.00000  Uiso   1.00
Zn428  Zn    0.83333   0.44896   0.25000   0.00000  Uiso   1.00
Cl429  Cl    0.87228   0.38308   0.33353   0.00000  Uiso   1.00
Cl430  Cl    0.79262   0.61560   0.16752   0.00000  Uiso   1.00
Cl431  Cl    0.79437   0.38308   0.16648   0.00000  Uiso   1.00
Cl432  Cl    0.87407   0.61560   0.33247   0.00000  Uiso   1.00
Cl433  Cl    0.90227   0.56069   0.02395   0.00000  Uiso   1.00
Cl434  Cl    0.90468   0.45169   0.48787   0.00000  Uiso   1.00
Cl435  Cl    0.76442   0.56070   0.47605   0.00000  Uiso   1.00
Cl436  Cl    0.76199   0.45171   0.01213   0.00000  Uiso   1.00
Cl437  Cl    0.90804   0.54774   0.12875   0.00000  Uiso   1.00
Cl438  Cl    0.91416   0.46637   0.38463   0.00000  Uiso   1.00
Cl439  Cl    0.75864   0.54774   0.37126   0.00000  Uiso   1.00
Cl440  Cl    0.75250   0.46636   0.11537   0.00000  Uiso   1.00
C441   C     0.69870   0.41825   0.21414   0.00000  Uiso   1.00
C442   C     0.66675   0.40684   0.17576   0.00000  Uiso   1.00
H443   H     0.99649   0.43540   0.15224   0.00000  Uiso   1.00
H444   H     0.67804   0.37758   0.15714   0.00000  Uiso   1.00
H445   H     0.96888   0.39862   0.18821   0.00000  Uiso   1.00
H446   H     0.70337   0.38921   0.23675   0.00000  Uiso   1.00
H447   H     0.72836   0.42424   0.19802   0.00000  Uiso   1.00
C448   C     0.96913   0.58150   0.28710   0.00000  Uiso   1.00
C449   C     0.96666   0.56987   0.33664   0.00000  Uiso   1.00
H450   H     0.99597   0.55301   0.34934   0.00000  Uiso   1.00
H451   H     0.93953   0.54763   0.34156   0.00000  Uiso   1.00
H452   H     0.96281   0.60073   0.35645   0.00000  Uiso   1.00
H453   H     0.99350   0.60785   0.28588   0.00000  Uiso   1.00
H454   H     0.93957   0.59687   0.27351   0.00000  Uiso   1.00
C455   C     0.96796   0.41827   0.28591   0.00000  Uiso   1.00
C456   C     0.99990   0.40688   0.32430   0.00000  Uiso   1.00
H457   H     0.67016   0.43546   0.34780   0.00000  Uiso   1.00
H458   H     0.98862   0.37763   0.34294   0.00000  Uiso   1.00
H459   H     0.69778   0.39868   0.31186   0.00000  Uiso   1.00
H460   H     0.96329   0.38921   0.26332   0.00000  Uiso   1.00
H461   H     0.93829   0.42427   0.30202   0.00000  Uiso   1.00
C462   C     0.69754   0.58148   0.21283   0.00000  Uiso   1.00
C463   C     0.70005   0.56981   0.16330   0.00000  Uiso   1.00
H464   H     0.72721   0.54758   0.15844   0.00000  Uiso   1.00
H465   H     0.70389   0.60065   0.14347   0.00000  Uiso   1.00
H466   H     0.67077   0.55289   0.15060   0.00000  Uiso   1.00
H467   H     0.67316   0.60782   0.21401   0.00000  Uiso   1.00
H468   H     0.72709   0.59687   0.22644   0.00000  Uiso   1.00
C469   C     0.08648   0.83335   0.24401   0.00000  Uiso   1.00
C470   C     0.24685   0.83335   0.25599   0.00000  Uiso   1.00
C471   C     0.16621   0.83352   0.16423   0.00000  Uiso   1.00
C472   C     0.16712   0.83352   0.33578   0.00000  Uiso   1.00
C473   C     0.18375   0.69014   0.28563   0.00000  Uiso   1.00
C474   C     0.14928   0.97620   0.21451   0.00000  Uiso   1.00
C475   C     0.14958   0.69014   0.21437   0.00000  Uiso   1.00
C476   C     0.18406   0.97620   0.28549   0.00000  Uiso   1.00
C477   C     0.01889   0.79280   0.23941   0.00000  Uiso   1.00
C478   C     0.31435   0.87403   0.26035   0.00000  Uiso   1.00
C479   C     0.31444   0.79280   0.26062   0.00000  Uiso   1.00
C480   C     0.01898   0.87402   0.23961   0.00000  Uiso   1.00
C481   C     0.19774   0.86100   0.04979   0.00000  Uiso   1.00
C482   C     0.19945   0.81537   0.45560   0.00000  Uiso   1.00
C483   C     0.13560   0.86101   0.45021   0.00000  Uiso   1.00
C484   C     0.13388   0.81537   0.04440   0.00000  Uiso   1.00
C485   C     0.19891   0.85737   0.09616   0.00000  Uiso   1.00
C486   C     0.20096   0.81643   0.40935   0.00000  Uiso   1.00
C487   C     0.13443   0.85738   0.40384   0.00000  Uiso   1.00
C488   C     0.13237   0.81643   0.09065   0.00000  Uiso   1.00
C489   C     0.16627   0.83476   0.11632   0.00000  Uiso   1.00
C490   C     0.16707   0.83476   0.38368   0.00000  Uiso   1.00
C491   C     0.16621   0.83835   0.02414   0.00000  Uiso   1.00
C492   C     0.16713   0.83835   0.47586   0.00000  Uiso   1.00
C493   C     0.29255   0.83338   0.26324   0.00000  Uiso   1.00
C494   C     0.04078   0.83337   0.23676   0.00000  Uiso   1.00
N495   N     0.16667   0.95240   0.25000   0.00000  Uiso   1.00
N496   N     0.16667   0.71427   0.25000   0.00000  Uiso   1.00
O497   O     0.10559   0.87154   0.25000   0.00000  Uiso   1.00
O498   O     0.22774   0.79513   0.25001   0.00000  Uiso   1.00
O499   O     0.22774   0.87154   0.25001   0.00000  Uiso   1.00
O500   O     0.10559   0.79513   0.25000   0.00000  Uiso   1.00
O501   O     0.16666   0.87155   0.18453   0.00000  Uiso   1.00
O502   O     0.16667   0.79511   0.31547   0.00000  Uiso   1.00
O503   O     0.16667   0.87155   0.31547   0.00000  Uiso   1.00
O504   O     0.16666   0.79511   0.18453   0.00000  Uiso   1.00
Zn505  Zn    0.16667   0.88437   0.25000   0.00000  Uiso   1.00
Zn506  Zn    0.16667   0.78229   0.25000   0.00000  Uiso   1.00
Cl507  Cl    0.20562   0.71642   0.33353   0.00000  Uiso   1.00
Cl508  Cl    0.12595   0.94894   0.16752   0.00000  Uiso   1.00
Cl509  Cl    0.12771   0.71642   0.16648   0.00000  Uiso   1.00
Cl510  Cl    0.20740   0.94893   0.33247   0.00000  Uiso   1.00
Cl511  Cl    0.23560   0.89402   0.02395   0.00000  Uiso   1.00
Cl512  Cl    0.23801   0.78503   0.48787   0.00000  Uiso   1.00
Cl513  Cl    0.09776   0.89403   0.47605   0.00000  Uiso   1.00
Cl514  Cl    0.09532   0.78504   0.01213   0.00000  Uiso   1.00
Cl515  Cl    0.24137   0.88107   0.12875   0.00000  Uiso   1.00
Cl516  Cl    0.24750   0.79970   0.38463   0.00000  Uiso   1.00
Cl517  Cl    0.09197   0.88107   0.37126   0.00000  Uiso   1.00
Cl518  Cl    0.08584   0.79970   0.11537   0.00000  Uiso   1.00
C519   C     0.03203   0.75159   0.21414   0.00000  Uiso   1.00
C520   C     0.00009   0.74017   0.17576   0.00000  Uiso   1.00
H521   H     0.32982   0.76874   0.15224   0.00000  Uiso   1.00
H522   H     0.01137   0.71091   0.15714   0.00000  Uiso   1.00
H523   H     0.30221   0.73196   0.18821   0.00000  Uiso   1.00
H524   H     0.03670   0.72254   0.23675   0.00000  Uiso   1.00
H525   H     0.06170   0.75758   0.19802   0.00000  Uiso   1.00
C526   C     0.30246   0.91484   0.28710   0.00000  Uiso   1.00
C527   C     0.29999   0.90321   0.33664   0.00000  Uiso   1.00
H528   H     0.32930   0.88634   0.34934   0.00000  Uiso   1.00
H529   H     0.27286   0.88096   0.34156   0.00000  Uiso   1.00
H530   H     0.29615   0.93406   0.35645   0.00000  Uiso   1.00
H531   H     0.32683   0.94118   0.28588   0.00000  Uiso   1.00
H532   H     0.27290   0.93020   0.27351   0.00000  Uiso   1.00
C533   C     0.30130   0.75161   0.28591   0.00000  Uiso   1.00
C534   C     0.33324   0.74022   0.32430   0.00000  Uiso   1.00
H535   H     0.00350   0.76880   0.34780   0.00000  Uiso   1.00
H536   H     0.32195   0.71097   0.34294   0.00000  Uiso   1.00
H537   H     0.03112   0.73201   0.31186   0.00000  Uiso   1.00
H538   H     0.29663   0.72255   0.26332   0.00000  Uiso   1.00
H539   H     0.27163   0.75761   0.30202   0.00000  Uiso   1.00
C540   C     0.03087   0.91481   0.21283   0.00000  Uiso   1.00
C541   C     0.03339   0.90314   0.16330   0.00000  Uiso   1.00
H542   H     0.06055   0.88092   0.15844   0.00000  Uiso   1.00
H543   H     0.03722   0.93398   0.14347   0.00000  Uiso   1.00
H544   H     0.00410   0.88623   0.15060   0.00000  Uiso   1.00
H545   H     0.00649   0.94115   0.21401   0.00000  Uiso   1.00
H546   H     0.06042   0.93020   0.22644   0.00000  Uiso   1.00
C547   C     0.41981   0.83335   0.24401   0.00000  Uiso   1.00
C548   C     0.58019   0.83335   0.25599   0.00000  Uiso   1.00
C549   C     0.49954   0.83352   0.16423   0.00000  Uiso   1.00
C550   C     0.50046   0.83352   0.33578   0.00000  Uiso   1.00
C551   C     0.51708   0.69014   0.28563   0.00000  Uiso   1.00
C552   C     0.48261   0.97620   0.21451   0.00000  Uiso   1.00
C553   C     0.48292   0.69014   0.21437   0.00000  Uiso   1.00
C554   C     0.51739   0.97620   0.28549   0.00000  Uiso   1.00
C555   C     0.35223   0.79280   0.23941   0.00000  Uiso   1.00
C556   C     0.64768   0.87403   0.26035   0.00000  Uiso   1.00
C557   C     0.64777   0.79280   0.26062   0.00000  Uiso   1.00
C558   C     0.35232   0.87402   0.23961   0.00000  Uiso   1.00
C559   C     0.53107   0.86100   0.04979   0.00000  Uiso   1.00
C560   C     0.53279   0.81537   0.45560   0.00000  Uiso   1.00
C561   C     0.46894   0.86101   0.45021   0.00000  Uiso   1.00
C562   C     0.46721   0.81537   0.04440   0.00000  Uiso   1.00
C563   C     0.53224   0.85737   0.09616   0.00000  Uiso   1.00
C564   C     0.53430   0.81643   0.40935   0.00000  Uiso   1.00
C565   C     0.46776   0.85738   0.40384   0.00000  Uiso   1.00
C566   C     0.46570   0.81643   0.09065   0.00000  Uiso   1.00
C567   C     0.49960   0.83476   0.11632   0.00000  Uiso   1.00
C568   C     0.50040   0.83476   0.38368   0.00000  Uiso   1.00
C569   C     0.49954   0.83835   0.02414   0.00000  Uiso   1.00
C570   C     0.50047   0.83835   0.47586   0.00000  Uiso   1.00
C571   C     0.62589   0.83338   0.26324   0.00000  Uiso   1.00
C572   C     0.37411   0.83337   0.23676   0.00000  Uiso   1.00
N573   N     0.50000   0.95240   0.25000   0.00000  Uiso   1.00
N574   N     0.50000   0.71427   0.25000   0.00000  Uiso   1.00
O575   O     0.43892   0.87154   0.25000   0.00000  Uiso   1.00
O576   O     0.56108   0.79513   0.25001   0.00000  Uiso   1.00
O577   O     0.56108   0.87154   0.25001   0.00000  Uiso   1.00
O578   O     0.43892   0.79513   0.25000   0.00000  Uiso   1.00
O579   O     0.50000   0.87155   0.18453   0.00000  Uiso   1.00
O580   O     0.50000   0.79511   0.31547   0.00000  Uiso   1.00
O581   O     0.50000   0.87155   0.31547   0.00000  Uiso   1.00
O582   O     0.50000   0.79511   0.18453   0.00000  Uiso   1.00
Zn583  Zn    0.50000   0.88437   0.25000   0.00000  Uiso   1.00
Zn584  Zn    0.50000   0.78229   0.25000   0.00000  Uiso   1.00
Cl585  Cl    0.53895   0.71642   0.33353   0.00000  Uiso   1.00
Cl586  Cl    0.45929   0.94894   0.16752   0.00000  Uiso   1.00
Cl587  Cl    0.46104   0.71642   0.16648   0.00000  Uiso   1.00
Cl588  Cl    0.54074   0.94893   0.33247   0.00000  Uiso   1.00
Cl589  Cl    0.56893   0.89402   0.02395   0.00000  Uiso   1.00
Cl590  Cl    0.57134   0.78503   0.48787   0.00000  Uiso   1.00
Cl591  Cl    0.43109   0.89403   0.47605   0.00000  Uiso   1.00
Cl592  Cl    0.42865   0.78504   0.01213   0.00000  Uiso   1.00
Cl593  Cl    0.57471   0.88107   0.12875   0.00000  Uiso   1.00
Cl594  Cl    0.58083   0.79970   0.38463   0.00000  Uiso   1.00
Cl595  Cl    0.42530   0.88107   0.37126   0.00000  Uiso   1.00
Cl596  Cl    0.41917   0.79970   0.11537   0.00000  Uiso   1.00
C597   C     0.36537   0.75159   0.21414   0.00000  Uiso   1.00
C598   C     0.33342   0.74017   0.17576   0.00000  Uiso   1.00
H599   H     0.66315   0.76874   0.15224   0.00000  Uiso   1.00
H600   H     0.34471   0.71091   0.15714   0.00000  Uiso   1.00
H601   H     0.63554   0.73196   0.18821   0.00000  Uiso   1.00
H602   H     0.37004   0.72254   0.23675   0.00000  Uiso   1.00
H603   H     0.39503   0.75758   0.19802   0.00000  Uiso   1.00
C604   C     0.63580   0.91484   0.28710   0.00000  Uiso   1.00
C605   C     0.63333   0.90321   0.33664   0.00000  Uiso   1.00
H606   H     0.66264   0.88634   0.34934   0.00000  Uiso   1.00
H607   H     0.60619   0.88096   0.34156   0.00000  Uiso   1.00
H608   H     0.62948   0.93406   0.35645   0.00000  Uiso   1.00
H609   H     0.66017   0.94118   0.28588   0.00000  Uiso   1.00
H610   H     0.60623   0.93020   0.27351   0.00000  Uiso   1.00
C611   C     0.63463   0.75161   0.28591   0.00000  Uiso   1.00
C612   C     0.66657   0.74022   0.32430   0.00000  Uiso   1.00
H613   H     0.33683   0.76880   0.34780   0.00000  Uiso   1.00
H614   H     0.65529   0.71097   0.34294   0.00000  Uiso   1.00
H615   H     0.36445   0.73201   0.31186   0.00000  Uiso   1.00
H616   H     0.62996   0.72255   0.26332   0.00000  Uiso   1.00
H617   H     0.60496   0.75761   0.30202   0.00000  Uiso   1.00
C618   C     0.36421   0.91481   0.21283   0.00000  Uiso   1.00
C619   C     0.36672   0.90314   0.16330   0.00000  Uiso   1.00
H620   H     0.39388   0.88092   0.15844   0.00000  Uiso   1.00
H621   H     0.37055   0.93398   0.14347   0.00000  Uiso   1.00
H622   H     0.33743   0.88623   0.15060   0.00000  Uiso   1.00
H623   H     0.33982   0.94115   0.21401   0.00000  Uiso   1.00
H624   H     0.39376   0.93020   0.22644   0.00000  Uiso   1.00
C625   C     0.75314   0.83335   0.24401   0.00000  Uiso   1.00
C626   C     0.91352   0.83335   0.25599   0.00000  Uiso   1.00
C627   C     0.83288   0.83352   0.16423   0.00000  Uiso   1.00
C628   C     0.83379   0.83352   0.33578   0.00000  Uiso   1.00
C629   C     0.85042   0.69014   0.28563   0.00000  Uiso   1.00
C630   C     0.81595   0.97620   0.21451   0.00000  Uiso   1.00
C631   C     0.81625   0.69014   0.21437   0.00000  Uiso   1.00
C632   C     0.85072   0.97620   0.28549   0.00000  Uiso   1.00
C633   C     0.68556   0.79280   0.23941   0.00000  Uiso   1.00
C634   C     0.98102   0.87403   0.26035   0.00000  Uiso   1.00
C635   C     0.98110   0.79280   0.26062   0.00000  Uiso   1.00
C636   C     0.68565   0.87402   0.23961   0.00000  Uiso   1.00
C637   C     0.86441   0.86100   0.04979   0.00000  Uiso   1.00
C638   C     0.86612   0.81537   0.45560   0.00000  Uiso   1.00
C639   C     0.80227   0.86101   0.45021   0.00000  Uiso   1.00
C640   C     0.80055   0.81537   0.04440   0.00000  Uiso   1.00
C641   C     0.86558   0.85737   0.09616   0.00000  Uiso   1.00
C642   C     0.86763   0.81643   0.40935   0.00000  Uiso   1.00
C643   C     0.80110   0.85738   0.40384   0.00000  Uiso   1.00
C644   C     0.79904   0.81643   0.09065   0.00000  Uiso   1.00
C645   C     0.83293   0.83476   0.11632   0.00000  Uiso   1.00
C646   C     0.83374   0.83476   0.38368   0.00000  Uiso   1.00
C647   C     0.83288   0.83835   0.02414   0.00000  Uiso   1.00
C648   C     0.83380   0.83835   0.47586   0.00000  Uiso   1.00
C649   C     0.95922   0.83338   0.26324   0.00000  Uiso   1.00
C650   C     0.70745   0.83337   0.23676   0.00000  Uiso   1.00
N651   N     0.83333   0.95240   0.25000   0.00000  Uiso   1.00
N652   N     0.83333   0.71427   0.25000   0.00000  Uiso   1.00
O653   O     0.77226   0.87154   0.25000   0.00000  Uiso   1.00
O654   O     0.89441   0.79513   0.25001   0.00000  Uiso   1.00
O655   O     0.89441   0.87154   0.25001   0.00000  Uiso   1.00
O656   O     0.77226   0.79513   0.25000   0.00000  Uiso   1.00
O657   O     0.83333   0.87155   0.18453   0.00000  Uiso   1.00
O658   O     0.83334   0.79511   0.31547   0.00000  Uiso   1.00
O659   O     0.83334   0.87155   0.31547   0.00000  Uiso   1.00
O660   O     0.83333   0.79511   0.18453   0.00000  Uiso   1.00
Zn661  Zn    0.83333   0.88437   0.25000   0.00000  Uiso   1.00
Zn662  Zn    0.83333   0.78229   0.25000   0.00000  Uiso   1.00
Cl663  Cl    0.87228   0.71642   0.33353   0.00000  Uiso   1.00
Cl664  Cl    0.79262   0.94894   0.16752   0.00000  Uiso   1.00
Cl665  Cl    0.79437   0.71642   0.16648   0.00000  Uiso   1.00
Cl666  Cl    0.87407   0.94893   0.33247   0.00000  Uiso   1.00
Cl667  Cl    0.90227   0.89402   0.02395   0.00000  Uiso   1.00
Cl668  Cl    0.90468   0.78503   0.48787   0.00000  Uiso   1.00
Cl669  Cl    0.76442   0.89403   0.47605   0.00000  Uiso   1.00
Cl670  Cl    0.76199   0.78504   0.01213   0.00000  Uiso   1.00
Cl671  Cl    0.90804   0.88107   0.12875   0.00000  Uiso   1.00
Cl672  Cl    0.91416   0.79970   0.38463   0.00000  Uiso   1.00
Cl673  Cl    0.75864   0.88107   0.37126   0.00000  Uiso   1.00
Cl674  Cl    0.75250   0.79970   0.11537   0.00000  Uiso   1.00
C675   C     0.69870   0.75159   0.21414   0.00000  Uiso   1.00
C676   C     0.66675   0.74017   0.17576   0.00000  Uiso   1.00
H677   H     0.99649   0.76874   0.15224   0.00000  Uiso   1.00
H678   H     0.67804   0.71091   0.15714   0.00000  Uiso   1.00
H679   H     0.96888   0.73196   0.18821   0.00000  Uiso   1.00
H680   H     0.70337   0.72254   0.23675   0.00000  Uiso   1.00
H681   H     0.72836   0.75758   0.19802   0.00000  Uiso   1.00
C682   C     0.96913   0.91484   0.28710   0.00000  Uiso   1.00
C683   C     0.96666   0.90321   0.33664   0.00000  Uiso   1.00
H684   H     0.99597   0.88634   0.34934   0.00000  Uiso   1.00
H685   H     0.93953   0.88096   0.34156   0.00000  Uiso   1.00
H686   H     0.96281   0.93406   0.35645   0.00000  Uiso   1.00
H687   H     0.99350   0.94118   0.28588   0.00000  Uiso   1.00
H688   H     0.93957   0.93020   0.27351   0.00000  Uiso   1.00
C689   C     0.96796   0.75161   0.28591   0.00000  Uiso   1.00
C690   C     0.99990   0.74022   0.32430   0.00000  Uiso   1.00
H691   H     0.67016   0.76880   0.34780   0.00000  Uiso   1.00
H692   H     0.98862   0.71097   0.34294   0.00000  Uiso   1.00
H693   H     0.69778   0.73201   0.31186   0.00000  Uiso   1.00
H694   H     0.96329   0.72255   0.26332   0.00000  Uiso   1.00
H695   H     0.93829   0.75761   0.30202   0.00000  Uiso   1.00
C696   C     0.69754   0.91481   0.21283   0.00000  Uiso   1.00
C697   C     0.70005   0.90314   0.16330   0.00000  Uiso   1.00
H698   H     0.72721   0.88092   0.15844   0.00000  Uiso   1.00
H699   H     0.70389   0.93398   0.14347   0.00000  Uiso   1.00
H700   H     0.67077   0.88623   0.15060   0.00000  Uiso   1.00
H701   H     0.67316   0.94115   0.21401   0.00000  Uiso   1.00
H702   H     0.72709   0.93020   0.22644   0.00000  Uiso   1.00
C703   C     0.08648   0.16668   0.74401   0.00000  Uiso   1.00
C704   C     0.24685   0.16669   0.75599   0.00000  Uiso   1.00
C705   C     0.16621   0.16685   0.66423   0.00000  Uiso   1.00
C706   C     0.16712   0.16685   0.83578   0.00000  Uiso   1.00
C707   C     0.18375   0.02348   0.78563   0.00000  Uiso   1.00
C708   C     0.14928   0.30953   0.71451   0.00000  Uiso   1.00
C709   C     0.14958   0.02348   0.71437   0.00000  Uiso   1.00
C710   C     0.18406   0.30953   0.78549   0.00000  Uiso   1.00
C711   C     0.01889   0.12613   0.73941   0.00000  Uiso   1.00
C712   C     0.31435   0.20736   0.76035   0.00000  Uiso   1.00
C713   C     0.31444   0.12613   0.76062   0.00000  Uiso   1.00
C714   C     0.01898   0.20735   0.73961   0.00000  Uiso   1.00
C715   C     0.19774   0.19434   0.54979   0.00000  Uiso   1.00
C716   C     0.19945   0.14870   0.95560   0.00000  Uiso   1.00
C717   C     0.13560   0.19434   0.95021   0.00000  Uiso   1.00
C718   C     0.13388   0.14871   0.54440   0.00000  Uiso   1.00
C719   C     0.19891   0.19071   0.59616   0.00000  Uiso   1.00
C720   C     0.20096   0.14976   0.90935   0.00000  Uiso   1.00
C721   C     0.13443   0.19071   0.90384   0.00000  Uiso   1.00
C722   C     0.13237   0.14976   0.59065   0.00000  Uiso   1.00
C723   C     0.16627   0.16810   0.61632   0.00000  Uiso   1.00
C724   C     0.16707   0.16809   0.88368   0.00000  Uiso   1.00
C725   C     0.16621   0.17168   0.52414   0.00000  Uiso   1.00
C726   C     0.16713   0.17168   0.97586   0.00000  Uiso   1.00
C727   C     0.29255   0.16671   0.76324   0.00000  Uiso   1.00
C728   C     0.04078   0.16670   0.73676   0.00000  Uiso   1.00
N729   N     0.16667   0.28573   0.75000   0.00000  Uiso   1.00
N730   N     0.16667   0.04760   0.75000   0.00000  Uiso   1.00
O731   O     0.10559   0.20487   0.75000   0.00000  Uiso   1.00
O732   O     0.22774   0.12846   0.75001   0.00000  Uiso   1.00
O733   O     0.22774   0.20487   0.75001   0.00000  Uiso   1.00
O734   O     0.10559   0.12846   0.75000   0.00000  Uiso   1.00
O735   O     0.16666   0.20489   0.68453   0.00000  Uiso   1.00
O736   O     0.16667   0.12845   0.81547   0.00000  Uiso   1.00
O737   O     0.16667   0.20489   0.81547   0.00000  Uiso   1.00
O738   O     0.16666   0.12845   0.68453   0.00000  Uiso   1.00
Zn739  Zn    0.16667   0.21771   0.75000   0.00000  Uiso   1.00
Zn740  Zn    0.16667   0.11563   0.75000   0.00000  Uiso   1.00
Cl741  Cl    0.20562   0.04975   0.83353   0.00000  Uiso   1.00
Cl742  Cl    0.12595   0.28227   0.66752   0.00000  Uiso   1.00
Cl743  Cl    0.12771   0.04975   0.66648   0.00000  Uiso   1.00
Cl744  Cl    0.20740   0.28226   0.83247   0.00000  Uiso   1.00
Cl745  Cl    0.23560   0.22735   0.52395   0.00000  Uiso   1.00
Cl746  Cl    0.23801   0.11836   0.98787   0.00000  Uiso   1.00
Cl747  Cl    0.09776   0.22737   0.97605   0.00000  Uiso   1.00
Cl748  Cl    0.09532   0.11837   0.51213   0.00000  Uiso   1.00
Cl749  Cl    0.24137   0.21440   0.62875   0.00000  Uiso   1.00
Cl750  Cl    0.24750   0.13304   0.88463   0.00000  Uiso   1.00
Cl751  Cl    0.09197   0.21441   0.87126   0.00000  Uiso   1.00
Cl752  Cl    0.08584   0.13303   0.61537   0.00000  Uiso   1.00
C753   C     0.03203   0.08492   0.71414   0.00000  Uiso   1.00
C754   C     0.00009   0.07350   0.67576   0.00000  Uiso   1.00
H755   H     0.32982   0.10207   0.65224   0.00000  Uiso   1.00
H756   H     0.01137   0.04424   0.65714   0.00000  Uiso   1.00
H757   H     0.30221   0.06529   0.68821   0.00000  Uiso   1.00
H758   H     0.03670   0.05587   0.73675   0.00000  Uiso   1.00
H759   H     0.06170   0.09091   0.69802   0.00000  Uiso   1.00
C760   C     0.30246   0.24817   0.78710   0.00000  Uiso   1.00
C761   C     0.29999   0.23654   0.83664   0.00000  Uiso   1.00
H762   H     0.32930   0.21967   0.84934   0.00000  Uiso   1.00
H763   H     0.27286   0.21429   0.84156   0.00000  Uiso   1.00
H764   H     0.29615   0.26740   0.85645   0.00000  Uiso   1.00
H765   H     0.32683   0.27452   0.78588   0.00000  Uiso   1.00
H766   H     0.27290   0.26354   0.77351   0.00000  Uiso   1.00
C767   C     0.30130   0.08494   0.78591   0.00000  Uiso   1.00
C768   C     0.33324   0.07355   0.82430   0.00000  Uiso   1.00
H769   H     0.00350   0.10213   0.84780   0.00000  Uiso   1.00
H770   H     0.32195   0.04430   0.84294   0.00000  Uiso   1.00
H771   H     0.03112   0.06534   0.81186   0.00000  Uiso   1.00
H772   H     0.29663   0.05588   0.76332   0.00000  Uiso   1.00
H773   H     0.27163   0.09094   0.80202   0.00000  Uiso   1.00
C774   C     0.03087   0.24814   0.71283   0.00000  Uiso   1.00
C775   C     0.03339   0.23647   0.66330   0.00000  Uiso   1.00
H776   H     0.06055   0.21425   0.65844   0.00000  Uiso   1.00
H777   H     0.03722   0.26732   0.64347   0.00000  Uiso   1.00
H778   H     0.00410   0.21956   0.65060   0.00000  Uiso   1.00
H779   H     0.00649   0.27448   0.71401   0.00000  Uiso   1.00
H780   H     0.06042   0.26353   0.72644   0.00000  Uiso   1.00
C781   C     0.41981   0.16668   0.74401   0.00000  Uiso   1.00
C782   C     0.58019   0.16669   0.75599   0.00000  Uiso   1.00
C783   C     0.49954   0.16685   0.66423   0.00000  Uiso   1.00
C784   C     0.50046   0.16685   0.83578   0.00000  Uiso   1.00
C785   C     0.51708   0.02348   0.78563   0.00000  Uiso   1.00
C786   C     0.48261   0.30953   0.71451   0.00000  Uiso   1.00
C787   C     0.48292   0.02348   0.71437   0.00000  Uiso   1.00
C788   C     0.51739   0.30953   0.78549   0.00000  Uiso   1.00
C789   C     0.35223   0.12613   0.73941   0.00000  Uiso   1.00
C790   C     0.64768   0.20736   0.76035   0.00000  Uiso   1.00
C791   C     0.64777   0.12613   0.76062   0.00000  Uiso   1.00
C792   C     0.35232   0.20735   0.73961   0.00000  Uiso   1.00
C793   C     0.53107   0.19434   0.54979   0.00000  Uiso   1.00
C794   C     0.53279   0.14870   0.95560   0.00000  Uiso   1.00
C795   C     0.46894   0.19434   0.95021   0.00000  Uiso   1.00
C796   C     0.46721   0.14871   0.54440   0.00000  Uiso   1.00
C797   C     0.53224   0.19071   0.59616   0.00000  Uiso   1.00
C798   C     0.53430   0.14976   0.90935   0.00000  Uiso   1.00
C799   C     0.46776   0.19071   0.90384   0.00000  Uiso   1.00
C800   C     0.46570   0.14976   0.59065   0.00000  Uiso   1.00
C801   C     0.49960   0.16810   0.61632   0.00000  Uiso   1.00
C802   C     0.50040   0.16809   0.88368   0.00000  Uiso   1.00
C803   C     0.49954   0.17168   0.52414   0.00000  Uiso   1.00
C804   C     0.50047   0.17168   0.97586   0.00000  Uiso   1.00
C805   C     0.62589   0.16671   0.76324   0.00000  Uiso   1.00
C806   C     0.37411   0.16670   0.73676   0.00000  Uiso   1.00
N807   N     0.50000   0.28573   0.75000   0.00000  Uiso   1.00
N808   N     0.50000   0.04760   0.75000   0.00000  Uiso   1.00
O809   O     0.43892   0.20487   0.75000   0.00000  Uiso   1.00
O810   O     0.56108   0.12846   0.75001   0.00000  Uiso   1.00
O811   O     0.56108   0.20487   0.75001   0.00000  Uiso   1.00
O812   O     0.43892   0.12846   0.75000   0.00000  Uiso   1.00
O813   O     0.50000   0.20489   0.68453   0.00000  Uiso   1.00
O814   O     0.50000   0.12845   0.81547   0.00000  Uiso   1.00
O815   O     0.50000   0.20489   0.81547   0.00000  Uiso   1.00
O816   O     0.50000   0.12845   0.68453   0.00000  Uiso   1.00
Zn817  Zn    0.50000   0.21771   0.75000   0.00000  Uiso   1.00
Zn818  Zn    0.50000   0.11563   0.75000   0.00000  Uiso   1.00
Cl819  Cl    0.53895   0.04975   0.83353   0.00000  Uiso   1.00
Cl820  Cl    0.45929   0.28227   0.66752   0.00000  Uiso   1.00
Cl821  Cl    0.46104   0.04975   0.66648   0.00000  Uiso   1.00
Cl822  Cl    0.54074   0.28226   0.83247   0.00000  Uiso   1.00
Cl823  Cl    0.56893   0.22735   0.52395   0.00000  Uiso   1.00
Cl824  Cl    0.57134   0.11836   0.98787   0.00000  Uiso   1.00
Cl825  Cl    0.43109   0.22737   0.97605   0.00000  Uiso   1.00
Cl826  Cl    0.42865   0.11837   0.51213   0.00000  Uiso   1.00
Cl827  Cl    0.57471   0.21440   0.62875   0.00000  Uiso   1.00
Cl828  Cl    0.58083   0.13304   0.88463   0.00000  Uiso   1.00
Cl829  Cl    0.42530   0.21441   0.87126   0.00000  Uiso   1.00
Cl830  Cl    0.41917   0.13303   0.61537   0.00000  Uiso   1.00
C831   C     0.36537   0.08492   0.71414   0.00000  Uiso   1.00
C832   C     0.33342   0.07350   0.67576   0.00000  Uiso   1.00
H833   H     0.66315   0.10207   0.65224   0.00000  Uiso   1.00
H834   H     0.34471   0.04424   0.65714   0.00000  Uiso   1.00
H835   H     0.63554   0.06529   0.68821   0.00000  Uiso   1.00
H836   H     0.37004   0.05587   0.73675   0.00000  Uiso   1.00
H837   H     0.39503   0.09091   0.69802   0.00000  Uiso   1.00
C838   C     0.63580   0.24817   0.78710   0.00000  Uiso   1.00
C839   C     0.63333   0.23654   0.83664   0.00000  Uiso   1.00
H840   H     0.66264   0.21967   0.84934   0.00000  Uiso   1.00
H841   H     0.60619   0.21429   0.84156   0.00000  Uiso   1.00
H842   H     0.62948   0.26740   0.85645   0.00000  Uiso   1.00
H843   H     0.66017   0.27452   0.78588   0.00000  Uiso   1.00
H844   H     0.60623   0.26354   0.77351   0.00000  Uiso   1.00
C845   C     0.63463   0.08494   0.78591   0.00000  Uiso   1.00
C846   C     0.66657   0.07355   0.82430   0.00000  Uiso   1.00
H847   H     0.33683   0.10213   0.84780   0.00000  Uiso   1.00
H848   H     0.65529   0.04430   0.84294   0.00000  Uiso   1.00
H849   H     0.36445   0.06534   0.81186   0.00000  Uiso   1.00
H850   H     0.62996   0.05588   0.76332   0.00000  Uiso   1.00
H851   H     0.60496   0.09094   0.80202   0.00000  Uiso   1.00
C852   C     0.36421   0.24814   0.71283   0.00000  Uiso   1.00
C853   C     0.36672   0.23647   0.66330   0.00000  Uiso   1.00
H854   H     0.39388   0.21425   0.65844   0.00000  Uiso   1.00
H855   H     0.37055   0.26732   0.64347   0.00000  Uiso   1.00
H856   H     0.33743   0.21956   0.65060   0.00000  Uiso   1.00
H857   H     0.33982   0.27448   0.71401   0.00000  Uiso   1.00
H858   H     0.39376   0.26353   0.72644   0.00000  Uiso   1.00
C859   C     0.75314   0.16668   0.74401   0.00000  Uiso   1.00
C860   C     0.91352   0.16669   0.75599   0.00000  Uiso   1.00
C861   C     0.83288   0.16685   0.66423   0.00000  Uiso   1.00
C862   C     0.83379   0.16685   0.83578   0.00000  Uiso   1.00
C863   C     0.85042   0.02348   0.78563   0.00000  Uiso   1.00
C864   C     0.81595   0.30953   0.71451   0.00000  Uiso   1.00
C865   C     0.81625   0.02348   0.71437   0.00000  Uiso   1.00
C866   C     0.85072   0.30953   0.78549   0.00000  Uiso   1.00
C867   C     0.68556   0.12613   0.73941   0.00000  Uiso   1.00
C868   C     0.98102   0.20736   0.76035   0.00000  Uiso   1.00
C869   C     0.98110   0.12613   0.76062   0.00000  Uiso   1.00
C870   C     0.68565   0.20735   0.73961   0.00000  Uiso   1.00
C871   C     0.86441   0.19434   0.54979   0.00000  Uiso   1.00
C872   C     0.86612   0.14870   0.95560   0.00000  Uiso   1.00
C873   C     0.80227   0.19434   0.95021   0.00000  Uiso   1.00
C874   C     0.80055   0.14871   0.54440   0.00000  Uiso   1.00
C875   C     0.86558   0.19071   0.59616   0.00000  Uiso   1.00
C876   C     0.86763   0.14976   0.90935   0.00000  Uiso   1.00
C877   C     0.80110   0.19071   0.90384   0.00000  Uiso   1.00
C878   C     0.79904   0.14976   0.59065   0.00000  Uiso   1.00
C879   C     0.83293   0.16810   0.61632   0.00000  Uiso   1.00
C880   C     0.83374   0.16809   0.88368   0.00000  Uiso   1.00
C881   C     0.83288   0.17168   0.52414   0.00000  Uiso   1.00
C882   C     0.83380   0.17168   0.97586   0.00000  Uiso   1.00
C883   C     0.95922   0.16671   0.76324   0.00000  Uiso   1.00
C884   C     0.70745   0.16670   0.73676   0.00000  Uiso   1.00
N885   N     0.83333   0.28573   0.75000   0.00000  Uiso   1.00
N886   N     0.83333   0.04760   0.75000   0.00000  Uiso   1.00
O887   O     0.77226   0.20487   0.75000   0.00000  Uiso   1.00
O888   O     0.89441   0.12846   0.75001   0.00000  Uiso   1.00
O889   O     0.89441   0.20487   0.75001   0.00000  Uiso   1.00
O890   O     0.77226   0.12846   0.75000   0.00000  Uiso   1.00
O891   O     0.83333   0.20489   0.68453   0.00000  Uiso   1.00
O892   O     0.83334   0.12845   0.81547   0.00000  Uiso   1.00
O893   O     0.83334   0.20489   0.81547   0.00000  Uiso   1.00
O894   O     0.83333   0.12845   0.68453   0.00000  Uiso   1.00
Zn895  Zn    0.83333   0.21771   0.75000   0.00000  Uiso   1.00
Zn896  Zn    0.83333   0.11563   0.75000   0.00000  Uiso   1.00
Cl897  Cl    0.87228   0.04975   0.83353   0.00000  Uiso   1.00
Cl898  Cl    0.79262   0.28227   0.66752   0.00000  Uiso   1.00
Cl899  Cl    0.79437   0.04975   0.66648   0.00000  Uiso   1.00
Cl900  Cl    0.87407   0.28226   0.83247   0.00000  Uiso   1.00
Cl901  Cl    0.90227   0.22735   0.52395   0.00000  Uiso   1.00
Cl902  Cl    0.90468   0.11836   0.98787   0.00000  Uiso   1.00
Cl903  Cl    0.76442   0.22737   0.97605   0.00000  Uiso   1.00
Cl904  Cl    0.76199   0.11837   0.51213   0.00000  Uiso   1.00
Cl905  Cl    0.90804   0.21440   0.62875   0.00000  Uiso   1.00
Cl906  Cl    0.91416   0.13304   0.88463   0.00000  Uiso   1.00
Cl907  Cl    0.75864   0.21441   0.87126   0.00000  Uiso   1.00
Cl908  Cl    0.75250   0.13303   0.61537   0.00000  Uiso   1.00
C909   C     0.69870   0.08492   0.71414   0.00000  Uiso   1.00
C910   C     0.66675   0.07350   0.67576   0.00000  Uiso   1.00
H911   H     0.99649   0.10207   0.65224   0.00000  Uiso   1.00
H912   H     0.67804   0.04424   0.65714   0.00000  Uiso   1.00
H913   H     0.96888   0.06529   0.68821   0.00000  Uiso   1.00
H914   H     0.70337   0.05587   0.73675   0.00000  Uiso   1.00
H915   H     0.72836   0.09091   0.69802   0.00000  Uiso   1.00
C916   C     0.96913   0.24817   0.78710   0.00000  Uiso   1.00
C917   C     0.96666   0.23654   0.83664   0.00000  Uiso   1.00
H918   H     0.99597   0.21967   0.84934   0.00000  Uiso   1.00
H919   H     0.93953   0.21429   0.84156   0.00000  Uiso   1.00
H920   H     0.96281   0.26740   0.85645   0.00000  Uiso   1.00
H921   H     0.99350   0.27452   0.78588   0.00000  Uiso   1.00
H922   H     0.93957   0.26354   0.77351   0.00000  Uiso   1.00
C923   C     0.96796   0.08494   0.78591   0.00000  Uiso   1.00
C924   C     0.99990   0.07355   0.82430   0.00000  Uiso   1.00
H925   H     0.67016   0.10213   0.84780   0.00000  Uiso   1.00
H926   H     0.98862   0.04430   0.84294   0.00000  Uiso   1.00
H927   H     0.69778   0.06534   0.81186   0.00000  Uiso   1.00
H928   H     0.96329   0.05588   0.76332   0.00000  Uiso   1.00
H929   H     0.93829   0.09094   0.80202   0.00000  Uiso   1.00
C930   C     0.69754   0.24814   0.71283   0.00000  Uiso   1.00
C931   C     0.70005   0.23647   0.66330   0.00000  Uiso   1.00
H932   H     0.72721   0.21425   0.65844   0.00000  Uiso   1.00
H933   H     0.70389   0.26732   0.64347   0.00000  Uiso   1.00
H934   H     0.67077   0.21956   0.65060   0.00000  Uiso   1.00
H935   H     0.67316   0.27448   0.71401   0.00000  Uiso   1.00
H936   H     0.72709   0.26353   0.72644   0.00000  Uiso   1.00
C937   C     0.08648   0.50002   0.74401   0.00000  Uiso   1.00
C938   C     0.24685   0.50002   0.75599   0.00000  Uiso   1.00
C939   C     0.16621   0.50018   0.66423   0.00000  Uiso   1.00
C940   C     0.16712   0.50018   0.83578   0.00000  Uiso   1.00
C941   C     0.18375   0.35681   0.78563   0.00000  Uiso   1.00
C942   C     0.14928   0.64287   0.71451   0.00000  Uiso   1.00
C943   C     0.14958   0.35681   0.71437   0.00000  Uiso   1.00
C944   C     0.18406   0.64287   0.78549   0.00000  Uiso   1.00
C945   C     0.01889   0.45946   0.73941   0.00000  Uiso   1.00
C946   C     0.31435   0.54069   0.76035   0.00000  Uiso   1.00
C947   C     0.31444   0.45947   0.76062   0.00000  Uiso   1.00
C948   C     0.01898   0.54069   0.73961   0.00000  Uiso   1.00
C949   C     0.19774   0.52767   0.54979   0.00000  Uiso   1.00
C950   C     0.19945   0.48203   0.95560   0.00000  Uiso   1.00
C951   C     0.13560   0.52768   0.95021   0.00000  Uiso   1.00
C952   C     0.13388   0.48204   0.54440   0.00000  Uiso   1.00
C953   C     0.19891   0.52404   0.59616   0.00000  Uiso   1.00
C954   C     0.20096   0.48310   0.90935   0.00000  Uiso   1.00
C955   C     0.13443   0.52404   0.90384   0.00000  Uiso   1.00
C956   C     0.13237   0.48310   0.59065   0.00000  Uiso   1.00
C957   C     0.16627   0.50143   0.61632   0.00000  Uiso   1.00
C958   C     0.16707   0.50143   0.88368   0.00000  Uiso   1.00
C959   C     0.16621   0.50502   0.52414   0.00000  Uiso   1.00
C960   C     0.16713   0.50502   0.97586   0.00000  Uiso   1.00
C961   C     0.29255   0.50004   0.76324   0.00000  Uiso   1.00
C962   C     0.04078   0.50004   0.73676   0.00000  Uiso   1.00
N963   N     0.16667   0.61907   0.75000   0.00000  Uiso   1.00
N964   N     0.16667   0.38093   0.75000   0.00000  Uiso   1.00
O965   O     0.10559   0.53821   0.75000   0.00000  Uiso   1.00
O966   O     0.22774   0.46179   0.75001   0.00000  Uiso   1.00
O967   O     0.22774   0.53821   0.75001   0.00000  Uiso   1.00
O968   O     0.10559   0.46179   0.75000   0.00000  Uiso   1.00
O969   O     0.16666   0.53822   0.68453   0.00000  Uiso   1.00
O970   O     0.16667   0.46178   0.81547   0.00000  Uiso   1.00
O971   O     0.16667   0.53822   0.81547   0.00000  Uiso   1.00
O972   O     0.16666   0.46178   0.68453   0.00000  Uiso   1.00
Zn973  Zn    0.16667   0.55104   0.75000   0.00000  Uiso   1.00
Zn974  Zn    0.16667   0.44896   0.75000   0.00000  Uiso   1.00
Cl975  Cl    0.20562   0.38308   0.83353   0.00000  Uiso   1.00
Cl976  Cl    0.12595   0.61560   0.66752   0.00000  Uiso   1.00
Cl977  Cl    0.12771   0.38308   0.66648   0.00000  Uiso   1.00
Cl978  Cl    0.20740   0.61560   0.83247   0.00000  Uiso   1.00
Cl979  Cl    0.23560   0.56069   0.52395   0.00000  Uiso   1.00
Cl980  Cl    0.23801   0.45169   0.98787   0.00000  Uiso   1.00
Cl981  Cl    0.09776   0.56070   0.97605   0.00000  Uiso   1.00
Cl982  Cl    0.09532   0.45171   0.51213   0.00000  Uiso   1.00
Cl983  Cl    0.24137   0.54774   0.62875   0.00000  Uiso   1.00
Cl984  Cl    0.24750   0.46637   0.88463   0.00000  Uiso   1.00
Cl985  Cl    0.09197   0.54774   0.87126   0.00000  Uiso   1.00
Cl986  Cl    0.08584   0.46636   0.61537   0.00000  Uiso   1.00
C987   C     0.03203   0.41825   0.71414   0.00000  Uiso   1.00
C988   C     0.00009   0.40684   0.67576   0.00000  Uiso   1.00
H989   H     0.32982   0.43540   0.65224   0.00000  Uiso   1.00
H990   H     0.01137   0.37758   0.65714   0.00000  Uiso   1.00
H991   H     0.30221   0.39862   0.68821   0.00000  Uiso   1.00
H992   H     0.03670   0.38921   0.73675   0.00000  Uiso   1.00
H993   H     0.06170   0.42424   0.69802   0.00000  Uiso   1.00
C994   C     0.30246   0.58150   0.78710   0.00000  Uiso   1.00
C995   C     0.29999   0.56987   0.83664   0.00000  Uiso   1.00
H996   H     0.32930   0.55301   0.84934   0.00000  Uiso   1.00
H997   H     0.27286   0.54763   0.84156   0.00000  Uiso   1.00
H998   H     0.29615   0.60073   0.85645   0.00000  Uiso   1.00
H999   H     0.32683   0.60785   0.78588   0.00000  Uiso   1.00
H1000  H     0.27290   0.59687   0.77351   0.00000  Uiso   1.00
C1001  C     0.30130   0.41827   0.78591   0.00000  Uiso   1.00
C1002  C     0.33324   0.40688   0.82430   0.00000  Uiso   1.00
H1003  H     0.00350   0.43546   0.84780   0.00000  Uiso   1.00
H1004  H     0.32195   0.37763   0.84294   0.00000  Uiso   1.00
H1005  H     0.03112   0.39868   0.81186   0.00000  Uiso   1.00
H1006  H     0.29663   0.38921   0.76332   0.00000  Uiso   1.00
H1007  H     0.27163   0.42427   0.80202   0.00000  Uiso   1.00
C1008  C     0.03087   0.58148   0.71283   0.00000  Uiso   1.00
C1009  C     0.03339   0.56981   0.66330   0.00000  Uiso   1.00
H1010  H     0.06055   0.54758   0.65844   0.00000  Uiso   1.00
H1011  H     0.03722   0.60065   0.64347   0.00000  Uiso   1.00
H1012  H     0.00410   0.55289   0.65060   0.00000  Uiso   1.00
H1013  H     0.00649   0.60782   0.71401   0.00000  Uiso   1.00
H1014  H     0.06042   0.59687   0.72644   0.00000  Uiso   1.00
C1015  C     0.41981   0.50002   0.74401   0.00000  Uiso   1.00
C1016  C     0.58019   0.50002   0.75599   0.00000  Uiso   1.00
C1017  C     0.49954   0.50018   0.66423   0.00000  Uiso   1.00
C1018  C     0.50046   0.50018   0.83578   0.00000  Uiso   1.00
C1019  C     0.51708   0.35681   0.78563   0.00000  Uiso   1.00
C1020  C     0.48261   0.64287   0.71451   0.00000  Uiso   1.00
C1021  C     0.48292   0.35681   0.71437   0.00000  Uiso   1.00
C1022  C     0.51739   0.64287   0.78549   0.00000  Uiso   1.00
C1023  C     0.35223   0.45946   0.73941   0.00000  Uiso   1.00
C1024  C     0.64768   0.54069   0.76035   0.00000  Uiso   1.00
C1025  C     0.64777   0.45947   0.76062   0.00000  Uiso   1.00
C1026  C     0.35232   0.54069   0.73961   0.00000  Uiso   1.00
C1027  C     0.53107   0.52767   0.54979   0.00000  Uiso   1.00
C1028  C     0.53279   0.48203   0.95560   0.00000  Uiso   1.00
C1029  C     0.46894   0.52768   0.95021   0.00000  Uiso   1.00
C1030  C     0.46721   0.48204   0.54440   0.00000  Uiso   1.00
C1031  C     0.53224   0.52404   0.59616   0.00000  Uiso   1.00
C1032  C     0.53430   0.48310   0.90935   0.00000  Uiso   1.00
C1033  C     0.46776   0.52404   0.90384   0.00000  Uiso   1.00
C1034  C     0.46570   0.48310   0.59065   0.00000  Uiso   1.00
C1035  C     0.49960   0.50143   0.61632   0.00000  Uiso   1.00
C1036  C     0.50040   0.50143   0.88368   0.00000  Uiso   1.00
C1037  C     0.49954   0.50502   0.52414   0.00000  Uiso   1.00
C1038  C     0.50047   0.50502   0.97586   0.00000  Uiso   1.00
C1039  C     0.62589   0.50004   0.76324   0.00000  Uiso   1.00
C1040  C     0.37411   0.50004   0.73676   0.00000  Uiso   1.00
N1041  N     0.50000   0.61907   0.75000   0.00000  Uiso   1.00
N1042  N     0.50000   0.38093   0.75000   0.00000  Uiso   1.00
O1043  O     0.43892   0.53821   0.75000   0.00000  Uiso   1.00
O1044  O     0.56108   0.46179   0.75001   0.00000  Uiso   1.00
O1045  O     0.56108   0.53821   0.75001   0.00000  Uiso   1.00
O1046  O     0.43892   0.46179   0.75000   0.00000  Uiso   1.00
O1047  O     0.50000   0.53822   0.68453   0.00000  Uiso   1.00
O1048  O     0.50000   0.46178   0.81547   0.00000  Uiso   1.00
O1049  O     0.50000   0.53822   0.81547   0.00000  Uiso   1.00
O1050  O     0.50000   0.46178   0.68453   0.00000  Uiso   1.00
Zn1051 Zn    0.50000   0.55104   0.75000   0.00000  Uiso   1.00
Zn1052 Zn    0.50000   0.44896   0.75000   0.00000  Uiso   1.00
Cl1053 Cl    0.53895   0.38308   0.83353   0.00000  Uiso   1.00
Cl1054 Cl    0.45929   0.61560   0.66752   0.00000  Uiso   1.00
Cl1055 Cl    0.46104   0.38308   0.66648   0.00000  Uiso   1.00
Cl1056 Cl    0.54074   0.61560   0.83247   0.00000  Uiso   1.00
Cl1057 Cl    0.56893   0.56069   0.52395   0.00000  Uiso   1.00
Cl1058 Cl    0.57134   0.45169   0.98787   0.00000  Uiso   1.00
Cl1059 Cl    0.43109   0.56070   0.97605   0.00000  Uiso   1.00
Cl1060 Cl    0.42865   0.45171   0.51213   0.00000  Uiso   1.00
Cl1061 Cl    0.57471   0.54774   0.62875   0.00000  Uiso   1.00
Cl1062 Cl    0.58083   0.46637   0.88463   0.00000  Uiso   1.00
Cl1063 Cl    0.42530   0.54774   0.87126   0.00000  Uiso   1.00
Cl1064 Cl    0.41917   0.46636   0.61537   0.00000  Uiso   1.00
C1065  C     0.36537   0.41825   0.71414   0.00000  Uiso   1.00
C1066  C     0.33342   0.40684   0.67576   0.00000  Uiso   1.00
H1067  H     0.66315   0.43540   0.65224   0.00000  Uiso   1.00
H1068  H     0.34471   0.37758   0.65714   0.00000  Uiso   1.00
H1069  H     0.63554   0.39862   0.68821   0.00000  Uiso   1.00
H1070  H     0.37004   0.38921   0.73675   0.00000  Uiso   1.00
H1071  H     0.39503   0.42424   0.69802   0.00000  Uiso   1.00
C1072  C     0.63580   0.58150   0.78710   0.00000  Uiso   1.00
C1073  C     0.63333   0.56987   0.83664   0.00000  Uiso   1.00
H1074  H     0.66264   0.55301   0.84934   0.00000  Uiso   1.00
H1075  H     0.60619   0.54763   0.84156   0.00000  Uiso   1.00
H1076  H     0.62948   0.60073   0.85645   0.00000  Uiso   1.00
H1077  H     0.66017   0.60785   0.78588   0.00000  Uiso   1.00
H1078  H     0.60623   0.59687   0.77351   0.00000  Uiso   1.00
C1079  C     0.63463   0.41827   0.78591   0.00000  Uiso   1.00
C1080  C     0.66657   0.40688   0.82430   0.00000  Uiso   1.00
H1081  H     0.33683   0.43546   0.84780   0.00000  Uiso   1.00
H1082  H     0.65529   0.37763   0.84294   0.00000  Uiso   1.00
H1083  H     0.36445   0.39868   0.81186   0.00000  Uiso   1.00
H1084  H     0.62996   0.38921   0.76332   0.00000  Uiso   1.00
H1085  H     0.60496   0.42427   0.80202   0.00000  Uiso   1.00
C1086  C     0.36421   0.58148   0.71283   0.00000  Uiso   1.00
C1087  C     0.36672   0.56981   0.66330   0.00000  Uiso   1.00
H1088  H     0.39388   0.54758   0.65844   0.00000  Uiso   1.00
H1089  H     0.37055   0.60065   0.64347   0.00000  Uiso   1.00
H1090  H     0.33743   0.55289   0.65060   0.00000  Uiso   1.00
H1091  H     0.33982   0.60782   0.71401   0.00000  Uiso   1.00
H1092  H     0.39376   0.59687   0.72644   0.00000  Uiso   1.00
C1093  C     0.75314   0.50002   0.74401   0.00000  Uiso   1.00
C1094  C     0.91352   0.50002   0.75599   0.00000  Uiso   1.00
C1095  C     0.83288   0.50018   0.66423   0.00000  Uiso   1.00
C1096  C     0.83379   0.50018   0.83578   0.00000  Uiso   1.00
C1097  C     0.85042   0.35681   0.78563   0.00000  Uiso   1.00
C1098  C     0.81595   0.64287   0.71451   0.00000  Uiso   1.00
C1099  C     0.81625   0.35681   0.71437   0.00000  Uiso   1.00
C1100  C     0.85072   0.64287   0.78549   0.00000  Uiso   1.00
C1101  C     0.68556   0.45946   0.73941   0.00000  Uiso   1.00
C1102  C     0.98102   0.54069   0.76035   0.00000  Uiso   1.00
C1103  C     0.98110   0.45947   0.76062   0.00000  Uiso   1.00
C1104  C     0.68565   0.54069   0.73961   0.00000  Uiso   1.00
C1105  C     0.86441   0.52767   0.54979   0.00000  Uiso   1.00
C1106  C     0.86612   0.48203   0.95560   0.00000  Uiso   1.00
C1107  C     0.80227   0.52768   0.95021   0.00000  Uiso   1.00
C1108  C     0.80055   0.48204   0.54440   0.00000  Uiso   1.00
C1109  C     0.86558   0.52404   0.59616   0.00000  Uiso   1.00
C1110  C     0.86763   0.48310   0.90935   0.00000  Uiso   1.00
C1111  C     0.80110   0.52404   0.90384   0.00000  Uiso   1.00
C1112  C     0.79904   0.48310   0.59065   0.00000  Uiso   1.00
C1113  C     0.83293   0.50143   0.61632   0.00000  Uiso   1.00
C1114  C     0.83374   0.50143   0.88368   0.00000  Uiso   1.00
C1115  C     0.83288   0.50502   0.52414   0.00000  Uiso   1.00
C1116  C     0.83380   0.50502   0.97586   0.00000  Uiso   1.00
C1117  C     0.95922   0.50004   0.76324   0.00000  Uiso   1.00
C1118  C     0.70745   0.50004   0.73676   0.00000  Uiso   1.00
N1119  N     0.83333   0.61907   0.75000   0.00000  Uiso   1.00
N1120  N     0.83333   0.38093   0.75000   0.00000  Uiso   1.00
O1121  O     0.77226   0.53821   0.75000   0.00000  Uiso   1.00
O1122  O     0.89441   0.46179   0.75001   0.00000  Uiso   1.00
O1123  O     0.89441   0.53821   0.75001   0.00000  Uiso   1.00
O1124  O     0.77226   0.46179   0.75000   0.00000  Uiso   1.00
O1125  O     0.83333   0.53822   0.68453   0.00000  Uiso   1.00
O1126  O     0.83334   0.46178   0.81547   0.00000  Uiso   1.00
O1127  O     0.83334   0.53822   0.81547   0.00000  Uiso   1.00
O1128  O     0.83333   0.46178   0.68453   0.00000  Uiso   1.00
Zn1129 Zn    0.83333   0.55104   0.75000   0.00000  Uiso   1.00
Zn1130 Zn    0.83333   0.44896   0.75000   0.00000  Uiso   1.00
Cl1131 Cl    0.87228   0.38308   0.83353   0.00000  Uiso   1.00
Cl1132 Cl    0.79262   0.61560   0.66752   0.00000  Uiso   1.00
Cl1133 Cl    0.79437   0.38308   0.66648   0.00000  Uiso   1.00
Cl1134 Cl    0.87407   0.61560   0.83247   0.00000  Uiso   1.00
Cl1135 Cl    0.90227   0.56069   0.52395   0.00000  Uiso   1.00
Cl1136 Cl    0.90468   0.45169   0.98787   0.00000  Uiso   1.00
Cl1137 Cl    0.76442   0.56070   0.97605   0.00000  Uiso   1.00
Cl1138 Cl    0.76199   0.45171   0.51213   0.00000  Uiso   1.00
Cl1139 Cl    0.90804   0.54774   0.62875   0.00000  Uiso   1.00
Cl1140 Cl    0.91416   0.46637   0.88463   0.00000  Uiso   1.00
Cl1141 Cl    0.75864   0.54774   0.87126   0.00000  Uiso   1.00
Cl1142 Cl    0.75250   0.46636   0.61537   0.00000  Uiso   1.00
C1143  C     0.69870   0.41825   0.71414   0.00000  Uiso   1.00
C1144  C     0.66675   0.40684   0.67576   0.00000  Uiso   1.00
H1145  H     0.99649   0.43540   0.65224   0.00000  Uiso   1.00
H1146  H     0.67804   0.37758   0.65714   0.00000  Uiso   1.00
H1147  H     0.96888   0.39862   0.68821   0.00000  Uiso   1.00
H1148  H     0.70337   0.38921   0.73675   0.00000  Uiso   1.00
H1149  H     0.72836   0.42424   0.69802   0.00000  Uiso   1.00
C1150  C     0.96913   0.58150   0.78710   0.00000  Uiso   1.00
C1151  C     0.96666   0.56987   0.83664   0.00000  Uiso   1.00
H1152  H     0.99597   0.55301   0.84934   0.00000  Uiso   1.00
H1153  H     0.93953   0.54763   0.84156   0.00000  Uiso   1.00
H1154  H     0.96281   0.60073   0.85645   0.00000  Uiso   1.00
H1155  H     0.99350   0.60785   0.78588   0.00000  Uiso   1.00
H1156  H     0.93957   0.59687   0.77351   0.00000  Uiso   1.00
C1157  C     0.96796   0.41827   0.78591   0.00000  Uiso   1.00
C1158  C     0.99990   0.40688   0.82430   0.00000  Uiso   1.00
H1159  H     0.67016   0.43546   0.84780   0.00000  Uiso   1.00
H1160  H     0.98862   0.37763   0.84294   0.00000  Uiso   1.00
H1161  H     0.69778   0.39868   0.81186   0.00000  Uiso   1.00
H1162  H     0.96329   0.38921   0.76332   0.00000  Uiso   1.00
H1163  H     0.93829   0.42427   0.80202   0.00000  Uiso   1.00
C1164  C     0.69754   0.58148   0.71283   0.00000  Uiso   1.00
C1165  C     0.70005   0.56981   0.66330   0.00000  Uiso   1.00
H1166  H     0.72721   0.54758   0.65844   0.00000  Uiso   1.00
H1167  H     0.70389   0.60065   0.64347   0.00000  Uiso   1.00
H1168  H     0.67077   0.55289   0.65060   0.00000  Uiso   1.00
H1169  H     0.67316   0.60782   0.71401   0.00000  Uiso   1.00
H1170  H     0.72709   0.59687   0.72644   0.00000  Uiso   1.00
C1171  C     0.08648   0.83335   0.74401   0.00000  Uiso   1.00
C1172  C     0.24685   0.83335   0.75599   0.00000  Uiso   1.00
C1173  C     0.16621   0.83352   0.66423   0.00000  Uiso   1.00
C1174  C     0.16712   0.83352   0.83578   0.00000  Uiso   1.00
C1175  C     0.18375   0.69014   0.78563   0.00000  Uiso   1.00
C1176  C     0.14928   0.97620   0.71451   0.00000  Uiso   1.00
C1177  C     0.14958   0.69014   0.71437   0.00000  Uiso   1.00
C1178  C     0.18406   0.97620   0.78549   0.00000  Uiso   1.00
C1179  C     0.01889   0.79280   0.73941   0.00000  Uiso   1.00
C1180  C     0.31435   0.87403   0.76035   0.00000  Uiso   1.00
C1181  C     0.31444   0.79280   0.76062   0.00000  Uiso   1.00
C1182  C     0.01898   0.87402   0.73961   0.00000  Uiso   1.00
C1183  C     0.19774   0.86100   0.54979   0.00000  Uiso   1.00
C1184  C     0.19945   0.81537   0.95560   0.00000  Uiso   1.00
C1185  C     0.13560   0.86101   0.95021   0.00000  Uiso   1.00
C1186  C     0.13388   0.81537   0.54440   0.00000  Uiso   1.00
C1187  C     0.19891   0.85737   0.59616   0.00000  Uiso   1.00
C1188  C     0.20096   0.81643   0.90935   0.00000  Uiso   1.00
C1189  C     0.13443   0.85738   0.90384   0.00000  Uiso   1.00
C1190  C     0.13237   0.81643   0.59065   0.00000  Uiso   1.00
C1191  C     0.16627   0.83476   0.61632   0.00000  Uiso   1.00
C1192  C     0.16707   0.83476   0.88368   0.00000  Uiso   1.00
C1193  C     0.16621   0.83835   0.52414   0.00000  Uiso   1.00
C1194  C     0.16713   0.83835   0.97586   0.00000  Uiso   1.00
C1195  C     0.29255   0.83338   0.76324   0.00000  Uiso   1.00
C1196  C     0.04078   0.83337   0.73676   0.00000  Uiso   1.00
N1197  N     0.16667   0.95240   0.75000   0.00000  Uiso   1.00
N1198  N     0.16667   0.71427   0.75000   0.00000  Uiso   1.00
O1199  O     0.10559   0.87154   0.75000   0.00000  Uiso   1.00
O1200  O     0.22774   0.79513   0.75001   0.00000  Uiso   1.00
O1201  O     0.22774   0.87154   0.75001   0.00000  Uiso   1.00
O1202  O     0.10559   0.79513   0.75000   0.00000  Uiso   1.00
O1203  O     0.16666   0.87155   0.68453   0.00000  Uiso   1.00
O1204  O     0.16667   0.79511   0.81547   0.00000  Uiso   1.00
O1205  O     0.16667   0.87155   0.81547   0.00000  Uiso   1.00
O1206  O     0.16666   0.79511   0.68453   0.00000  Uiso   1.00
Zn1207 Zn    0.16667   0.88437   0.75000   0.00000  Uiso   1.00
Zn1208 Zn    0.16667   0.78229   0.75000   0.00000  Uiso   1.00
Cl1209 Cl    0.20562   0.71642   0.83353   0.00000  Uiso   1.00
Cl1210 Cl    0.12595   0.94894   0.66752   0.00000  Uiso   1.00
Cl1211 Cl    0.12771   0.71642   0.66648   0.00000  Uiso   1.00
Cl1212 Cl    0.20740   0.94893   0.83247   0.00000  Uiso   1.00
Cl1213 Cl    0.23560   0.89402   0.52395   0.00000  Uiso   1.00
Cl1214 Cl    0.23801   0.78503   0.98787   0.00000  Uiso   1.00
Cl1215 Cl    0.09776   0.89403   0.97605   0.00000  Uiso   1.00
Cl1216 Cl    0.09532   0.78504   0.51213   0.00000  Uiso   1.00
Cl1217 Cl    0.24137   0.88107   0.62875   0.00000  Uiso   1.00
Cl1218 Cl    0.24750   0.79970   0.88463   0.00000  Uiso   1.00
Cl1219 Cl    0.09197   0.88107   0.87126   0.00000  Uiso   1.00
Cl1220 Cl    0.08584   0.79970   0.61537   0.00000  Uiso   1.00
C1221  C     0.03203   0.75159   0.71414   0.00000  Uiso   1.00
C1222  C     0.00009   0.74017   0.67576   0.00000  Uiso   1.00
H1223  H     0.32982   0.76874   0.65224   0.00000  Uiso   1.00
H1224  H     0.01137   0.71091   0.65714   0.00000  Uiso   1.00
H1225  H     0.30221   0.73196   0.68821   0.00000  Uiso   1.00
H1226  H     0.03670   0.72254   0.73675   0.00000  Uiso   1.00
H1227  H     0.06170   0.75758   0.69802   0.00000  Uiso   1.00
C1228  C     0.30246   0.91484   0.78710   0.00000  Uiso   1.00
C1229  C     0.29999   0.90321   0.83664   0.00000  Uiso   1.00
H1230  H     0.32930   0.88634   0.84934   0.00000  Uiso   1.00
H1231  H     0.27286   0.88096   0.84156   0.00000  Uiso   1.00
H1232  H     0.29615   0.93406   0.85645   0.00000  Uiso   1.00
H1233  H     0.32683   0.94118   0.78588   0.00000  Uiso   1.00
H1234  H     0.27290   0.93020   0.77351   0.00000  Uiso   1.00
C1235  C     0.30130   0.75161   0.78591   0.00000  Uiso   1.00
C1236  C     0.33324   0.74022   0.82430   0.00000  Uiso   1.00
H1237  H     0.00350   0.76880   0.84780   0.00000  Uiso   1.00
H1238  H     0.32195   0.71097   0.84294   0.00000  Uiso   1.00
H1239  H     0.03112   0.73201   0.81186   0.00000  Uiso   1.00
H1240  H     0.29663   0.72255   0.76332   0.00000  Uiso   1.00
H1241  H     0.27163   0.75761   0.80202   0.00000  Uiso   1.00
C1242  C     0.03087   0.91481   0.71283   0.00000  Uiso   1.00
C1243  C     0.03339   0.90314   0.66330   0.00000  Uiso   1.00
H1244  H     0.06055   0.88092   0.65844   0.00000  Uiso   1.00
H1245  H     0.03722   0.93398   0.64347   0.00000  Uiso   1.00
H1246  H     0.00410   0.88623   0.65060   0.00000  Uiso   1.00
H1247  H     0.00649   0.94115   0.71401   0.00000  Uiso   1.00
H1248  H     0.06042   0.93020   0.72644   0.00000  Uiso   1.00
C1249  C     0.41981   0.83335   0.74401   0.00000  Uiso   1.00
C1250  C     0.58019   0.83335   0.75599   0.00000  Uiso   1.00
C1251  C     0.49954   0.83352   0.66423   0.00000  Uiso   1.00
C1252  C     0.50046   0.83352   0.83578   0.00000  Uiso   1.00
C1253  C     0.51708   0.69014   0.78563   0.00000  Uiso   1.00
C1254  C     0.48261   0.97620   0.71451   0.00000  Uiso   1.00
C1255  C     0.48292   0.69014   0.71437   0.00000  Uiso   1.00
C1256  C     0.51739   0.97620   0.78549   0.00000  Uiso   1.00
C1257  C     0.35223   0.79280   0.73941   0.00000  Uiso   1.00
C1258  C     0.64768   0.87403   0.76035   0.00000  Uiso   1.00
C1259  C     0.64777   0.79280   0.76062   0.00000  Uiso   1.00
C1260  C     0.35232   0.87402   0.73961   0.00000  Uiso   1.00
C1261  C     0.53107   0.86100   0.54979   0.00000  Uiso   1.00
C1262  C     0.53279   0.81537   0.95560   0.00000  Uiso   1.00
C1263  C     0.46894   0.86101   0.95021   0.00000  Uiso   1.00
C1264  C     0.46721   0.81537   0.54440   0.00000  Uiso   1.00
C1265  C     0.53224   0.85737   0.59616   0.00000  Uiso   1.00
C1266  C     0.53430   0.81643   0.90935   0.00000  Uiso   1.00
C1267  C     0.46776   0.85738   0.90384   0.00000  Uiso   1.00
C1268  C     0.46570   0.81643   0.59065   0.00000  Uiso   1.00
C1269  C     0.49960   0.83476   0.61632   0.00000  Uiso   1.00
C1270  C     0.50040   0.83476   0.88368   0.00000  Uiso   1.00
C1271  C     0.49954   0.83835   0.52414   0.00000  Uiso   1.00
C1272  C     0.50047   0.83835   0.97586   0.00000  Uiso   1.00
C1273  C     0.62589   0.83338   0.76324   0.00000  Uiso   1.00
C1274  C     0.37411   0.83337   0.73676   0.00000  Uiso   1.00
N1275  N     0.50000   0.95240   0.75000   0.00000  Uiso   1.00
N1276  N     0.50000   0.71427   0.75000   0.00000  Uiso   1.00
O1277  O     0.43892   0.87154   0.75000   0.00000  Uiso   1.00
O1278  O     0.56108   0.79513   0.75001   0.00000  Uiso   1.00
O1279  O     0.56108   0.87154   0.75001   0.00000  Uiso   1.00
O1280  O     0.43892   0.79513   0.75000   0.00000  Uiso   1.00
O1281  O     0.50000   0.87155   0.68453   0.00000  Uiso   1.00
O1282  O     0.50000   0.79511   0.81547   0.00000  Uiso   1.00
O1283  O     0.50000   0.87155   0.81547   0.00000  Uiso   1.00
O1284  O     0.50000   0.79511   0.68453   0.00000  Uiso   1.00
Zn1285 Zn    0.50000   0.88437   0.75000   0.00000  Uiso   1.00
Zn1286 Zn    0.50000   0.78229   0.75000   0.00000  Uiso   1.00
Cl1287 Cl    0.53895   0.71642   0.83353   0.00000  Uiso   1.00
Cl1288 Cl    0.45929   0.94894   0.66752   0.00000  Uiso   1.00
Cl1289 Cl    0.46104   0.71642   0.66648   0.00000  Uiso   1.00
Cl1290 Cl    0.54074   0.94893   0.83247   0.00000  Uiso   1.00
Cl1291 Cl    0.56893   0.89402   0.52395   0.00000  Uiso   1.00
Cl1292 Cl    0.57134   0.78503   0.98787   0.00000  Uiso   1.00
Cl1293 Cl    0.43109   0.89403   0.97605   0.00000  Uiso   1.00
Cl1294 Cl    0.42865   0.78504   0.51213   0.00000  Uiso   1.00
Cl1295 Cl    0.57471   0.88107   0.62875   0.00000  Uiso   1.00
Cl1296 Cl    0.58083   0.79970   0.88463   0.00000  Uiso   1.00
Cl1297 Cl    0.42530   0.88107   0.87126   0.00000  Uiso   1.00
Cl1298 Cl    0.41917   0.79970   0.61537   0.00000  Uiso   1.00
C1299  C     0.36537   0.75159   0.71414   0.00000  Uiso   1.00
C1300  C     0.33342   0.74017   0.67576   0.00000  Uiso   1.00
H1301  H     0.66315   0.76874   0.65224   0.00000  Uiso   1.00
H1302  H     0.34471   0.71091   0.65714   0.00000  Uiso   1.00
H1303  H     0.63554   0.73196   0.68821   0.00000  Uiso   1.00
H1304  H     0.37004   0.72254   0.73675   0.00000  Uiso   1.00
H1305  H     0.39503   0.75758   0.69802   0.00000  Uiso   1.00
C1306  C     0.63580   0.91484   0.78710   0.00000  Uiso   1.00
C1307  C     0.63333   0.90321   0.83664   0.00000  Uiso   1.00
H1308  H     0.66264   0.88634   0.84934   0.00000  Uiso   1.00
H1309  H     0.60619   0.88096   0.84156   0.00000  Uiso   1.00
H1310  H     0.62948   0.93406   0.85645   0.00000  Uiso   1.00
H1311  H     0.66017   0.94118   0.78588   0.00000  Uiso   1.00
H1312  H     0.60623   0.93020   0.77351   0.00000  Uiso   1.00
C1313  C     0.63463   0.75161   0.78591   0.00000  Uiso   1.00
C1314  C     0.66657   0.74022   0.82430   0.00000  Uiso   1.00
H1315  H     0.33683   0.76880   0.84780   0.00000  Uiso   1.00
H1316  H     0.65529   0.71097   0.84294   0.00000  Uiso   1.00
H1317  H     0.36445   0.73201   0.81186   0.00000  Uiso   1.00
H1318  H     0.62996   0.72255   0.76332   0.00000  Uiso   1.00
H1319  H     0.60496   0.75761   0.80202   0.00000  Uiso   1.00
C1320  C     0.36421   0.91481   0.71283   0.00000  Uiso   1.00
C1321  C     0.36672   0.90314   0.66330   0.00000  Uiso   1.00
H1322  H     0.39388   0.88092   0.65844   0.00000  Uiso   1.00
H1323  H     0.37055   0.93398   0.64347   0.00000  Uiso   1.00
H1324  H     0.33743   0.88623   0.65060   0.00000  Uiso   1.00
H1325  H     0.33982   0.94115   0.71401   0.00000  Uiso   1.00
H1326  H     0.39376   0.93020   0.72644   0.00000  Uiso   1.00
C1327  C     0.75314   0.83335   0.74401   0.00000  Uiso   1.00
C1328  C     0.91352   0.83335   0.75599   0.00000  Uiso   1.00
C1329  C     0.83288   0.83352   0.66423   0.00000  Uiso   1.00
C1330  C     0.83379   0.83352   0.83578   0.00000  Uiso   1.00
C1331  C     0.85042   0.69014   0.78563   0.00000  Uiso   1.00
C1332  C     0.81595   0.97620   0.71451   0.00000  Uiso   1.00
C1333  C     0.81625   0.69014   0.71437   0.00000  Uiso   1.00
C1334  C     0.85072   0.97620   0.78549   0.00000  Uiso   1.00
C1335  C     0.68556   0.79280   0.73941   0.00000  Uiso   1.00
C1336  C     0.98102   0.87403   0.76035   0.00000  Uiso   1.00
C1337  C     0.98110   0.79280   0.76062   0.00000  Uiso   1.00
C1338  C     0.68565   0.87402   0.73961   0.00000  Uiso   1.00
C1339  C     0.86441   0.86100   0.54979   0.00000  Uiso   1.00
C1340  C     0.86612   0.81537   0.95560   0.00000  Uiso   1.00
C1341  C     0.80227   0.86101   0.95021   0.00000  Uiso   1.00
C1342  C     0.80055   0.81537   0.54440   0.00000  Uiso   1.00
C1343  C     0.86558   0.85737   0.59616   0.00000  Uiso   1.00
C1344  C     0.86763   0.81643   0.90935   0.00000  Uiso   1.00
C1345  C     0.80110   0.85738   0.90384   0.00000  Uiso   1.00
C1346  C     0.79904   0.81643   0.59065   0.00000  Uiso   1.00
C1347  C     0.83293   0.83476   0.61632   0.00000  Uiso   1.00
C1348  C     0.83374   0.83476   0.88368   0.00000  Uiso   1.00
C1349  C     0.83288   0.83835   0.52414   0.00000  Uiso   1.00
C1350  C     0.83380   0.83835   0.97586   0.00000  Uiso   1.00
C1351  C     0.95922   0.83338   0.76324   0.00000  Uiso   1.00
C1352  C     0.70745   0.83337   0.73676   0.00000  Uiso   1.00
N1353  N     0.83333   0.95240   0.75000   0.00000  Uiso   1.00
N1354  N     0.83333   0.71427   0.75000   0.00000  Uiso   1.00
O1355  O     0.77226   0.87154   0.75000   0.00000  Uiso   1.00
O1356  O     0.89441   0.79513   0.75001   0.00000  Uiso   1.00
O1357  O     0.89441   0.87154   0.75001   0.00000  Uiso   1.00
O1358  O     0.77226   0.79513   0.75000   0.00000  Uiso   1.00
O1359  O     0.83333   0.87155   0.68453   0.00000  Uiso   1.00
O1360  O     0.83334   0.79511   0.81547   0.00000  Uiso   1.00
O1361  O     0.83334   0.87155   0.81547   0.00000  Uiso   1.00
O1362  O     0.83333   0.79511   0.68453   0.00000  Uiso   1.00
Zn1363 Zn    0.83333   0.88437   0.75000   0.00000  Uiso   1.00
Zn1364 Zn    0.83333   0.78229   0.75000   0.00000  Uiso   1.00
Cl1365 Cl    0.87228   0.71642   0.83353   0.00000  Uiso   1.00
Cl1366 Cl    0.79262   0.94894   0.66752   0.00000  Uiso   1.00
Cl1367 Cl    0.79437   0.71642   0.66648   0.00000  Uiso   1.00
Cl1368 Cl    0.87407   0.94893   0.83247   0.00000  Uiso   1.00
Cl1369 Cl    0.90227   0.89402   0.52395   0.00000  Uiso   1.00
Cl1370 Cl    0.90468   0.78503   0.98787   0.00000  Uiso   1.00
Cl1371 Cl    0.76442   0.89403   0.97605   0.00000  Uiso   1.00
Cl1372 Cl    0.76199   0.78504   0.51213   0.00000  Uiso   1.00
Cl1373 Cl    0.90804   0.88107   0.62875   0.00000  Uiso   1.00
Cl1374 Cl    0.91416   0.79970   0.88463   0.00000  Uiso   1.00
Cl1375 Cl    0.75864   0.88107   0.87126   0.00000  Uiso   1.00
Cl1376 Cl    0.75250   0.79970   0.61537   0.00000  Uiso   1.00
C1377  C     0.69870   0.75159   0.71414   0.00000  Uiso   1.00
C1378  C     0.66675   0.74017   0.67576   0.00000  Uiso   1.00
H1379  H     0.99649   0.76874   0.65224   0.00000  Uiso   1.00
H1380  H     0.67804   0.71091   0.65714   0.00000  Uiso   1.00
H1381  H     0.96888   0.73196   0.68821   0.00000  Uiso   1.00
H1382  H     0.70337   0.72254   0.73675   0.00000  Uiso   1.00
H1383  H     0.72836   0.75758   0.69802   0.00000  Uiso   1.00
C1384  C     0.96913   0.91484   0.78710   0.00000  Uiso   1.00
C1385  C     0.96666   0.90321   0.83664   0.00000  Uiso   1.00
H1386  H     0.99597   0.88634   0.84934   0.00000  Uiso   1.00
H1387  H     0.93953   0.88096   0.84156   0.00000  Uiso   1.00
H1388  H     0.96281   0.93406   0.85645   0.00000  Uiso   1.00
H1389  H     0.99350   0.94118   0.78588   0.00000  Uiso   1.00
H1390  H     0.93957   0.93020   0.77351   0.00000  Uiso   1.00
C1391  C     0.96796   0.75161   0.78591   0.00000  Uiso   1.00
C1392  C     0.99990   0.74022   0.82430   0.00000  Uiso   1.00
H1393  H     0.67016   0.76880   0.84780   0.00000  Uiso   1.00
H1394  H     0.98862   0.71097   0.84294   0.00000  Uiso   1.00
H1395  H     0.69778   0.73201   0.81186   0.00000  Uiso   1.00
H1396  H     0.96329   0.72255   0.76332   0.00000  Uiso   1.00
H1397  H     0.93829   0.75761   0.80202   0.00000  Uiso   1.00
C1398  C     0.69754   0.91481   0.71283   0.00000  Uiso   1.00
C1399  C     0.70005   0.90314   0.66330   0.00000  Uiso   1.00
H1400  H     0.72721   0.88092   0.65844   0.00000  Uiso   1.00
H1401  H     0.70389   0.93398   0.64347   0.00000  Uiso   1.00
H1402  H     0.67077   0.88623   0.65060   0.00000  Uiso   1.00
H1403  H     0.67316   0.94115   0.71401   0.00000  Uiso   1.00
H1404  H     0.72709   0.93020   0.72644   0.00000  Uiso   1.00
loop_
_geom_bond_atom_site_label_1
_geom_bond_atom_site_label_2
_geom_bond_distance
_geom_bond_site_symmetry_2
_ccdc_geom_bond_type
C1     O32     1.307   .     A
C1     O29     1.306   .     A
C1     C26     1.460   .     S
C2     O31     1.306   .     A
C2     O30     1.307   .     A
C2     C25     1.460   .     S
C3     O33     1.293   .     A
C3     C21     1.433   .     S
C3     O36     1.303   .     A
C4     O35     1.293   .     A
C4     O34     1.303   .     A
C4     C22     1.433   .     S
C5     N28     1.376   .     A
C5     Cl39    1.746   .     S
C5     C476    1.420   1_545 S
C6     N27     1.371   .     A
C6     Cl40    1.756   .     S
C6     C241    1.420   .     S
C7     N28     1.376   .     A
C7     Cl41    1.746   .     S
C7     C474    1.420   1_545 S
C8     Cl42    1.756   .     S
C8     N27     1.371   .     A
C8     C239    1.420   .     S
C9     C51     1.521   .     S
C9     C26     1.408   .     A
C9     C167    1.391   1_455 S
C10    C25     1.409   .     A
C10    C58     1.523   .     S
C10    C90     1.389   .     S
C11    C25     1.408   .     A
C11    C65     1.521   .     S
C11    C87     1.391   .     S
C12    C72     1.523   .     S
C12    C26     1.409   .     A
C12    C166    1.389   1_455 S
C13    C23     1.405   .     A
C13    Cl43    1.771   .     S
C13    C17     1.389   .     A
C14    C18     1.387   .     A
C14    C24     1.404   .     A
C14    Cl44    1.772   .     S
C15    C19     1.389   .     A
C15    C24     1.405   .     A
C15    Cl45    1.771   .     S
C16    Cl46    1.772   .     S
C16    C20     1.387   .     A
C16    C23     1.404   .     A
C17    C21     1.405   .     A
C17    Cl47    1.772   .     S
C18    C22     1.402   .     A
C18    Cl48    1.765   .     S
C19    C22     1.405   .     A
C19    Cl49    1.772   .     S
C20    Cl50    1.765   .     S
C20    C21     1.402   .     A
C23    C726    1.446   1_554 S
C24    C725    1.446   .     S
N27    Zn37    2.043   .     S
N28    Zn38    2.043   .     S
O29    Zn37    1.983   .     S
O30    Zn38    1.983   .     S
O31    Zn37    1.983   .     S
O32    Zn38    1.983   .     S
O33    Zn37    1.995   .     S
O34    Zn38    1.995   .     S
O35    Zn37    1.995   .     S
O36    Zn38    1.995   .     S
C51    H56     1.108   .     S
C51    H57     1.099   .     S
C51    C52     1.530   .     S
C52    H54     1.111   .     S
C52    H209    1.111   1_455 S
C52    H211    1.108   1_455 S
H53    C130    1.111   .     S
H55    C130    1.108   .     S
C58    H64     1.106   .     S
C58    C59     1.528   .     S
C58    H63     1.110   .     S
C59    H60     1.111   .     S
C59    H61     1.109   .     S
C59    H62     1.110   .     S
C65    H70     1.108   .     S
C65    H71     1.099   .     S
C65    C66     1.530   .     S
C66    H68     1.111   .     S
C66    H145    1.111   .     S
C66    H147    1.108   .     S
H67    C222    1.111   1_455 S
H69    C222    1.108   1_455 S
C72    H78     1.106   .     S
C72    H77     1.111   .     S
C72    C73     1.528   .     S
C73    H74     1.109   .     S
C73    H75     1.110   .     S
C73    H76     1.111   .     S
C79    O110    1.307   .     A
C79    O107    1.306   .     A
C79    C104    1.460   .     S
C80    O109    1.306   .     A
C80    O108    1.307   .     A
C80    C103    1.460   .     S
C81    O111    1.293   .     A
C81    C99     1.433   .     S
C81    O114    1.303   .     A
C82    O113    1.293   .     A
C82    O112    1.303   .     A
C82    C100    1.433   .     S
C83    N106    1.376   .     A
C83    Cl117   1.746   .     S
C83    C554    1.420   1_545 S
C84    N105    1.371   .     A
C84    Cl118   1.756   .     S
C84    C319    1.420   .     S
C85    N106    1.376   .     A
C85    Cl119   1.746   .     S
C85    C552    1.420   1_545 S
C86    Cl120   1.756   .     S
C86    N105    1.371   .     A
C86    C317    1.420   .     S
C87    C129    1.521   .     S
C87    C104    1.408   .     A
C88    C103    1.409   .     A
C88    C136    1.523   .     S
C88    C168    1.389   .     S
C89    C103    1.408   .     A
C89    C143    1.521   .     S
C89    C165    1.391   .     S
C90    C150    1.523   .     S
C90    C104    1.409   .     A
C91    C101    1.405   .     A
C91    Cl121   1.771   .     S
C91    C95     1.389   .     A
C92    C96     1.387   .     A
C92    C102    1.404   .     A
C92    Cl122   1.772   .     S
C93    C97     1.389   .     A
C93    C102    1.405   .     A
C93    Cl123   1.771   .     S
C94    Cl124   1.772   .     S
C94    C98     1.387   .     A
C94    C101    1.404   .     A
C95    C99     1.405   .     A
C95    Cl125   1.772   .     S
C96    C100    1.402   .     A
C96    Cl126   1.765   .     S
C97    C100    1.405   .     A
C97    Cl127   1.772   .     S
C98    Cl128   1.765   .     S
C98    C99     1.402   .     A
C101   C804    1.446   1_554 S
C102   C803    1.446   .     S
N105   Zn115   2.043   .     S
N106   Zn116   2.043   .     S
O107   Zn115   1.983   .     S
O108   Zn116   1.983   .     S
O109   Zn115   1.983   .     S
O110   Zn116   1.983   .     S
O111   Zn115   1.995   .     S
O112   Zn116   1.995   .     S
O113   Zn115   1.995   .     S
O114   Zn116   1.995   .     S
C129   H134    1.108   .     S
C129   H135    1.099   .     S
C129   C130    1.530   .     S
C130   H132    1.111   .     S
H131   C208    1.111   .     S
H133   C208    1.108   .     S
C136   H142    1.106   .     S
C136   C137    1.528   .     S
C136   H141    1.110   .     S
C137   H138    1.111   .     S
C137   H139    1.109   .     S
C137   H140    1.110   .     S
C143   H148    1.108   .     S
C143   H149    1.099   .     S
C143   C144    1.530   .     S
C144   H146    1.111   .     S
C144   H223    1.111   .     S
C144   H225    1.108   .     S
C150   H156    1.106   .     S
C150   H155    1.111   .     S
C150   C151    1.528   .     S
C151   H152    1.109   .     S
C151   H153    1.110   .     S
C151   H154    1.111   .     S
C157   O188    1.307   .     A
C157   O185    1.306   .     A
C157   C182    1.460   .     S
C158   O187    1.306   .     A
C158   O186    1.307   .     A
C158   C181    1.460   .     S
C159   O189    1.293   .     A
C159   C177    1.433   .     S
C159   O192    1.303   .     A
C160   O191    1.293   .     A
C160   O190    1.303   .     A
C160   C178    1.433   .     S
C161   N184    1.376   .     A
C161   Cl195   1.746   .     S
C161   C632    1.420   1_545 S
C162   N183    1.371   .     A
C162   Cl196   1.756   .     S
C162   C397    1.420   .     S
C163   N184    1.376   .     A
C163   Cl197   1.746   .     S
C163   C630    1.420   1_545 S
C164   Cl198   1.756   .     S
C164   N183    1.371   .     A
C164   C395    1.420   .     S
C165   C207    1.521   .     S
C165   C182    1.408   .     A
C166   C181    1.409   .     A
C166   C214    1.523   .     S
C166   C12     1.389   1_655 S
C167   C181    1.408   .     A
C167   C221    1.521   .     S
C167   C9      1.391   1_655 S
C168   C228    1.523   .     S
C168   C182    1.409   .     A
C169   C179    1.405   .     A
C169   Cl199   1.771   .     S
C169   C173    1.389   .     A
C170   C174    1.387   .     A
C170   C180    1.404   .     A
C170   Cl200   1.772   .     S
C171   C175    1.389   .     A
C171   C180    1.405   .     A
C171   Cl201   1.771   .     S
C172   Cl202   1.772   .     S
C172   C176    1.387   .     A
C172   C179    1.404   .     A
C173   C177    1.405   .     A
C173   Cl203   1.772   .     S
C174   C178    1.402   .     A
C174   Cl204   1.765   .     S
C175   C178    1.405   .     A
C175   Cl205   1.772   .     S
C176   Cl206   1.765   .     S
C176   C177    1.402   .     A
C179   C882    1.446   1_554 S
C180   C881    1.446   .     S
N183   Zn193   2.043   .     S
N184   Zn194   2.043   .     S
O185   Zn193   1.983   .     S
O186   Zn194   1.983   .     S
O187   Zn193   1.983   .     S
O188   Zn194   1.983   .     S
O189   Zn193   1.995   .     S
O190   Zn194   1.995   .     S
O191   Zn193   1.995   .     S
O192   Zn194   1.995   .     S
C207   H212    1.108   .     S
C207   H213    1.099   .     S
C207   C208    1.530   .     S
C208   H210    1.111   .     S
H209   C52     1.111   1_655 S
H211   C52     1.108   1_655 S
C214   H220    1.106   .     S
C214   C215    1.528   .     S
C214   H219    1.110   .     S
C215   H216    1.111   .     S
C215   H217    1.109   .     S
C215   H218    1.110   .     S
C221   H226    1.108   .     S
C221   H227    1.099   .     S
C221   C222    1.530   .     S
C222   H224    1.111   .     S
C222   H67     1.111   1_655 S
C222   H69     1.108   1_655 S
C228   H234    1.106   .     S
C228   H233    1.111   .     S
C228   C229    1.528   .     S
C229   H230    1.109   .     S
C229   H231    1.110   .     S
C229   H232    1.111   .     S
C235   O266    1.307   .     A
C235   O263    1.306   .     A
C235   C260    1.460   .     S
C236   O265    1.306   .     A
C236   O264    1.307   .     A
C236   C259    1.460   .     S
C237   O267    1.293   .     A
C237   C255    1.433   .     S
C237   O270    1.303   .     A
C238   O269    1.293   .     A
C238   O268    1.303   .     A
C238   C256    1.433   .     S
C239   N262    1.376   .     A
C239   Cl273   1.746   .     S
C240   N261    1.371   .     A
C240   Cl274   1.756   .     S
C240   C475    1.420   .     S
C241   N262    1.376   .     A
C241   Cl275   1.746   .     S
C242   Cl276   1.756   .     S
C242   N261    1.371   .     A
C242   C473    1.420   .     S
C243   C285    1.521   .     S
C243   C260    1.408   .     A
C243   C401    1.391   1_455 S
C244   C259    1.409   .     A
C244   C292    1.523   .     S
C244   C324    1.389   .     S
C245   C259    1.408   .     A
C245   C299    1.521   .     S
C245   C321    1.391   .     S
C246   C306    1.523   .     S
C246   C260    1.409   .     A
C246   C400    1.389   1_455 S
C247   C257    1.405   .     A
C247   Cl277   1.771   .     S
C247   C251    1.389   .     A
C248   C252    1.387   .     A
C248   C258    1.404   .     A
C248   Cl278   1.772   .     S
C249   C253    1.389   .     A
C249   C258    1.405   .     A
C249   Cl279   1.771   .     S
C250   Cl280   1.772   .     S
C250   C254    1.387   .     A
C250   C257    1.404   .     A
C251   C255    1.405   .     A
C251   Cl281   1.772   .     S
C252   C256    1.402   .     A
C252   Cl282   1.765   .     S
C253   C256    1.405   .     A
C253   Cl283   1.772   .     S
C254   Cl284   1.765   .     S
C254   C255    1.402   .     A
C257   C960    1.446   1_554 S
C258   C959    1.446   .     S
N261   Zn271   2.043   .     S
N262   Zn272   2.043   .     S
O263   Zn271   1.983   .     S
O264   Zn272   1.983   .     S
O265   Zn271   1.983   .     S
O266   Zn272   1.983   .     S
O267   Zn271   1.995   .     S
O268   Zn272   1.995   .     S
O269   Zn271   1.995   .     S
O270   Zn272   1.995   .     S
C285   H290    1.108   .     S
C285   H291    1.099   .     S
C285   C286    1.530   .     S
C286   H288    1.111   .     S
C286   H443    1.111   1_455 S
C286   H445    1.108   1_455 S
H287   C364    1.111   .     S
H289   C364    1.108   .     S
C292   H298    1.106   .     S
C292   C293    1.528   .     S
C292   H297    1.110   .     S
C293   H294    1.111   .     S
C293   H295    1.109   .     S
C293   H296    1.110   .     S
C299   H304    1.108   .     S
C299   H305    1.099   .     S
C299   C300    1.530   .     S
C300   H302    1.111   .     S
C300   H379    1.111   .     S
C300   H381    1.108   .     S
H301   C456    1.111   1_455 S
H303   C456    1.108   1_455 S
C306   H312    1.106   .     S
C306   H311    1.111   .     S
C306   C307    1.528   .     S
C307   H308    1.109   .     S
C307   H309    1.110   .     S
C307   H310    1.111   .     S
C313   O344    1.307   .     A
C313   O341    1.306   .     A
C313   C338    1.460   .     S
C314   O343    1.306   .     A
C314   O342    1.307   .     A
C314   C337    1.460   .     S
C315   O345    1.293   .     A
C315   C333    1.433   .     S
C315   O348    1.303   .     A
C316   O347    1.293   .     A
C316   O346    1.303   .     A
C316   C334    1.433   .     S
C317   N340    1.376   .     A
C317   Cl351   1.746   .     S
C318   N339    1.371   .     A
C318   Cl352   1.756   .     S
C318   C553    1.420   .     S
C319   N340    1.376   .     A
C319   Cl353   1.746   .     S
C320   Cl354   1.756   .     S
C320   N339    1.371   .     A
C320   C551    1.420   .     S
C321   C363    1.521   .     S
C321   C338    1.408   .     A
C322   C337    1.409   .     A
C322   C370    1.523   .     S
C322   C402    1.389   .     S
C323   C337    1.408   .     A
C323   C377    1.521   .     S
C323   C399    1.391   .     S
C324   C384    1.523   .     S
C324   C338    1.409   .     A
C325   C335    1.405   .     A
C325   Cl355   1.771   .     S
C325   C329    1.389   .     A
C326   C330    1.387   .     A
C326   C336    1.404   .     A
C326   Cl356   1.772   .     S
C327   C331    1.389   .     A
C327   C336    1.405   .     A
C327   Cl357   1.771   .     S
C328   Cl358   1.772   .     S
C328   C332    1.387   .     A
C328   C335    1.404   .     A
C329   C333    1.405   .     A
C329   Cl359   1.772   .     S
C330   C334    1.402   .     A
C330   Cl360   1.765   .     S
C331   C334    1.405   .     A
C331   Cl361   1.772   .     S
C332   Cl362   1.765   .     S
C332   C333    1.402   .     A
C335   C1038   1.446   1_554 S
C336   C1037   1.446   .     S
N339   Zn349   2.043   .     S
N340   Zn350   2.043   .     S
O341   Zn349   1.983   .     S
O342   Zn350   1.983   .     S
O343   Zn349   1.983   .     S
O344   Zn350   1.983   .     S
O345   Zn349   1.995   .     S
O346   Zn350   1.995   .     S
O347   Zn349   1.995   .     S
O348   Zn350   1.995   .     S
C363   H368    1.108   .     S
C363   H369    1.099   .     S
C363   C364    1.530   .     S
C364   H366    1.111   .     S
H365   C442    1.111   .     S
H367   C442    1.108   .     S
C370   H376    1.106   .     S
C370   C371    1.528   .     S
C370   H375    1.110   .     S
C371   H372    1.111   .     S
C371   H373    1.109   .     S
C371   H374    1.110   .     S
C377   H382    1.108   .     S
C377   H383    1.099   .     S
C377   C378    1.530   .     S
C378   H380    1.111   .     S
C378   H457    1.111   .     S
C378   H459    1.108   .     S
C384   H390    1.106   .     S
C384   H389    1.111   .     S
C384   C385    1.528   .     S
C385   H386    1.109   .     S
C385   H387    1.110   .     S
C385   H388    1.111   .     S
C391   O422    1.307   .     A
C391   O419    1.306   .     A
C391   C416    1.460   .     S
C392   O421    1.306   .     A
C392   O420    1.307   .     A
C392   C415    1.460   .     S
C393   O423    1.293   .     A
C393   C411    1.433   .     S
C393   O426    1.303   .     A
C394   O425    1.293   .     A
C394   O424    1.303   .     A
C394   C412    1.433   .     S
C395   N418    1.376   .     A
C395   Cl429   1.746   .     S
C396   N417    1.371   .     A
C396   Cl430   1.756   .     S
C396   C631    1.420   .     S
C397   N418    1.376   .     A
C397   Cl431   1.746   .     S
C398   Cl432   1.756   .     S
C398   N417    1.371   .     A
C398   C629    1.420   .     S
C399   C441    1.521   .     S
C399   C416    1.408   .     A
C400   C415    1.409   .     A
C400   C448    1.523   .     S
C400   C246    1.389   1_655 S
C401   C415    1.408   .     A
C401   C455    1.521   .     S
C401   C243    1.391   1_655 S
C402   C462    1.523   .     S
C402   C416    1.409   .     A
C403   C413    1.405   .     A
C403   Cl433   1.771   .     S
C403   C407    1.389   .     A
C404   C408    1.387   .     A
C404   C414    1.404   .     A
C404   Cl434   1.772   .     S
C405   C409    1.389   .     A
C405   C414    1.405   .     A
C405   Cl435   1.771   .     S
C406   Cl436   1.772   .     S
C406   C410    1.387   .     A
C406   C413    1.404   .     A
C407   C411    1.405   .     A
C407   Cl437   1.772   .     S
C408   C412    1.402   .     A
C408   Cl438   1.765   .     S
C409   C412    1.405   .     A
C409   Cl439   1.772   .     S
C410   Cl440   1.765   .     S
C410   C411    1.402   .     A
C413   C1116   1.446   1_554 S
C414   C1115   1.446   .     S
N417   Zn427   2.043   .     S
N418   Zn428   2.043   .     S
O419   Zn427   1.983   .     S
O420   Zn428   1.983   .     S
O421   Zn427   1.983   .     S
O422   Zn428   1.983   .     S
O423   Zn427   1.995   .     S
O424   Zn428   1.995   .     S
O425   Zn427   1.995   .     S
O426   Zn428   1.995   .     S
C441   H446    1.108   .     S
C441   H447    1.099   .     S
C441   C442    1.530   .     S
C442   H444    1.111   .     S
H443   C286    1.111   1_655 S
H445   C286    1.108   1_655 S
C448   H454    1.106   .     S
C448   C449    1.528   .     S
C448   H453    1.110   .     S
C449   H450    1.111   .     S
C449   H451    1.109   .     S
C449   H452    1.110   .     S
C455   H460    1.108   .     S
C455   H461    1.099   .     S
C455   C456    1.530   .     S
C456   H458    1.111   .     S
C456   H301    1.111   1_655 S
C456   H303    1.108   1_655 S
C462   H468    1.106   .     S
C462   H467    1.111   .     S
C462   C463    1.528   .     S
C463   H464    1.109   .     S
C463   H465    1.110   .     S
C463   H466    1.111   .     S
C469   O500    1.307   .     A
C469   O497    1.306   .     A
C469   C494    1.460   .     S
C470   O499    1.306   .     A
C470   O498    1.307   .     A
C470   C493    1.460   .     S
C471   O501    1.293   .     A
C471   C489    1.433   .     S
C471   O504    1.303   .     A
C472   O503    1.293   .     A
C472   O502    1.303   .     A
C472   C490    1.433   .     S
C473   N496    1.376   .     A
C473   Cl507   1.746   .     S
C474   N495    1.371   .     A
C474   Cl508   1.756   .     S
C474   C7      1.420   1_565 S
C475   N496    1.376   .     A
C475   Cl509   1.746   .     S
C476   Cl510   1.756   .     S
C476   N495    1.371   .     A
C476   C5      1.420   1_565 S
C477   C519    1.521   .     S
C477   C494    1.408   .     A
C477   C635    1.391   1_455 S
C478   C493    1.409   .     A
C478   C526    1.523   .     S
C478   C558    1.389   .     S
C479   C493    1.408   .     A
C479   C533    1.521   .     S
C479   C555    1.391   .     S
C480   C540    1.523   .     S
C480   C494    1.409   .     A
C480   C634    1.389   1_455 S
C481   C491    1.405   .     A
C481   Cl511   1.771   .     S
C481   C485    1.389   .     A
C482   C486    1.387   .     A
C482   C492    1.404   .     A
C482   Cl512   1.772   .     S
C483   C487    1.389   .     A
C483   C492    1.405   .     A
C483   Cl513   1.771   .     S
C484   Cl514   1.772   .     S
C484   C488    1.387   .     A
C484   C491    1.404   .     A
C485   C489    1.405   .     A
C485   Cl515   1.772   .     S
C486   C490    1.402   .     A
C486   Cl516   1.765   .     S
C487   C490    1.405   .     A
C487   Cl517   1.772   .     S
C488   Cl518   1.765   .     S
C488   C489    1.402   .     A
C491   C1194   1.446   1_554 S
C492   C1193   1.446   .     S
N495   Zn505   2.043   .     S
N496   Zn506   2.043   .     S
O497   Zn505   1.983   .     S
O498   Zn506   1.983   .     S
O499   Zn505   1.983   .     S
O500   Zn506   1.983   .     S
O501   Zn505   1.995   .     S
O502   Zn506   1.995   .     S
O503   Zn505   1.995   .     S
O504   Zn506   1.995   .     S
C519   H524    1.108   .     S
C519   H525    1.099   .     S
C519   C520    1.530   .     S
C520   H522    1.111   .     S
C520   H677    1.111   1_455 S
C520   H679    1.108   1_455 S
H521   C598    1.111   .     S
H523   C598    1.108   .     S
C526   H532    1.106   .     S
C526   C527    1.528   .     S
C526   H531    1.110   .     S
C527   H528    1.111   .     S
C527   H529    1.109   .     S
C527   H530    1.110   .     S
C533   H538    1.108   .     S
C533   H539    1.099   .     S
C533   C534    1.530   .     S
C534   H536    1.111   .     S
C534   H613    1.111   .     S
C534   H615    1.108   .     S
H535   C690    1.111   1_455 S
H537   C690    1.108   1_455 S
C540   H546    1.106   .     S
C540   H545    1.111   .     S
C540   C541    1.528   .     S
C541   H542    1.109   .     S
C541   H543    1.110   .     S
C541   H544    1.111   .     S
C547   O578    1.307   .     A
C547   O575    1.306   .     A
C547   C572    1.460   .     S
C548   O577    1.306   .     A
C548   O576    1.307   .     A
C548   C571    1.460   .     S
C549   O579    1.293   .     A
C549   C567    1.433   .     S
C549   O582    1.303   .     A
C550   O581    1.293   .     A
C550   O580    1.303   .     A
C550   C568    1.433   .     S
C551   N574    1.376   .     A
C551   Cl585   1.746   .     S
C552   N573    1.371   .     A
C552   Cl586   1.756   .     S
C552   C85     1.420   1_565 S
C553   N574    1.376   .     A
C553   Cl587   1.746   .     S
C554   Cl588   1.756   .     S
C554   N573    1.371   .     A
C554   C83     1.420   1_565 S
C555   C597    1.521   .     S
C555   C572    1.408   .     A
C556   C571    1.409   .     A
C556   C604    1.523   .     S
C556   C636    1.389   .     S
C557   C571    1.408   .     A
C557   C611    1.521   .     S
C557   C633    1.391   .     S
C558   C618    1.523   .     S
C558   C572    1.409   .     A
C559   C569    1.405   .     A
C559   Cl589   1.771   .     S
C559   C563    1.389   .     A
C560   C564    1.387   .     A
C560   C570    1.404   .     A
C560   Cl590   1.772   .     S
C561   C565    1.389   .     A
C561   C570    1.405   .     A
C561   Cl591   1.771   .     S
C562   Cl592   1.772   .     S
C562   C566    1.387   .     A
C562   C569    1.404   .     A
C563   C567    1.405   .     A
C563   Cl593   1.772   .     S
C564   C568    1.402   .     A
C564   Cl594   1.765   .     S
C565   C568    1.405   .     A
C565   Cl595   1.772   .     S
C566   Cl596   1.765   .     S
C566   C567    1.402   .     A
C569   C1272   1.446   1_554 S
C570   C1271   1.446   .     S
N573   Zn583   2.043   .     S
N574   Zn584   2.043   .     S
O575   Zn583   1.983   .     S
O576   Zn584   1.983   .     S
O577   Zn583   1.983   .     S
O578   Zn584   1.983   .     S
O579   Zn583   1.995   .     S
O580   Zn584   1.995   .     S
O581   Zn583   1.995   .     S
O582   Zn584   1.995   .     S
C597   H602    1.108   .     S
C597   H603    1.099   .     S
C597   C598    1.530   .     S
C598   H600    1.111   .     S
H599   C676    1.111   .     S
H601   C676    1.108   .     S
C604   H610    1.106   .     S
C604   C605    1.528   .     S
C604   H609    1.110   .     S
C605   H606    1.111   .     S
C605   H607    1.109   .     S
C605   H608    1.110   .     S
C611   H616    1.108   .     S
C611   H617    1.099   .     S
C611   C612    1.530   .     S
C612   H614    1.111   .     S
C612   H691    1.111   .     S
C612   H693    1.108   .     S
C618   H624    1.106   .     S
C618   H623    1.111   .     S
C618   C619    1.528   .     S
C619   H620    1.109   .     S
C619   H621    1.110   .     S
C619   H622    1.111   .     S
C625   O656    1.307   .     A
C625   O653    1.306   .     A
C625   C650    1.460   .     S
C626   O655    1.306   .     A
C626   O654    1.307   .     A
C626   C649    1.460   .     S
C627   O657    1.293   .     A
C627   C645    1.433   .     S
C627   O660    1.303   .     A
C628   O659    1.293   .     A
C628   O658    1.303   .     A
C628   C646    1.433   .     S
C629   N652    1.376   .     A
C629   Cl663   1.746   .     S
C630   N651    1.371   .     A
C630   Cl664   1.756   .     S
C630   C163    1.420   1_565 S
C631   N652    1.376   .     A
C631   Cl665   1.746   .     S
C632   Cl666   1.756   .     S
C632   N651    1.371   .     A
C632   C161    1.420   1_565 S
C633   C675    1.521   .     S
C633   C650    1.408   .     A
C634   C649    1.409   .     A
C634   C682    1.523   .     S
C634   C480    1.389   1_655 S
C635   C649    1.408   .     A
C635   C689    1.521   .     S
C635   C477    1.391   1_655 S
C636   C696    1.523   .     S
C636   C650    1.409   .     A
C637   C647    1.405   .     A
C637   Cl667   1.771   .     S
C637   C641    1.389   .     A
C638   C642    1.387   .     A
C638   C648    1.404   .     A
C638   Cl668   1.772   .     S
C639   C643    1.389   .     A
C639   C648    1.405   .     A
C639   Cl669   1.771   .     S
C640   Cl670   1.772   .     S
C640   C644    1.387   .     A
C640   C647    1.404   .     A
C641   C645    1.405   .     A
C641   Cl671   1.772   .     S
C642   C646    1.402   .     A
C642   Cl672   1.765   .     S
C643   C646    1.405   .     A
C643   Cl673   1.772   .     S
C644   Cl674   1.765   .     S
C644   C645    1.402   .     A
C647   C1350   1.446   1_554 S
C648   C1349   1.446   .     S
N651   Zn661   2.043   .     S
N652   Zn662   2.043   .     S
O653   Zn661   1.983   .     S
O654   Zn662   1.983   .     S
O655   Zn661   1.983   .     S
O656   Zn662   1.983   .     S
O657   Zn661   1.995   .     S
O658   Zn662   1.995   .     S
O659   Zn661   1.995   .     S
O660   Zn662   1.995   .     S
C675   H680    1.108   .     S
C675   H681    1.099   .     S
C675   C676    1.530   .     S
C676   H678    1.111   .     S
H677   C520    1.111   1_655 S
H679   C520    1.108   1_655 S
C682   H688    1.106   .     S
C682   C683    1.528   .     S
C682   H687    1.110   .     S
C683   H684    1.111   .     S
C683   H685    1.109   .     S
C683   H686    1.110   .     S
C689   H694    1.108   .     S
C689   H695    1.099   .     S
C689   C690    1.530   .     S
C690   H692    1.111   .     S
C690   H535    1.111   1_655 S
C690   H537    1.108   1_655 S
C696   H702    1.106   .     S
C696   H701    1.111   .     S
C696   C697    1.528   .     S
C697   H698    1.109   .     S
C697   H699    1.110   .     S
C697   H700    1.111   .     S
C703   O734    1.307   .     A
C703   O731    1.306   .     A
C703   C728    1.460   .     S
C704   O733    1.306   .     A
C704   O732    1.307   .     A
C704   C727    1.460   .     S
C705   O735    1.293   .     A
C705   C723    1.433   .     S
C705   O738    1.303   .     A
C706   O737    1.293   .     A
C706   O736    1.303   .     A
C706   C724    1.433   .     S
C707   N730    1.376   .     A
C707   Cl741   1.746   .     S
C707   C1178   1.420   1_545 S
C708   N729    1.371   .     A
C708   Cl742   1.756   .     S
C708   C943    1.420   .     S
C709   N730    1.376   .     A
C709   Cl743   1.746   .     S
C709   C1176   1.420   1_545 S
C710   Cl744   1.756   .     S
C710   N729    1.371   .     A
C710   C941    1.420   .     S
C711   C753    1.521   .     S
C711   C728    1.408   .     A
C711   C869    1.391   1_455 S
C712   C727    1.409   .     A
C712   C760    1.523   .     S
C712   C792    1.389   .     S
C713   C727    1.408   .     A
C713   C767    1.521   .     S
C713   C789    1.391   .     S
C714   C774    1.523   .     S
C714   C728    1.409   .     A
C714   C868    1.389   1_455 S
C715   C725    1.405   .     A
C715   Cl745   1.771   .     S
C715   C719    1.389   .     A
C716   C720    1.387   .     A
C716   C726    1.404   .     A
C716   Cl746   1.772   .     S
C717   C721    1.389   .     A
C717   C726    1.405   .     A
C717   Cl747   1.771   .     S
C718   Cl748   1.772   .     S
C718   C722    1.387   .     A
C718   C725    1.404   .     A
C719   C723    1.405   .     A
C719   Cl749   1.772   .     S
C720   C724    1.402   .     A
C720   Cl750   1.765   .     S
C721   C724    1.405   .     A
C721   Cl751   1.772   .     S
C722   Cl752   1.765   .     S
C722   C723    1.402   .     A
C726   C23     1.446   1_556 S
N729   Zn739   2.043   .     S
N730   Zn740   2.043   .     S
O731   Zn739   1.983   .     S
O732   Zn740   1.983   .     S
O733   Zn739   1.983   .     S
O734   Zn740   1.983   .     S
O735   Zn739   1.995   .     S
O736   Zn740   1.995   .     S
O737   Zn739   1.995   .     S
O738   Zn740   1.995   .     S
C753   H758    1.108   .     S
C753   H759    1.099   .     S
C753   C754    1.530   .     S
C754   H756    1.111   .     S
C754   H911    1.111   1_455 S
C754   H913    1.108   1_455 S
H755   C832    1.111   .     S
H757   C832    1.108   .     S
C760   H766    1.106   .     S
C760   C761    1.528   .     S
C760   H765    1.110   .     S
C761   H762    1.111   .     S
C761   H763    1.109   .     S
C761   H764    1.110   .     S
C767   H772    1.108   .     S
C767   H773    1.099   .     S
C767   C768    1.530   .     S
C768   H770    1.111   .     S
C768   H847    1.111   .     S
C768   H849    1.108   .     S
H769   C924    1.111   1_455 S
H771   C924    1.108   1_455 S
C774   H780    1.106   .     S
C774   H779    1.111   .     S
C774   C775    1.528   .     S
C775   H776    1.109   .     S
C775   H777    1.110   .     S
C775   H778    1.111   .     S
C781   O812    1.307   .     A
C781   O809    1.306   .     A
C781   C806    1.460   .     S
C782   O811    1.306   .     A
C782   O810    1.307   .     A
C782   C805    1.460   .     S
C783   O813    1.293   .     A
C783   C801    1.433   .     S
C783   O816    1.303   .     A
C784   O815    1.293   .     A
C784   O814    1.303   .     A
C784   C802    1.433   .     S
C785   N808    1.376   .     A
C785   Cl819   1.746   .     S
C785   C1256   1.420   1_545 S
C786   N807    1.371   .     A
C786   Cl820   1.756   .     S
C786   C1021   1.420   .     S
C787   N808    1.376   .     A
C787   Cl821   1.746   .     S
C787   C1254   1.420   1_545 S
C788   Cl822   1.756   .     S
C788   N807    1.371   .     A
C788   C1019   1.420   .     S
C789   C831    1.521   .     S
C789   C806    1.408   .     A
C790   C805    1.409   .     A
C790   C838    1.523   .     S
C790   C870    1.389   .     S
C791   C805    1.408   .     A
C791   C845    1.521   .     S
C791   C867    1.391   .     S
C792   C852    1.523   .     S
C792   C806    1.409   .     A
C793   C803    1.405   .     A
C793   Cl823   1.771   .     S
C793   C797    1.389   .     A
C794   C798    1.387   .     A
C794   C804    1.404   .     A
C794   Cl824   1.772   .     S
C795   C799    1.389   .     A
C795   C804    1.405   .     A
C795   Cl825   1.771   .     S
C796   Cl826   1.772   .     S
C796   C800    1.387   .     A
C796   C803    1.404   .     A
C797   C801    1.405   .     A
C797   Cl827   1.772   .     S
C798   C802    1.402   .     A
C798   Cl828   1.765   .     S
C799   C802    1.405   .     A
C799   Cl829   1.772   .     S
C800   Cl830   1.765   .     S
C800   C801    1.402   .     A
C804   C101    1.446   1_556 S
N807   Zn817   2.043   .     S
N808   Zn818   2.043   .     S
O809   Zn817   1.983   .     S
O810   Zn818   1.983   .     S
O811   Zn817   1.983   .     S
O812   Zn818   1.983   .     S
O813   Zn817   1.995   .     S
O814   Zn818   1.995   .     S
O815   Zn817   1.995   .     S
O816   Zn818   1.995   .     S
C831   H836    1.108   .     S
C831   H837    1.099   .     S
C831   C832    1.530   .     S
C832   H834    1.111   .     S
H833   C910    1.111   .     S
H835   C910    1.108   .     S
C838   H844    1.106   .     S
C838   C839    1.528   .     S
C838   H843    1.110   .     S
C839   H840    1.111   .     S
C839   H841    1.109   .     S
C839   H842    1.110   .     S
C845   H850    1.108   .     S
C845   H851    1.099   .     S
C845   C846    1.530   .     S
C846   H848    1.111   .     S
C846   H925    1.111   .     S
C846   H927    1.108   .     S
C852   H858    1.106   .     S
C852   H857    1.111   .     S
C852   C853    1.528   .     S
C853   H854    1.109   .     S
C853   H855    1.110   .     S
C853   H856    1.111   .     S
C859   O890    1.307   .     A
C859   O887    1.306   .     A
C859   C884    1.460   .     S
C860   O889    1.306   .     A
C860   O888    1.307   .     A
C860   C883    1.460   .     S
C861   O891    1.293   .     A
C861   C879    1.433   .     S
C861   O894    1.303   .     A
C862   O893    1.293   .     A
C862   O892    1.303   .     A
C862   C880    1.433   .     S
C863   N886    1.376   .     A
C863   Cl897   1.746   .     S
C863   C1334   1.420   1_545 S
C864   N885    1.371   .     A
C864   Cl898   1.756   .     S
C864   C1099   1.420   .     S
C865   N886    1.376   .     A
C865   Cl899   1.746   .     S
C865   C1332   1.420   1_545 S
C866   Cl900   1.756   .     S
C866   N885    1.371   .     A
C866   C1097   1.420   .     S
C867   C909    1.521   .     S
C867   C884    1.408   .     A
C868   C883    1.409   .     A
C868   C916    1.523   .     S
C868   C714    1.389   1_655 S
C869   C883    1.408   .     A
C869   C923    1.521   .     S
C869   C711    1.391   1_655 S
C870   C930    1.523   .     S
C870   C884    1.409   .     A
C871   C881    1.405   .     A
C871   Cl901   1.771   .     S
C871   C875    1.389   .     A
C872   C876    1.387   .     A
C872   C882    1.404   .     A
C872   Cl902   1.772   .     S
C873   C877    1.389   .     A
C873   C882    1.405   .     A
C873   Cl903   1.771   .     S
C874   Cl904   1.772   .     S
C874   C878    1.387   .     A
C874   C881    1.404   .     A
C875   C879    1.405   .     A
C875   Cl905   1.772   .     S
C876   C880    1.402   .     A
C876   Cl906   1.765   .     S
C877   C880    1.405   .     A
C877   Cl907   1.772   .     S
C878   Cl908   1.765   .     S
C878   C879    1.402   .     A
C882   C179    1.446   1_556 S
N885   Zn895   2.043   .     S
N886   Zn896   2.043   .     S
O887   Zn895   1.983   .     S
O888   Zn896   1.983   .     S
O889   Zn895   1.983   .     S
O890   Zn896   1.983   .     S
O891   Zn895   1.995   .     S
O892   Zn896   1.995   .     S
O893   Zn895   1.995   .     S
O894   Zn896   1.995   .     S
C909   H914    1.108   .     S
C909   H915    1.099   .     S
C909   C910    1.530   .     S
C910   H912    1.111   .     S
H911   C754    1.111   1_655 S
H913   C754    1.108   1_655 S
C916   H922    1.106   .     S
C916   C917    1.528   .     S
C916   H921    1.110   .     S
C917   H918    1.111   .     S
C917   H919    1.109   .     S
C917   H920    1.110   .     S
C923   H928    1.108   .     S
C923   H929    1.099   .     S
C923   C924    1.530   .     S
C924   H926    1.111   .     S
C924   H769    1.111   1_655 S
C924   H771    1.108   1_655 S
C930   H936    1.106   .     S
C930   H935    1.111   .     S
C930   C931    1.528   .     S
C931   H932    1.109   .     S
C931   H933    1.110   .     S
C931   H934    1.111   .     S
C937   O968    1.307   .     A
C937   O965    1.306   .     A
C937   C962    1.460   .     S
C938   O967    1.306   .     A
C938   O966    1.307   .     A
C938   C961    1.460   .     S
C939   O969    1.293   .     A
C939   C957    1.433   .     S
C939   O972    1.303   .     A
C940   O971    1.293   .     A
C940   O970    1.303   .     A
C940   C958    1.433   .     S
C941   N964    1.376   .     A
C941   Cl975   1.746   .     S
C942   N963    1.371   .     A
C942   Cl976   1.756   .     S
C942   C1177   1.420   .     S
C943   N964    1.376   .     A
C943   Cl977   1.746   .     S
C944   Cl978   1.756   .     S
C944   N963    1.371   .     A
C944   C1175   1.420   .     S
C945   C987    1.521   .     S
C945   C962    1.408   .     A
C945   C1103   1.391   1_455 S
C946   C961    1.409   .     A
C946   C994    1.523   .     S
C946   C1026   1.389   .     S
C947   C961    1.408   .     A
C947   C1001   1.521   .     S
C947   C1023   1.391   .     S
C948   C1008   1.523   .     S
C948   C962    1.409   .     A
C948   C1102   1.389   1_455 S
C949   C959    1.405   .     A
C949   Cl979   1.771   .     S
C949   C953    1.389   .     A
C950   C954    1.387   .     A
C950   C960    1.404   .     A
C950   Cl980   1.772   .     S
C951   C955    1.389   .     A
C951   C960    1.405   .     A
C951   Cl981   1.771   .     S
C952   Cl982   1.772   .     S
C952   C956    1.387   .     A
C952   C959    1.404   .     A
C953   C957    1.405   .     A
C953   Cl983   1.772   .     S
C954   C958    1.402   .     A
C954   Cl984   1.765   .     S
C955   C958    1.405   .     A
C955   Cl985   1.772   .     S
C956   Cl986   1.765   .     S
C956   C957    1.402   .     A
C960   C257    1.446   1_556 S
N963   Zn973   2.043   .     S
N964   Zn974   2.043   .     S
O965   Zn973   1.983   .     S
O966   Zn974   1.983   .     S
O967   Zn973   1.983   .     S
O968   Zn974   1.983   .     S
O969   Zn973   1.995   .     S
O970   Zn974   1.995   .     S
O971   Zn973   1.995   .     S
O972   Zn974   1.995   .     S
C987   H992    1.108   .     S
C987   H993    1.099   .     S
C987   C988    1.530   .     S
C988   H990    1.111   .     S
C988   H1145   1.111   1_455 S
C988   H1147   1.108   1_455 S
H989   C1066   1.111   .     S
H991   C1066   1.108   .     S
C994   H1000   1.106   .     S
C994   C995    1.528   .     S
C994   H999    1.110   .     S
C995   H996    1.111   .     S
C995   H997    1.109   .     S
C995   H998    1.110   .     S
C1001  H1006   1.108   .     S
C1001  H1007   1.099   .     S
C1001  C1002   1.530   .     S
C1002  H1004   1.111   .     S
C1002  H1081   1.111   .     S
C1002  H1083   1.108   .     S
H1003  C1158   1.111   1_455 S
H1005  C1158   1.108   1_455 S
C1008  H1014   1.106   .     S
C1008  H1013   1.111   .     S
C1008  C1009   1.528   .     S
C1009  H1010   1.109   .     S
C1009  H1011   1.110   .     S
C1009  H1012   1.111   .     S
C1015  O1046   1.307   .     A
C1015  O1043   1.306   .     A
C1015  C1040   1.460   .     S
C1016  O1045   1.306   .     A
C1016  O1044   1.307   .     A
C1016  C1039   1.460   .     S
C1017  O1047   1.293   .     A
C1017  C1035   1.433   .     S
C1017  O1050   1.303   .     A
C1018  O1049   1.293   .     A
C1018  O1048   1.303   .     A
C1018  C1036   1.433   .     S
C1019  N1042   1.376   .     A
C1019  Cl1053  1.746   .     S
C1020  N1041   1.371   .     A
C1020  Cl1054  1.756   .     S
C1020  C1255   1.420   .     S
C1021  N1042   1.376   .     A
C1021  Cl1055  1.746   .     S
C1022  Cl1056  1.756   .     S
C1022  N1041   1.371   .     A
C1022  C1253   1.420   .     S
C1023  C1065   1.521   .     S
C1023  C1040   1.408   .     A
C1024  C1039   1.409   .     A
C1024  C1072   1.523   .     S
C1024  C1104   1.389   .     S
C1025  C1039   1.408   .     A
C1025  C1079   1.521   .     S
C1025  C1101   1.391   .     S
C1026  C1086   1.523   .     S
C1026  C1040   1.409   .     A
C1027  C1037   1.405   .     A
C1027  Cl1057  1.771   .     S
C1027  C1031   1.389   .     A
C1028  C1032   1.387   .     A
C1028  C1038   1.404   .     A
C1028  Cl1058  1.772   .     S
C1029  C1033   1.389   .     A
C1029  C1038   1.405   .     A
C1029  Cl1059  1.771   .     S
C1030  Cl1060  1.772   .     S
C1030  C1034   1.387   .     A
C1030  C1037   1.404   .     A
C1031  C1035   1.405   .     A
C1031  Cl1061  1.772   .     S
C1032  C1036   1.402   .     A
C1032  Cl1062  1.765   .     S
C1033  C1036   1.405   .     A
C1033  Cl1063  1.772   .     S
C1034  Cl1064  1.765   .     S
C1034  C1035   1.402   .     A
C1038  C335    1.446   1_556 S
N1041  Zn1051  2.043   .     S
N1042  Zn1052  2.043   .     S
O1043  Zn1051  1.983   .     S
O1044  Zn1052  1.983   .     S
O1045  Zn1051  1.983   .     S
O1046  Zn1052  1.983   .     S
O1047  Zn1051  1.995   .     S
O1048  Zn1052  1.995   .     S
O1049  Zn1051  1.995   .     S
O1050  Zn1052  1.995   .     S
C1065  H1070   1.108   .     S
C1065  H1071   1.099   .     S
C1065  C1066   1.530   .     S
C1066  H1068   1.111   .     S
H1067  C1144   1.111   .     S
H1069  C1144   1.108   .     S
C1072  H1078   1.106   .     S
C1072  C1073   1.528   .     S
C1072  H1077   1.110   .     S
C1073  H1074   1.111   .     S
C1073  H1075   1.109   .     S
C1073  H1076   1.110   .     S
C1079  H1084   1.108   .     S
C1079  H1085   1.099   .     S
C1079  C1080   1.530   .     S
C1080  H1082   1.111   .     S
C1080  H1159   1.111   .     S
C1080  H1161   1.108   .     S
C1086  H1092   1.106   .     S
C1086  H1091   1.111   .     S
C1086  C1087   1.528   .     S
C1087  H1088   1.109   .     S
C1087  H1089   1.110   .     S
C1087  H1090   1.111   .     S
C1093  O1124   1.307   .     A
C1093  O1121   1.306   .     A
C1093  C1118   1.460   .     S
C1094  O1123   1.306   .     A
C1094  O1122   1.307   .     A
C1094  C1117   1.460   .     S
C1095  O1125   1.293   .     A
C1095  C1113   1.433   .     S
C1095  O1128   1.303   .     A
C1096  O1127   1.293   .     A
C1096  O1126   1.303   .     A
C1096  C1114   1.433   .     S
C1097  N1120   1.376   .     A
C1097  Cl1131  1.746   .     S
C1098  N1119   1.371   .     A
C1098  Cl1132  1.756   .     S
C1098  C1333   1.420   .     S
C1099  N1120   1.376   .     A
C1099  Cl1133  1.746   .     S
C1100  Cl1134  1.756   .     S
C1100  N1119   1.371   .     A
C1100  C1331   1.420   .     S
C1101  C1143   1.521   .     S
C1101  C1118   1.408   .     A
C1102  C1117   1.409   .     A
C1102  C1150   1.523   .     S
C1102  C948    1.389   1_655 S
C1103  C1117   1.408   .     A
C1103  C1157   1.521   .     S
C1103  C945    1.391   1_655 S
C1104  C1164   1.523   .     S
C1104  C1118   1.409   .     A
C1105  C1115   1.405   .     A
C1105  Cl1135  1.771   .     S
C1105  C1109   1.389   .     A
C1106  C1110   1.387   .     A
C1106  C1116   1.404   .     A
C1106  Cl1136  1.772   .     S
C1107  C1111   1.389   .     A
C1107  C1116   1.405   .     A
C1107  Cl1137  1.771   .     S
C1108  Cl1138  1.772   .     S
C1108  C1112   1.387   .     A
C1108  C1115   1.404   .     A
C1109  C1113   1.405   .     A
C1109  Cl1139  1.772   .     S
C1110  C1114   1.402   .     A
C1110  Cl1140  1.765   .     S
C1111  C1114   1.405   .     A
C1111  Cl1141  1.772   .     S
C1112  Cl1142  1.765   .     S
C1112  C1113   1.402   .     A
C1116  C413    1.446   1_556 S
N1119  Zn1129  2.043   .     S
N1120  Zn1130  2.043   .     S
O1121  Zn1129  1.983   .     S
O1122  Zn1130  1.983   .     S
O1123  Zn1129  1.983   .     S
O1124  Zn1130  1.983   .     S
O1125  Zn1129  1.995   .     S
O1126  Zn1130  1.995   .     S
O1127  Zn1129  1.995   .     S
O1128  Zn1130  1.995   .     S
C1143  H1148   1.108   .     S
C1143  H1149   1.099   .     S
C1143  C1144   1.530   .     S
C1144  H1146   1.111   .     S
H1145  C988    1.111   1_655 S
H1147  C988    1.108   1_655 S
C1150  H1156   1.106   .     S
C1150  C1151   1.528   .     S
C1150  H1155   1.110   .     S
C1151  H1152   1.111   .     S
C1151  H1153   1.109   .     S
C1151  H1154   1.110   .     S
C1157  H1162   1.108   .     S
C1157  H1163   1.099   .     S
C1157  C1158   1.530   .     S
C1158  H1160   1.111   .     S
C1158  H1003   1.111   1_655 S
C1158  H1005   1.108   1_655 S
C1164  H1170   1.106   .     S
C1164  H1169   1.111   .     S
C1164  C1165   1.528   .     S
C1165  H1166   1.109   .     S
C1165  H1167   1.110   .     S
C1165  H1168   1.111   .     S
C1171  O1202   1.307   .     A
C1171  O1199   1.306   .     A
C1171  C1196   1.460   .     S
C1172  O1201   1.306   .     A
C1172  O1200   1.307   .     A
C1172  C1195   1.460   .     S
C1173  O1203   1.293   .     A
C1173  C1191   1.433   .     S
C1173  O1206   1.303   .     A
C1174  O1205   1.293   .     A
C1174  O1204   1.303   .     A
C1174  C1192   1.433   .     S
C1175  N1198   1.376   .     A
C1175  Cl1209  1.746   .     S
C1176  N1197   1.371   .     A
C1176  Cl1210  1.756   .     S
C1176  C709    1.420   1_565 S
C1177  N1198   1.376   .     A
C1177  Cl1211  1.746   .     S
C1178  Cl1212  1.756   .     S
C1178  N1197   1.371   .     A
C1178  C707    1.420   1_565 S
C1179  C1221   1.521   .     S
C1179  C1196   1.408   .     A
C1179  C1337   1.391   1_455 S
C1180  C1195   1.409   .     A
C1180  C1228   1.523   .     S
C1180  C1260   1.389   .     S
C1181  C1195   1.408   .     A
C1181  C1235   1.521   .     S
C1181  C1257   1.391   .     S
C1182  C1242   1.523   .     S
C1182  C1196   1.409   .     A
C1182  C1336   1.389   1_455 S
C1183  C1193   1.405   .     A
C1183  Cl1213  1.771   .     S
C1183  C1187   1.389   .     A
C1184  C1188   1.387   .     A
C1184  C1194   1.404   .     A
C1184  Cl1214  1.772   .     S
C1185  C1189   1.389   .     A
C1185  C1194   1.405   .     A
C1185  Cl1215  1.771   .     S
C1186  Cl1216  1.772   .     S
C1186  C1190   1.387   .     A
C1186  C1193   1.404   .     A
C1187  C1191   1.405   .     A
C1187  Cl1217  1.772   .     S
C1188  C1192   1.402   .     A
C1188  Cl1218  1.765   .     S
C1189  C1192   1.405   .     A
C1189  Cl1219  1.772   .     S
C1190  Cl1220  1.765   .     S
C1190  C1191   1.402   .     A
C1194  C491    1.446   1_556 S
N1197  Zn1207  2.043   .     S
N1198  Zn1208  2.043   .     S
O1199  Zn1207  1.983   .     S
O1200  Zn1208  1.983   .     S
O1201  Zn1207  1.983   .     S
O1202  Zn1208  1.983   .     S
O1203  Zn1207  1.995   .     S
O1204  Zn1208  1.995   .     S
O1205  Zn1207  1.995   .     S
O1206  Zn1208  1.995   .     S
C1221  H1226   1.108   .     S
C1221  H1227   1.099   .     S
C1221  C1222   1.530   .     S
C1222  H1224   1.111   .     S
C1222  H1379   1.111   1_455 S
C1222  H1381   1.108   1_455 S
H1223  C1300   1.111   .     S
H1225  C1300   1.108   .     S
C1228  H1234   1.106   .     S
C1228  C1229   1.528   .     S
C1228  H1233   1.110   .     S
C1229  H1230   1.111   .     S
C1229  H1231   1.109   .     S
C1229  H1232   1.110   .     S
C1235  H1240   1.108   .     S
C1235  H1241   1.099   .     S
C1235  C1236   1.530   .     S
C1236  H1238   1.111   .     S
C1236  H1315   1.111   .     S
C1236  H1317   1.108   .     S
H1237  C1392   1.111   1_455 S
H1239  C1392   1.108   1_455 S
C1242  H1248   1.106   .     S
C1242  H1247   1.111   .     S
C1242  C1243   1.528   .     S
C1243  H1244   1.109   .     S
C1243  H1245   1.110   .     S
C1243  H1246   1.111   .     S
C1249  O1280   1.307   .     A
C1249  O1277   1.306   .     A
C1249  C1274   1.460   .     S
C1250  O1279   1.306   .     A
C1250  O1278   1.307   .     A
C1250  C1273   1.460   .     S
C1251  O1281   1.293   .     A
C1251  C1269   1.433   .     S
C1251  O1284   1.303   .     A
C1252  O1283   1.293   .     A
C1252  O1282   1.303   .     A
C1252  C1270   1.433   .     S
C1253  N1276   1.376   .     A
C1253  Cl1287  1.746   .     S
C1254  N1275   1.371   .     A
C1254  Cl1288  1.756   .     S
C1254  C787    1.420   1_565 S
C1255  N1276   1.376   .     A
C1255  Cl1289  1.746   .     S
C1256  Cl1290  1.756   .     S
C1256  N1275   1.371   .     A
C1256  C785    1.420   1_565 S
C1257  C1299   1.521   .     S
C1257  C1274   1.408   .     A
C1258  C1273   1.409   .     A
C1258  C1306   1.523   .     S
C1258  C1338   1.389   .     S
C1259  C1273   1.408   .     A
C1259  C1313   1.521   .     S
C1259  C1335   1.391   .     S
C1260  C1320   1.523   .     S
C1260  C1274   1.409   .     A
C1261  C1271   1.405   .     A
C1261  Cl1291  1.771   .     S
C1261  C1265   1.389   .     A
C1262  C1266   1.387   .     A
C1262  C1272   1.404   .     A
C1262  Cl1292  1.772   .     S
C1263  C1267   1.389   .     A
C1263  C1272   1.405   .     A
C1263  Cl1293  1.771   .     S
C1264  Cl1294  1.772   .     S
C1264  C1268   1.387   .     A
C1264  C1271   1.404   .     A
C1265  C1269   1.405   .     A
C1265  Cl1295  1.772   .     S
C1266  C1270   1.402   .     A
C1266  Cl1296  1.765   .     S
C1267  C1270   1.405   .     A
C1267  Cl1297  1.772   .     S
C1268  Cl1298  1.765   .     S
C1268  C1269   1.402   .     A
C1272  C569    1.446   1_556 S
N1275  Zn1285  2.043   .     S
N1276  Zn1286  2.043   .     S
O1277  Zn1285  1.983   .     S
O1278  Zn1286  1.983   .     S
O1279  Zn1285  1.983   .     S
O1280  Zn1286  1.983   .     S
O1281  Zn1285  1.995   .     S
O1282  Zn1286  1.995   .     S
O1283  Zn1285  1.995   .     S
O1284  Zn1286  1.995   .     S
C1299  H1304   1.108   .     S
C1299  H1305   1.099   .     S
C1299  C1300   1.530   .     S
C1300  H1302   1.111   .     S
H1301  C1378   1.111   .     S
H1303  C1378   1.108   .     S
C1306  H1312   1.106   .     S
C1306  C1307   1.528   .     S
C1306  H1311   1.110   .     S
C1307  H1308   1.111   .     S
C1307  H1309   1.109   .     S
C1307  H1310   1.110   .     S
C1313  H1318   1.108   .     S
C1313  H1319   1.099   .     S
C1313  C1314   1.530   .     S
C1314  H1316   1.111   .     S
C1314  H1393   1.111   .     S
C1314  H1395   1.108   .     S
C1320  H1326   1.106   .     S
C1320  H1325   1.111   .     S
C1320  C1321   1.528   .     S
C1321  H1322   1.109   .     S
C1321  H1323   1.110   .     S
C1321  H1324   1.111   .     S
C1327  O1358   1.307   .     A
C1327  O1355   1.306   .     A
C1327  C1352   1.460   .     S
C1328  O1357   1.306   .     A
C1328  O1356   1.307   .     A
C1328  C1351   1.460   .     S
C1329  O1359   1.293   .     A
C1329  C1347   1.433   .     S
C1329  O1362   1.303   .     A
C1330  O1361   1.293   .     A
C1330  O1360   1.303   .     A
C1330  C1348   1.433   .     S
C1331  N1354   1.376   .     A
C1331  Cl1365  1.746   .     S
C1332  N1353   1.371   .     A
C1332  Cl1366  1.756   .     S
C1332  C865    1.420   1_565 S
C1333  N1354   1.376   .     A
C1333  Cl1367  1.746   .     S
C1334  Cl1368  1.756   .     S
C1334  N1353   1.371   .     A
C1334  C863    1.420   1_565 S
C1335  C1377   1.521   .     S
C1335  C1352   1.408   .     A
C1336  C1351   1.409   .     A
C1336  C1384   1.523   .     S
C1336  C1182   1.389   1_655 S
C1337  C1351   1.408   .     A
C1337  C1391   1.521   .     S
C1337  C1179   1.391   1_655 S
C1338  C1398   1.523   .     S
C1338  C1352   1.409   .     A
C1339  C1349   1.405   .     A
C1339  Cl1369  1.771   .     S
C1339  C1343   1.389   .     A
C1340  C1344   1.387   .     A
C1340  C1350   1.404   .     A
C1340  Cl1370  1.772   .     S
C1341  C1345   1.389   .     A
C1341  C1350   1.405   .     A
C1341  Cl1371  1.771   .     S
C1342  Cl1372  1.772   .     S
C1342  C1346   1.387   .     A
C1342  C1349   1.404   .     A
C1343  C1347   1.405   .     A
C1343  Cl1373  1.772   .     S
C1344  C1348   1.402   .     A
C1344  Cl1374  1.765   .     S
C1345  C1348   1.405   .     A
C1345  Cl1375  1.772   .     S
C1346  Cl1376  1.765   .     S
C1346  C1347   1.402   .     A
C1350  C647    1.446   1_556 S
N1353  Zn1363  2.043   .     S
N1354  Zn1364  2.043   .     S
O1355  Zn1363  1.983   .     S
O1356  Zn1364  1.983   .     S
O1357  Zn1363  1.983   .     S
O1358  Zn1364  1.983   .     S
O1359  Zn1363  1.995   .     S
O1360  Zn1364  1.995   .     S
O1361  Zn1363  1.995   .     S
O1362  Zn1364  1.995   .     S
C1377  H1382   1.108   .     S
C1377  H1383   1.099   .     S
C1377  C1378   1.530   .     S
C1378  H1380   1.111   .     S
H1379  C1222   1.111   1_655 S
H1381  C1222   1.108   1_655 S
C1384  H1390   1.106   .     S
C1384  C1385   1.528   .     S
C1384  H1389   1.110   .     S
C1385  H1386   1.111   .     S
C1385  H1387   1.109   .     S
C1385  H1388   1.110   .     S
C1391  H1396   1.108   .     S
C1391  H1397   1.099   .     S
C1391  C1392   1.530   .     S
C1392  H1394   1.111   .     S
C1392  H1237   1.111   1_655 S
C1392  H1239   1.108   1_655 S
C1398  H1404   1.106   .     S
C1398  H1403   1.111   .     S
C1398  C1399   1.528   .     S
C1399  H1400   1.109   .     S
C1399  H1401   1.110   .     S
C1399  H1402   1.111   .     S
