data_str_m3_o1_o5_pcu_sym.49
_audit_creation_date              2020-01-03
_audit_creation_method            'Materials Studio'
_symmetry_space_group_name_H-M    'P1'
_symmetry_Int_Tables_number       1
_symmetry_cell_setting            triclinic
loop_
_symmetry_equiv_pos_as_xyz
  x,y,z
_cell_length_a                    32.1727
_cell_length_b                    29.8252
_cell_length_c                    26.7068
_cell_angle_alpha                 90.0000
_cell_angle_beta                  91.5596
_cell_angle_gamma                 90.0000
loop_
_atom_site_label
_atom_site_type_symbol
_atom_site_fract_x
_atom_site_fract_y
_atom_site_fract_z
_atom_site_U_iso_or_equiv
_atom_site_adp_type
_atom_site_occupancy
Br1    Br    0.22968   0.05515   0.24411   0.00000  Uiso   1.00
Br2    Br    0.10365   0.27818   0.08922   0.00000  Uiso   1.00
Br3    Br    0.10365   0.05515   0.08922   0.00000  Uiso   1.00
Br4    Br    0.22968   0.27818   0.24411   0.00000  Uiso   1.00
C5     C     0.08672   0.16667   0.16667   0.00000  Uiso   1.00
C6     C     0.02128   0.20755   0.16674   0.00000  Uiso   1.00
C7     C     0.29082   0.16667   0.16660   0.00000  Uiso   1.00
C8     C     0.04251   0.16667   0.16673   0.00000  Uiso   1.00
C9     C     0.19264   0.02389   0.19855   0.00000  Uiso   1.00
C10    C     0.14069   0.30944   0.13478   0.00000  Uiso   1.00
C11    C     0.14069   0.02389   0.13478   0.00000  Uiso   1.00
C12    C     0.19264   0.30944   0.19855   0.00000  Uiso   1.00
C13    C     0.24662   0.16667   0.16667   0.00000  Uiso   1.00
C14    C     0.16661   0.16667   0.07298   0.00000  Uiso   1.00
C15    C     0.16672   0.16667   0.26035   0.00000  Uiso   1.00
C16    C     0.16665   0.16667   0.02182   0.00000  Uiso   1.00
C17    C     0.16669   0.16667   0.31151   0.00000  Uiso   1.00
C18    C     0.02128   0.12579   0.16674   0.00000  Uiso   1.00
C19    C     0.31205   0.20755   0.16660   0.00000  Uiso   1.00
C20    C     0.31205   0.12579   0.16660   0.00000  Uiso   1.00
H21    H     0.03738   0.09388   0.16687   0.00000  Uiso   1.00
H22    H     0.29596   0.23945   0.16647   0.00000  Uiso   1.00
H23    H     0.29596   0.09388   0.16647   0.00000  Uiso   1.00
H24    H     0.03738   0.23945   0.16687   0.00000  Uiso   1.00
N25    N     0.16667   0.28573   0.16667   0.00000  Uiso   1.00
N26    N     0.16667   0.04760   0.16667   0.00000  Uiso   1.00
O27    O     0.10559   0.20487   0.16666   0.00000  Uiso   1.00
O28    O     0.22774   0.12846   0.16667   0.00000  Uiso   1.00
O29    O     0.22774   0.20487   0.16667   0.00000  Uiso   1.00
O30    O     0.10559   0.12846   0.16666   0.00000  Uiso   1.00
O31    O     0.16667   0.20488   0.09511   0.00000  Uiso   1.00
O32    O     0.16666   0.12845   0.23822   0.00000  Uiso   1.00
O33    O     0.16666   0.20488   0.23822   0.00000  Uiso   1.00
O34    O     0.16667   0.12845   0.09511   0.00000  Uiso   1.00
Zn35   Zn    0.16667   0.21771   0.16667   0.00000  Uiso   1.00
Zn36   Zn    0.16667   0.11563   0.16667   0.00000  Uiso   1.00
Br37   Br    0.56302   0.05515   0.24411   0.00000  Uiso   1.00
Br38   Br    0.43698   0.27818   0.08922   0.00000  Uiso   1.00
Br39   Br    0.43698   0.05515   0.08922   0.00000  Uiso   1.00
Br40   Br    0.56302   0.27818   0.24411   0.00000  Uiso   1.00
C41    C     0.42005   0.16667   0.16667   0.00000  Uiso   1.00
C42    C     0.35462   0.20755   0.16674   0.00000  Uiso   1.00
C43    C     0.62416   0.16667   0.16660   0.00000  Uiso   1.00
C44    C     0.37584   0.16667   0.16673   0.00000  Uiso   1.00
C45    C     0.52598   0.02389   0.19855   0.00000  Uiso   1.00
C46    C     0.47402   0.30944   0.13478   0.00000  Uiso   1.00
C47    C     0.47402   0.02389   0.13478   0.00000  Uiso   1.00
C48    C     0.52598   0.30944   0.19855   0.00000  Uiso   1.00
C49    C     0.57995   0.16667   0.16667   0.00000  Uiso   1.00
C50    C     0.49994   0.16667   0.07298   0.00000  Uiso   1.00
C51    C     0.50006   0.16667   0.26035   0.00000  Uiso   1.00
C52    C     0.49998   0.16667   0.02182   0.00000  Uiso   1.00
C53    C     0.50002   0.16667   0.31151   0.00000  Uiso   1.00
C54    C     0.35462   0.12579   0.16674   0.00000  Uiso   1.00
C55    C     0.64538   0.20755   0.16660   0.00000  Uiso   1.00
C56    C     0.64538   0.12579   0.16660   0.00000  Uiso   1.00
H57    H     0.37071   0.09388   0.16687   0.00000  Uiso   1.00
H58    H     0.62929   0.23945   0.16647   0.00000  Uiso   1.00
H59    H     0.62929   0.09388   0.16647   0.00000  Uiso   1.00
H60    H     0.37071   0.23945   0.16687   0.00000  Uiso   1.00
N61    N     0.50000   0.28573   0.16667   0.00000  Uiso   1.00
N62    N     0.50000   0.04760   0.16667   0.00000  Uiso   1.00
O63    O     0.43892   0.20487   0.16666   0.00000  Uiso   1.00
O64    O     0.56108   0.12846   0.16667   0.00000  Uiso   1.00
O65    O     0.56108   0.20487   0.16667   0.00000  Uiso   1.00
O66    O     0.43892   0.12846   0.16666   0.00000  Uiso   1.00
O67    O     0.50000   0.20488   0.09511   0.00000  Uiso   1.00
O68    O     0.50000   0.12845   0.23822   0.00000  Uiso   1.00
O69    O     0.50000   0.20488   0.23822   0.00000  Uiso   1.00
O70    O     0.50000   0.12845   0.09511   0.00000  Uiso   1.00
Zn71   Zn    0.50000   0.21771   0.16667   0.00000  Uiso   1.00
Zn72   Zn    0.50000   0.11563   0.16667   0.00000  Uiso   1.00
Br73   Br    0.89635   0.05515   0.24411   0.00000  Uiso   1.00
Br74   Br    0.77031   0.27818   0.08922   0.00000  Uiso   1.00
Br75   Br    0.77031   0.05515   0.08922   0.00000  Uiso   1.00
Br76   Br    0.89635   0.27818   0.24411   0.00000  Uiso   1.00
C77    C     0.75338   0.16667   0.16667   0.00000  Uiso   1.00
C78    C     0.68795   0.20755   0.16674   0.00000  Uiso   1.00
C79    C     0.95749   0.16667   0.16660   0.00000  Uiso   1.00
C80    C     0.70918   0.16667   0.16673   0.00000  Uiso   1.00
C81    C     0.85931   0.02389   0.19855   0.00000  Uiso   1.00
C82    C     0.80736   0.30944   0.13478   0.00000  Uiso   1.00
C83    C     0.80736   0.02389   0.13478   0.00000  Uiso   1.00
C84    C     0.85931   0.30944   0.19855   0.00000  Uiso   1.00
C85    C     0.91328   0.16667   0.16667   0.00000  Uiso   1.00
C86    C     0.83328   0.16667   0.07298   0.00000  Uiso   1.00
C87    C     0.83339   0.16667   0.26035   0.00000  Uiso   1.00
C88    C     0.83331   0.16667   0.02182   0.00000  Uiso   1.00
C89    C     0.83335   0.16667   0.31151   0.00000  Uiso   1.00
C90    C     0.68795   0.12579   0.16674   0.00000  Uiso   1.00
C91    C     0.97872   0.20755   0.16660   0.00000  Uiso   1.00
C92    C     0.97872   0.12579   0.16660   0.00000  Uiso   1.00
H93    H     0.70404   0.09388   0.16687   0.00000  Uiso   1.00
H94    H     0.96262   0.23945   0.16647   0.00000  Uiso   1.00
H95    H     0.96262   0.09388   0.16647   0.00000  Uiso   1.00
H96    H     0.70404   0.23945   0.16687   0.00000  Uiso   1.00
N97    N     0.83333   0.28573   0.16667   0.00000  Uiso   1.00
N98    N     0.83333   0.04760   0.16667   0.00000  Uiso   1.00
O99    O     0.77226   0.20487   0.16666   0.00000  Uiso   1.00
O100   O     0.89441   0.12846   0.16667   0.00000  Uiso   1.00
O101   O     0.89441   0.20487   0.16667   0.00000  Uiso   1.00
O102   O     0.77226   0.12846   0.16666   0.00000  Uiso   1.00
O103   O     0.83334   0.20488   0.09511   0.00000  Uiso   1.00
O104   O     0.83333   0.12845   0.23822   0.00000  Uiso   1.00
O105   O     0.83333   0.20488   0.23822   0.00000  Uiso   1.00
O106   O     0.83334   0.12845   0.09511   0.00000  Uiso   1.00
Zn107  Zn    0.83333   0.21771   0.16667   0.00000  Uiso   1.00
Zn108  Zn    0.83333   0.11563   0.16667   0.00000  Uiso   1.00
Br109  Br    0.22968   0.38849   0.24411   0.00000  Uiso   1.00
Br110  Br    0.10365   0.61151   0.08922   0.00000  Uiso   1.00
Br111  Br    0.10365   0.38849   0.08922   0.00000  Uiso   1.00
Br112  Br    0.22968   0.61151   0.24411   0.00000  Uiso   1.00
C113   C     0.08672   0.50000   0.16667   0.00000  Uiso   1.00
C114   C     0.02128   0.54088   0.16674   0.00000  Uiso   1.00
C115   C     0.29082   0.50000   0.16660   0.00000  Uiso   1.00
C116   C     0.04251   0.50000   0.16673   0.00000  Uiso   1.00
C117   C     0.19264   0.35722   0.19855   0.00000  Uiso   1.00
C118   C     0.14069   0.64278   0.13478   0.00000  Uiso   1.00
C119   C     0.14069   0.35722   0.13478   0.00000  Uiso   1.00
C120   C     0.19264   0.64278   0.19855   0.00000  Uiso   1.00
C121   C     0.24662   0.50000   0.16667   0.00000  Uiso   1.00
C122   C     0.16661   0.50000   0.07298   0.00000  Uiso   1.00
C123   C     0.16672   0.50000   0.26035   0.00000  Uiso   1.00
C124   C     0.16665   0.50000   0.02182   0.00000  Uiso   1.00
C125   C     0.16669   0.50000   0.31151   0.00000  Uiso   1.00
C126   C     0.02128   0.45912   0.16674   0.00000  Uiso   1.00
C127   C     0.31205   0.54088   0.16660   0.00000  Uiso   1.00
C128   C     0.31205   0.45912   0.16660   0.00000  Uiso   1.00
H129   H     0.03738   0.42721   0.16687   0.00000  Uiso   1.00
H130   H     0.29596   0.57279   0.16647   0.00000  Uiso   1.00
H131   H     0.29596   0.42722   0.16647   0.00000  Uiso   1.00
H132   H     0.03738   0.57279   0.16687   0.00000  Uiso   1.00
N133   N     0.16667   0.61907   0.16667   0.00000  Uiso   1.00
N134   N     0.16667   0.38093   0.16667   0.00000  Uiso   1.00
O135   O     0.10559   0.53821   0.16666   0.00000  Uiso   1.00
O136   O     0.22774   0.46179   0.16667   0.00000  Uiso   1.00
O137   O     0.22774   0.53821   0.16667   0.00000  Uiso   1.00
O138   O     0.10559   0.46179   0.16666   0.00000  Uiso   1.00
O139   O     0.16667   0.53821   0.09511   0.00000  Uiso   1.00
O140   O     0.16666   0.46179   0.23822   0.00000  Uiso   1.00
O141   O     0.16666   0.53821   0.23822   0.00000  Uiso   1.00
O142   O     0.16667   0.46179   0.09511   0.00000  Uiso   1.00
Zn143  Zn    0.16667   0.55104   0.16667   0.00000  Uiso   1.00
Zn144  Zn    0.16667   0.44896   0.16667   0.00000  Uiso   1.00
Br145  Br    0.56302   0.38849   0.24411   0.00000  Uiso   1.00
Br146  Br    0.43698   0.61151   0.08922   0.00000  Uiso   1.00
Br147  Br    0.43698   0.38849   0.08922   0.00000  Uiso   1.00
Br148  Br    0.56302   0.61151   0.24411   0.00000  Uiso   1.00
C149   C     0.42005   0.50000   0.16667   0.00000  Uiso   1.00
C150   C     0.35462   0.54088   0.16674   0.00000  Uiso   1.00
C151   C     0.62416   0.50000   0.16660   0.00000  Uiso   1.00
C152   C     0.37584   0.50000   0.16673   0.00000  Uiso   1.00
C153   C     0.52598   0.35722   0.19855   0.00000  Uiso   1.00
C154   C     0.47402   0.64278   0.13478   0.00000  Uiso   1.00
C155   C     0.47402   0.35722   0.13478   0.00000  Uiso   1.00
C156   C     0.52598   0.64278   0.19855   0.00000  Uiso   1.00
C157   C     0.57995   0.50000   0.16667   0.00000  Uiso   1.00
C158   C     0.49994   0.50000   0.07298   0.00000  Uiso   1.00
C159   C     0.50006   0.50000   0.26035   0.00000  Uiso   1.00
C160   C     0.49998   0.50000   0.02182   0.00000  Uiso   1.00
C161   C     0.50002   0.50000   0.31151   0.00000  Uiso   1.00
C162   C     0.35462   0.45912   0.16674   0.00000  Uiso   1.00
C163   C     0.64538   0.54088   0.16660   0.00000  Uiso   1.00
C164   C     0.64538   0.45912   0.16660   0.00000  Uiso   1.00
H165   H     0.37071   0.42721   0.16687   0.00000  Uiso   1.00
H166   H     0.62929   0.57279   0.16647   0.00000  Uiso   1.00
H167   H     0.62929   0.42722   0.16647   0.00000  Uiso   1.00
H168   H     0.37071   0.57279   0.16687   0.00000  Uiso   1.00
N169   N     0.50000   0.61907   0.16667   0.00000  Uiso   1.00
N170   N     0.50000   0.38093   0.16667   0.00000  Uiso   1.00
O171   O     0.43892   0.53821   0.16666   0.00000  Uiso   1.00
O172   O     0.56108   0.46179   0.16667   0.00000  Uiso   1.00
O173   O     0.56108   0.53821   0.16667   0.00000  Uiso   1.00
O174   O     0.43892   0.46179   0.16666   0.00000  Uiso   1.00
O175   O     0.50000   0.53821   0.09511   0.00000  Uiso   1.00
O176   O     0.50000   0.46179   0.23822   0.00000  Uiso   1.00
O177   O     0.50000   0.53821   0.23822   0.00000  Uiso   1.00
O178   O     0.50000   0.46179   0.09511   0.00000  Uiso   1.00
Zn179  Zn    0.50000   0.55104   0.16667   0.00000  Uiso   1.00
Zn180  Zn    0.50000   0.44896   0.16667   0.00000  Uiso   1.00
Br181  Br    0.89635   0.38849   0.24411   0.00000  Uiso   1.00
Br182  Br    0.77031   0.61151   0.08922   0.00000  Uiso   1.00
Br183  Br    0.77031   0.38849   0.08922   0.00000  Uiso   1.00
Br184  Br    0.89635   0.61151   0.24411   0.00000  Uiso   1.00
C185   C     0.75338   0.50000   0.16667   0.00000  Uiso   1.00
C186   C     0.68795   0.54088   0.16674   0.00000  Uiso   1.00
C187   C     0.95749   0.50000   0.16660   0.00000  Uiso   1.00
C188   C     0.70918   0.50000   0.16673   0.00000  Uiso   1.00
C189   C     0.85931   0.35722   0.19855   0.00000  Uiso   1.00
C190   C     0.80736   0.64278   0.13478   0.00000  Uiso   1.00
C191   C     0.80736   0.35722   0.13478   0.00000  Uiso   1.00
C192   C     0.85931   0.64278   0.19855   0.00000  Uiso   1.00
C193   C     0.91328   0.50000   0.16667   0.00000  Uiso   1.00
C194   C     0.83328   0.50000   0.07298   0.00000  Uiso   1.00
C195   C     0.83339   0.50000   0.26035   0.00000  Uiso   1.00
C196   C     0.83331   0.50000   0.02182   0.00000  Uiso   1.00
C197   C     0.83335   0.50000   0.31151   0.00000  Uiso   1.00
C198   C     0.68795   0.45912   0.16674   0.00000  Uiso   1.00
C199   C     0.97872   0.54088   0.16660   0.00000  Uiso   1.00
C200   C     0.97872   0.45912   0.16660   0.00000  Uiso   1.00
H201   H     0.70404   0.42721   0.16687   0.00000  Uiso   1.00
H202   H     0.96262   0.57279   0.16647   0.00000  Uiso   1.00
H203   H     0.96262   0.42722   0.16647   0.00000  Uiso   1.00
H204   H     0.70404   0.57279   0.16687   0.00000  Uiso   1.00
N205   N     0.83333   0.61907   0.16667   0.00000  Uiso   1.00
N206   N     0.83333   0.38093   0.16667   0.00000  Uiso   1.00
O207   O     0.77226   0.53821   0.16666   0.00000  Uiso   1.00
O208   O     0.89441   0.46179   0.16667   0.00000  Uiso   1.00
O209   O     0.89441   0.53821   0.16667   0.00000  Uiso   1.00
O210   O     0.77226   0.46179   0.16666   0.00000  Uiso   1.00
O211   O     0.83334   0.53821   0.09511   0.00000  Uiso   1.00
O212   O     0.83333   0.46179   0.23822   0.00000  Uiso   1.00
O213   O     0.83333   0.53821   0.23822   0.00000  Uiso   1.00
O214   O     0.83334   0.46179   0.09511   0.00000  Uiso   1.00
Zn215  Zn    0.83333   0.55104   0.16667   0.00000  Uiso   1.00
Zn216  Zn    0.83333   0.44896   0.16667   0.00000  Uiso   1.00
Br217  Br    0.22968   0.72182   0.24411   0.00000  Uiso   1.00
Br218  Br    0.10365   0.94485   0.08922   0.00000  Uiso   1.00
Br219  Br    0.10365   0.72182   0.08922   0.00000  Uiso   1.00
Br220  Br    0.22968   0.94485   0.24411   0.00000  Uiso   1.00
C221   C     0.08672   0.83333   0.16667   0.00000  Uiso   1.00
C222   C     0.02128   0.87421   0.16674   0.00000  Uiso   1.00
C223   C     0.29082   0.83333   0.16660   0.00000  Uiso   1.00
C224   C     0.04251   0.83333   0.16673   0.00000  Uiso   1.00
C225   C     0.19264   0.69056   0.19855   0.00000  Uiso   1.00
C226   C     0.14069   0.97611   0.13478   0.00000  Uiso   1.00
C227   C     0.14069   0.69056   0.13478   0.00000  Uiso   1.00
C228   C     0.19264   0.97611   0.19855   0.00000  Uiso   1.00
C229   C     0.24662   0.83333   0.16667   0.00000  Uiso   1.00
C230   C     0.16661   0.83333   0.07298   0.00000  Uiso   1.00
C231   C     0.16672   0.83333   0.26035   0.00000  Uiso   1.00
C232   C     0.16665   0.83333   0.02182   0.00000  Uiso   1.00
C233   C     0.16669   0.83333   0.31151   0.00000  Uiso   1.00
C234   C     0.02128   0.79245   0.16674   0.00000  Uiso   1.00
C235   C     0.31205   0.87421   0.16660   0.00000  Uiso   1.00
C236   C     0.31205   0.79245   0.16660   0.00000  Uiso   1.00
H237   H     0.03738   0.76055   0.16687   0.00000  Uiso   1.00
H238   H     0.29596   0.90612   0.16647   0.00000  Uiso   1.00
H239   H     0.29596   0.76055   0.16647   0.00000  Uiso   1.00
H240   H     0.03738   0.90612   0.16687   0.00000  Uiso   1.00
N241   N     0.16667   0.95240   0.16667   0.00000  Uiso   1.00
N242   N     0.16667   0.71427   0.16667   0.00000  Uiso   1.00
O243   O     0.10559   0.87154   0.16666   0.00000  Uiso   1.00
O244   O     0.22774   0.79513   0.16667   0.00000  Uiso   1.00
O245   O     0.22774   0.87154   0.16667   0.00000  Uiso   1.00
O246   O     0.10559   0.79513   0.16666   0.00000  Uiso   1.00
O247   O     0.16667   0.87155   0.09511   0.00000  Uiso   1.00
O248   O     0.16666   0.79512   0.23822   0.00000  Uiso   1.00
O249   O     0.16666   0.87155   0.23822   0.00000  Uiso   1.00
O250   O     0.16667   0.79512   0.09511   0.00000  Uiso   1.00
Zn251  Zn    0.16667   0.88437   0.16667   0.00000  Uiso   1.00
Zn252  Zn    0.16667   0.78229   0.16667   0.00000  Uiso   1.00
Br253  Br    0.56302   0.72182   0.24411   0.00000  Uiso   1.00
Br254  Br    0.43698   0.94485   0.08922   0.00000  Uiso   1.00
Br255  Br    0.43698   0.72182   0.08922   0.00000  Uiso   1.00
Br256  Br    0.56302   0.94485   0.24411   0.00000  Uiso   1.00
C257   C     0.42005   0.83333   0.16667   0.00000  Uiso   1.00
C258   C     0.35462   0.87421   0.16674   0.00000  Uiso   1.00
C259   C     0.62416   0.83333   0.16660   0.00000  Uiso   1.00
C260   C     0.37584   0.83333   0.16673   0.00000  Uiso   1.00
C261   C     0.52598   0.69056   0.19855   0.00000  Uiso   1.00
C262   C     0.47402   0.97611   0.13478   0.00000  Uiso   1.00
C263   C     0.47402   0.69056   0.13478   0.00000  Uiso   1.00
C264   C     0.52598   0.97611   0.19855   0.00000  Uiso   1.00
C265   C     0.57995   0.83333   0.16667   0.00000  Uiso   1.00
C266   C     0.49994   0.83333   0.07298   0.00000  Uiso   1.00
C267   C     0.50006   0.83333   0.26035   0.00000  Uiso   1.00
C268   C     0.49998   0.83333   0.02182   0.00000  Uiso   1.00
C269   C     0.50002   0.83333   0.31151   0.00000  Uiso   1.00
C270   C     0.35462   0.79245   0.16674   0.00000  Uiso   1.00
C271   C     0.64538   0.87421   0.16660   0.00000  Uiso   1.00
C272   C     0.64538   0.79245   0.16660   0.00000  Uiso   1.00
H273   H     0.37071   0.76055   0.16687   0.00000  Uiso   1.00
H274   H     0.62929   0.90612   0.16647   0.00000  Uiso   1.00
H275   H     0.62929   0.76055   0.16647   0.00000  Uiso   1.00
H276   H     0.37071   0.90612   0.16687   0.00000  Uiso   1.00
N277   N     0.50000   0.95240   0.16667   0.00000  Uiso   1.00
N278   N     0.50000   0.71427   0.16667   0.00000  Uiso   1.00
O279   O     0.43892   0.87154   0.16666   0.00000  Uiso   1.00
O280   O     0.56108   0.79513   0.16667   0.00000  Uiso   1.00
O281   O     0.56108   0.87154   0.16667   0.00000  Uiso   1.00
O282   O     0.43892   0.79513   0.16666   0.00000  Uiso   1.00
O283   O     0.50000   0.87155   0.09511   0.00000  Uiso   1.00
O284   O     0.50000   0.79512   0.23822   0.00000  Uiso   1.00
O285   O     0.50000   0.87155   0.23822   0.00000  Uiso   1.00
O286   O     0.50000   0.79512   0.09511   0.00000  Uiso   1.00
Zn287  Zn    0.50000   0.88437   0.16667   0.00000  Uiso   1.00
Zn288  Zn    0.50000   0.78229   0.16667   0.00000  Uiso   1.00
Br289  Br    0.89635   0.72182   0.24411   0.00000  Uiso   1.00
Br290  Br    0.77031   0.94485   0.08922   0.00000  Uiso   1.00
Br291  Br    0.77031   0.72182   0.08922   0.00000  Uiso   1.00
Br292  Br    0.89635   0.94485   0.24411   0.00000  Uiso   1.00
C293   C     0.75338   0.83333   0.16667   0.00000  Uiso   1.00
C294   C     0.68795   0.87421   0.16674   0.00000  Uiso   1.00
C295   C     0.95749   0.83333   0.16660   0.00000  Uiso   1.00
C296   C     0.70918   0.83333   0.16673   0.00000  Uiso   1.00
C297   C     0.85931   0.69056   0.19855   0.00000  Uiso   1.00
C298   C     0.80736   0.97611   0.13478   0.00000  Uiso   1.00
C299   C     0.80736   0.69056   0.13478   0.00000  Uiso   1.00
C300   C     0.85931   0.97611   0.19855   0.00000  Uiso   1.00
C301   C     0.91328   0.83333   0.16667   0.00000  Uiso   1.00
C302   C     0.83328   0.83333   0.07298   0.00000  Uiso   1.00
C303   C     0.83339   0.83333   0.26035   0.00000  Uiso   1.00
C304   C     0.83331   0.83333   0.02182   0.00000  Uiso   1.00
C305   C     0.83335   0.83333   0.31151   0.00000  Uiso   1.00
C306   C     0.68795   0.79245   0.16674   0.00000  Uiso   1.00
C307   C     0.97872   0.87421   0.16660   0.00000  Uiso   1.00
C308   C     0.97872   0.79245   0.16660   0.00000  Uiso   1.00
H309   H     0.70404   0.76055   0.16687   0.00000  Uiso   1.00
H310   H     0.96262   0.90612   0.16647   0.00000  Uiso   1.00
H311   H     0.96262   0.76055   0.16647   0.00000  Uiso   1.00
H312   H     0.70404   0.90612   0.16687   0.00000  Uiso   1.00
N313   N     0.83333   0.95240   0.16667   0.00000  Uiso   1.00
N314   N     0.83333   0.71427   0.16667   0.00000  Uiso   1.00
O315   O     0.77226   0.87154   0.16666   0.00000  Uiso   1.00
O316   O     0.89441   0.79513   0.16667   0.00000  Uiso   1.00
O317   O     0.89441   0.87154   0.16667   0.00000  Uiso   1.00
O318   O     0.77226   0.79513   0.16666   0.00000  Uiso   1.00
O319   O     0.83334   0.87155   0.09511   0.00000  Uiso   1.00
O320   O     0.83333   0.79512   0.23822   0.00000  Uiso   1.00
O321   O     0.83333   0.87155   0.23822   0.00000  Uiso   1.00
O322   O     0.83334   0.79512   0.09511   0.00000  Uiso   1.00
Zn323  Zn    0.83333   0.88437   0.16667   0.00000  Uiso   1.00
Zn324  Zn    0.83333   0.78229   0.16667   0.00000  Uiso   1.00
Br325  Br    0.22968   0.05515   0.57744   0.00000  Uiso   1.00
Br326  Br    0.10365   0.27818   0.42256   0.00000  Uiso   1.00
Br327  Br    0.10365   0.05515   0.42256   0.00000  Uiso   1.00
Br328  Br    0.22968   0.27818   0.57744   0.00000  Uiso   1.00
C329   C     0.08672   0.16667   0.50000   0.00000  Uiso   1.00
C330   C     0.02128   0.20755   0.50007   0.00000  Uiso   1.00
C331   C     0.29082   0.16667   0.49994   0.00000  Uiso   1.00
C332   C     0.04251   0.16667   0.50007   0.00000  Uiso   1.00
C333   C     0.19264   0.02389   0.53189   0.00000  Uiso   1.00
C334   C     0.14069   0.30944   0.46811   0.00000  Uiso   1.00
C335   C     0.14069   0.02389   0.46811   0.00000  Uiso   1.00
C336   C     0.19264   0.30944   0.53189   0.00000  Uiso   1.00
C337   C     0.24662   0.16667   0.50000   0.00000  Uiso   1.00
C338   C     0.16661   0.16667   0.40632   0.00000  Uiso   1.00
C339   C     0.16672   0.16667   0.59368   0.00000  Uiso   1.00
C340   C     0.16665   0.16667   0.35515   0.00000  Uiso   1.00
C341   C     0.16669   0.16667   0.64485   0.00000  Uiso   1.00
C342   C     0.02128   0.12579   0.50007   0.00000  Uiso   1.00
C343   C     0.31205   0.20755   0.49993   0.00000  Uiso   1.00
C344   C     0.31205   0.12579   0.49993   0.00000  Uiso   1.00
H345   H     0.03738   0.09388   0.50020   0.00000  Uiso   1.00
H346   H     0.29596   0.23945   0.49980   0.00000  Uiso   1.00
H347   H     0.29596   0.09388   0.49980   0.00000  Uiso   1.00
H348   H     0.03738   0.23945   0.50020   0.00000  Uiso   1.00
N349   N     0.16667   0.28573   0.50000   0.00000  Uiso   1.00
N350   N     0.16667   0.04760   0.50000   0.00000  Uiso   1.00
O351   O     0.10559   0.20487   0.50000   0.00000  Uiso   1.00
O352   O     0.22774   0.12846   0.50000   0.00000  Uiso   1.00
O353   O     0.22774   0.20487   0.50000   0.00000  Uiso   1.00
O354   O     0.10559   0.12846   0.50000   0.00000  Uiso   1.00
O355   O     0.16667   0.20488   0.42845   0.00000  Uiso   1.00
O356   O     0.16666   0.12845   0.57155   0.00000  Uiso   1.00
O357   O     0.16666   0.20488   0.57155   0.00000  Uiso   1.00
O358   O     0.16667   0.12845   0.42845   0.00000  Uiso   1.00
Zn359  Zn    0.16667   0.21771   0.50000   0.00000  Uiso   1.00
Zn360  Zn    0.16667   0.11563   0.50000   0.00000  Uiso   1.00
Br361  Br    0.56302   0.05515   0.57744   0.00000  Uiso   1.00
Br362  Br    0.43698   0.27818   0.42256   0.00000  Uiso   1.00
Br363  Br    0.43698   0.05515   0.42256   0.00000  Uiso   1.00
Br364  Br    0.56302   0.27818   0.57744   0.00000  Uiso   1.00
C365   C     0.42005   0.16667   0.50000   0.00000  Uiso   1.00
C366   C     0.35462   0.20755   0.50007   0.00000  Uiso   1.00
C367   C     0.62416   0.16667   0.49994   0.00000  Uiso   1.00
C368   C     0.37584   0.16667   0.50007   0.00000  Uiso   1.00
C369   C     0.52598   0.02389   0.53189   0.00000  Uiso   1.00
C370   C     0.47402   0.30944   0.46811   0.00000  Uiso   1.00
C371   C     0.47402   0.02389   0.46811   0.00000  Uiso   1.00
C372   C     0.52598   0.30944   0.53189   0.00000  Uiso   1.00
C373   C     0.57995   0.16667   0.50000   0.00000  Uiso   1.00
C374   C     0.49994   0.16667   0.40632   0.00000  Uiso   1.00
C375   C     0.50006   0.16667   0.59368   0.00000  Uiso   1.00
C376   C     0.49998   0.16667   0.35515   0.00000  Uiso   1.00
C377   C     0.50002   0.16667   0.64485   0.00000  Uiso   1.00
C378   C     0.35462   0.12579   0.50007   0.00000  Uiso   1.00
C379   C     0.64538   0.20755   0.49993   0.00000  Uiso   1.00
C380   C     0.64538   0.12579   0.49993   0.00000  Uiso   1.00
H381   H     0.37071   0.09388   0.50020   0.00000  Uiso   1.00
H382   H     0.62929   0.23945   0.49980   0.00000  Uiso   1.00
H383   H     0.62929   0.09388   0.49980   0.00000  Uiso   1.00
H384   H     0.37071   0.23945   0.50020   0.00000  Uiso   1.00
N385   N     0.50000   0.28573   0.50000   0.00000  Uiso   1.00
N386   N     0.50000   0.04760   0.50000   0.00000  Uiso   1.00
O387   O     0.43892   0.20487   0.50000   0.00000  Uiso   1.00
O388   O     0.56108   0.12846   0.50000   0.00000  Uiso   1.00
O389   O     0.56108   0.20487   0.50000   0.00000  Uiso   1.00
O390   O     0.43892   0.12846   0.50000   0.00000  Uiso   1.00
O391   O     0.50000   0.20488   0.42845   0.00000  Uiso   1.00
O392   O     0.50000   0.12845   0.57155   0.00000  Uiso   1.00
O393   O     0.50000   0.20488   0.57155   0.00000  Uiso   1.00
O394   O     0.50000   0.12845   0.42845   0.00000  Uiso   1.00
Zn395  Zn    0.50000   0.21771   0.50000   0.00000  Uiso   1.00
Zn396  Zn    0.50000   0.11563   0.50000   0.00000  Uiso   1.00
Br397  Br    0.89635   0.05515   0.57744   0.00000  Uiso   1.00
Br398  Br    0.77031   0.27818   0.42256   0.00000  Uiso   1.00
Br399  Br    0.77031   0.05515   0.42256   0.00000  Uiso   1.00
Br400  Br    0.89635   0.27818   0.57744   0.00000  Uiso   1.00
C401   C     0.75338   0.16667   0.50000   0.00000  Uiso   1.00
C402   C     0.68795   0.20755   0.50007   0.00000  Uiso   1.00
C403   C     0.95749   0.16667   0.49994   0.00000  Uiso   1.00
C404   C     0.70918   0.16667   0.50007   0.00000  Uiso   1.00
C405   C     0.85931   0.02389   0.53189   0.00000  Uiso   1.00
C406   C     0.80736   0.30944   0.46811   0.00000  Uiso   1.00
C407   C     0.80736   0.02389   0.46811   0.00000  Uiso   1.00
C408   C     0.85931   0.30944   0.53189   0.00000  Uiso   1.00
C409   C     0.91328   0.16667   0.50000   0.00000  Uiso   1.00
C410   C     0.83328   0.16667   0.40632   0.00000  Uiso   1.00
C411   C     0.83339   0.16667   0.59368   0.00000  Uiso   1.00
C412   C     0.83331   0.16667   0.35515   0.00000  Uiso   1.00
C413   C     0.83335   0.16667   0.64485   0.00000  Uiso   1.00
C414   C     0.68795   0.12579   0.50007   0.00000  Uiso   1.00
C415   C     0.97872   0.20755   0.49993   0.00000  Uiso   1.00
C416   C     0.97872   0.12579   0.49993   0.00000  Uiso   1.00
H417   H     0.70404   0.09388   0.50020   0.00000  Uiso   1.00
H418   H     0.96262   0.23945   0.49980   0.00000  Uiso   1.00
H419   H     0.96262   0.09388   0.49980   0.00000  Uiso   1.00
H420   H     0.70404   0.23945   0.50020   0.00000  Uiso   1.00
N421   N     0.83333   0.28573   0.50000   0.00000  Uiso   1.00
N422   N     0.83333   0.04760   0.50000   0.00000  Uiso   1.00
O423   O     0.77226   0.20487   0.50000   0.00000  Uiso   1.00
O424   O     0.89441   0.12846   0.50000   0.00000  Uiso   1.00
O425   O     0.89441   0.20487   0.50000   0.00000  Uiso   1.00
O426   O     0.77226   0.12846   0.50000   0.00000  Uiso   1.00
O427   O     0.83334   0.20488   0.42845   0.00000  Uiso   1.00
O428   O     0.83333   0.12845   0.57155   0.00000  Uiso   1.00
O429   O     0.83333   0.20488   0.57155   0.00000  Uiso   1.00
O430   O     0.83334   0.12845   0.42845   0.00000  Uiso   1.00
Zn431  Zn    0.83333   0.21771   0.50000   0.00000  Uiso   1.00
Zn432  Zn    0.83333   0.11563   0.50000   0.00000  Uiso   1.00
Br433  Br    0.22968   0.38849   0.57744   0.00000  Uiso   1.00
Br434  Br    0.10365   0.61151   0.42256   0.00000  Uiso   1.00
Br435  Br    0.10365   0.38849   0.42256   0.00000  Uiso   1.00
Br436  Br    0.22968   0.61151   0.57744   0.00000  Uiso   1.00
C437   C     0.08672   0.50000   0.50000   0.00000  Uiso   1.00
C438   C     0.02128   0.54088   0.50007   0.00000  Uiso   1.00
C439   C     0.29082   0.50000   0.49994   0.00000  Uiso   1.00
C440   C     0.04251   0.50000   0.50007   0.00000  Uiso   1.00
C441   C     0.19264   0.35722   0.53189   0.00000  Uiso   1.00
C442   C     0.14069   0.64278   0.46811   0.00000  Uiso   1.00
C443   C     0.14069   0.35722   0.46811   0.00000  Uiso   1.00
C444   C     0.19264   0.64278   0.53189   0.00000  Uiso   1.00
C445   C     0.24662   0.50000   0.50000   0.00000  Uiso   1.00
C446   C     0.16661   0.50000   0.40632   0.00000  Uiso   1.00
C447   C     0.16672   0.50000   0.59368   0.00000  Uiso   1.00
C448   C     0.16665   0.50000   0.35515   0.00000  Uiso   1.00
C449   C     0.16669   0.50000   0.64485   0.00000  Uiso   1.00
C450   C     0.02128   0.45912   0.50007   0.00000  Uiso   1.00
C451   C     0.31205   0.54088   0.49993   0.00000  Uiso   1.00
C452   C     0.31205   0.45912   0.49993   0.00000  Uiso   1.00
H453   H     0.03738   0.42721   0.50020   0.00000  Uiso   1.00
H454   H     0.29596   0.57279   0.49980   0.00000  Uiso   1.00
H455   H     0.29596   0.42722   0.49980   0.00000  Uiso   1.00
H456   H     0.03738   0.57279   0.50020   0.00000  Uiso   1.00
N457   N     0.16667   0.61907   0.50000   0.00000  Uiso   1.00
N458   N     0.16667   0.38093   0.50000   0.00000  Uiso   1.00
O459   O     0.10559   0.53821   0.50000   0.00000  Uiso   1.00
O460   O     0.22774   0.46179   0.50000   0.00000  Uiso   1.00
O461   O     0.22774   0.53821   0.50000   0.00000  Uiso   1.00
O462   O     0.10559   0.46179   0.50000   0.00000  Uiso   1.00
O463   O     0.16667   0.53821   0.42845   0.00000  Uiso   1.00
O464   O     0.16666   0.46179   0.57155   0.00000  Uiso   1.00
O465   O     0.16666   0.53821   0.57155   0.00000  Uiso   1.00
O466   O     0.16667   0.46179   0.42845   0.00000  Uiso   1.00
Zn467  Zn    0.16667   0.55104   0.50000   0.00000  Uiso   1.00
Zn468  Zn    0.16667   0.44896   0.50000   0.00000  Uiso   1.00
Br469  Br    0.56302   0.38849   0.57744   0.00000  Uiso   1.00
Br470  Br    0.43698   0.61151   0.42256   0.00000  Uiso   1.00
Br471  Br    0.43698   0.38849   0.42256   0.00000  Uiso   1.00
Br472  Br    0.56302   0.61151   0.57744   0.00000  Uiso   1.00
C473   C     0.42005   0.50000   0.50000   0.00000  Uiso   1.00
C474   C     0.35462   0.54088   0.50007   0.00000  Uiso   1.00
C475   C     0.62416   0.50000   0.49994   0.00000  Uiso   1.00
C476   C     0.37584   0.50000   0.50007   0.00000  Uiso   1.00
C477   C     0.52598   0.35722   0.53189   0.00000  Uiso   1.00
C478   C     0.47402   0.64278   0.46811   0.00000  Uiso   1.00
C479   C     0.47402   0.35722   0.46811   0.00000  Uiso   1.00
C480   C     0.52598   0.64278   0.53189   0.00000  Uiso   1.00
C481   C     0.57995   0.50000   0.50000   0.00000  Uiso   1.00
C482   C     0.49994   0.50000   0.40632   0.00000  Uiso   1.00
C483   C     0.50006   0.50000   0.59368   0.00000  Uiso   1.00
C484   C     0.49998   0.50000   0.35515   0.00000  Uiso   1.00
C485   C     0.50002   0.50000   0.64485   0.00000  Uiso   1.00
C486   C     0.35462   0.45912   0.50007   0.00000  Uiso   1.00
C487   C     0.64538   0.54088   0.49993   0.00000  Uiso   1.00
C488   C     0.64538   0.45912   0.49993   0.00000  Uiso   1.00
H489   H     0.37071   0.42721   0.50020   0.00000  Uiso   1.00
H490   H     0.62929   0.57279   0.49980   0.00000  Uiso   1.00
H491   H     0.62929   0.42722   0.49980   0.00000  Uiso   1.00
H492   H     0.37071   0.57279   0.50020   0.00000  Uiso   1.00
N493   N     0.50000   0.61907   0.50000   0.00000  Uiso   1.00
N494   N     0.50000   0.38093   0.50000   0.00000  Uiso   1.00
O495   O     0.43892   0.53821   0.50000   0.00000  Uiso   1.00
O496   O     0.56108   0.46179   0.50000   0.00000  Uiso   1.00
O497   O     0.56108   0.53821   0.50000   0.00000  Uiso   1.00
O498   O     0.43892   0.46179   0.50000   0.00000  Uiso   1.00
O499   O     0.50000   0.53821   0.42845   0.00000  Uiso   1.00
O500   O     0.50000   0.46179   0.57155   0.00000  Uiso   1.00
O501   O     0.50000   0.53821   0.57155   0.00000  Uiso   1.00
O502   O     0.50000   0.46179   0.42845   0.00000  Uiso   1.00
Zn503  Zn    0.50000   0.55104   0.50000   0.00000  Uiso   1.00
Zn504  Zn    0.50000   0.44896   0.50000   0.00000  Uiso   1.00
Br505  Br    0.89635   0.38849   0.57744   0.00000  Uiso   1.00
Br506  Br    0.77031   0.61151   0.42256   0.00000  Uiso   1.00
Br507  Br    0.77031   0.38849   0.42256   0.00000  Uiso   1.00
Br508  Br    0.89635   0.61151   0.57744   0.00000  Uiso   1.00
C509   C     0.75338   0.50000   0.50000   0.00000  Uiso   1.00
C510   C     0.68795   0.54088   0.50007   0.00000  Uiso   1.00
C511   C     0.95749   0.50000   0.49994   0.00000  Uiso   1.00
C512   C     0.70918   0.50000   0.50007   0.00000  Uiso   1.00
C513   C     0.85931   0.35722   0.53189   0.00000  Uiso   1.00
C514   C     0.80736   0.64278   0.46811   0.00000  Uiso   1.00
C515   C     0.80736   0.35722   0.46811   0.00000  Uiso   1.00
C516   C     0.85931   0.64278   0.53189   0.00000  Uiso   1.00
C517   C     0.91328   0.50000   0.50000   0.00000  Uiso   1.00
C518   C     0.83328   0.50000   0.40632   0.00000  Uiso   1.00
C519   C     0.83339   0.50000   0.59368   0.00000  Uiso   1.00
C520   C     0.83331   0.50000   0.35515   0.00000  Uiso   1.00
C521   C     0.83335   0.50000   0.64485   0.00000  Uiso   1.00
C522   C     0.68795   0.45912   0.50007   0.00000  Uiso   1.00
C523   C     0.97872   0.54088   0.49993   0.00000  Uiso   1.00
C524   C     0.97872   0.45912   0.49993   0.00000  Uiso   1.00
H525   H     0.70404   0.42721   0.50020   0.00000  Uiso   1.00
H526   H     0.96262   0.57279   0.49980   0.00000  Uiso   1.00
H527   H     0.96262   0.42722   0.49980   0.00000  Uiso   1.00
H528   H     0.70404   0.57279   0.50020   0.00000  Uiso   1.00
N529   N     0.83333   0.61907   0.50000   0.00000  Uiso   1.00
N530   N     0.83333   0.38093   0.50000   0.00000  Uiso   1.00
O531   O     0.77226   0.53821   0.50000   0.00000  Uiso   1.00
O532   O     0.89441   0.46179   0.50000   0.00000  Uiso   1.00
O533   O     0.89441   0.53821   0.50000   0.00000  Uiso   1.00
O534   O     0.77226   0.46179   0.50000   0.00000  Uiso   1.00
O535   O     0.83334   0.53821   0.42845   0.00000  Uiso   1.00
O536   O     0.83333   0.46179   0.57155   0.00000  Uiso   1.00
O537   O     0.83333   0.53821   0.57155   0.00000  Uiso   1.00
O538   O     0.83334   0.46179   0.42845   0.00000  Uiso   1.00
Zn539  Zn    0.83333   0.55104   0.50000   0.00000  Uiso   1.00
Zn540  Zn    0.83333   0.44896   0.50000   0.00000  Uiso   1.00
Br541  Br    0.22968   0.72182   0.57744   0.00000  Uiso   1.00
Br542  Br    0.10365   0.94485   0.42256   0.00000  Uiso   1.00
Br543  Br    0.10365   0.72182   0.42256   0.00000  Uiso   1.00
Br544  Br    0.22968   0.94485   0.57744   0.00000  Uiso   1.00
C545   C     0.08672   0.83333   0.50000   0.00000  Uiso   1.00
C546   C     0.02128   0.87421   0.50007   0.00000  Uiso   1.00
C547   C     0.29082   0.83333   0.49994   0.00000  Uiso   1.00
C548   C     0.04251   0.83333   0.50007   0.00000  Uiso   1.00
C549   C     0.19264   0.69056   0.53189   0.00000  Uiso   1.00
C550   C     0.14069   0.97611   0.46811   0.00000  Uiso   1.00
C551   C     0.14069   0.69056   0.46811   0.00000  Uiso   1.00
C552   C     0.19264   0.97611   0.53189   0.00000  Uiso   1.00
C553   C     0.24662   0.83333   0.50000   0.00000  Uiso   1.00
C554   C     0.16661   0.83333   0.40632   0.00000  Uiso   1.00
C555   C     0.16672   0.83333   0.59368   0.00000  Uiso   1.00
C556   C     0.16665   0.83333   0.35515   0.00000  Uiso   1.00
C557   C     0.16669   0.83333   0.64485   0.00000  Uiso   1.00
C558   C     0.02128   0.79245   0.50007   0.00000  Uiso   1.00
C559   C     0.31205   0.87421   0.49993   0.00000  Uiso   1.00
C560   C     0.31205   0.79245   0.49993   0.00000  Uiso   1.00
H561   H     0.03738   0.76055   0.50020   0.00000  Uiso   1.00
H562   H     0.29596   0.90612   0.49980   0.00000  Uiso   1.00
H563   H     0.29596   0.76055   0.49980   0.00000  Uiso   1.00
H564   H     0.03738   0.90612   0.50020   0.00000  Uiso   1.00
N565   N     0.16667   0.95240   0.50000   0.00000  Uiso   1.00
N566   N     0.16667   0.71427   0.50000   0.00000  Uiso   1.00
O567   O     0.10559   0.87154   0.50000   0.00000  Uiso   1.00
O568   O     0.22774   0.79513   0.50000   0.00000  Uiso   1.00
O569   O     0.22774   0.87154   0.50000   0.00000  Uiso   1.00
O570   O     0.10559   0.79513   0.50000   0.00000  Uiso   1.00
O571   O     0.16667   0.87155   0.42845   0.00000  Uiso   1.00
O572   O     0.16666   0.79512   0.57155   0.00000  Uiso   1.00
O573   O     0.16666   0.87155   0.57155   0.00000  Uiso   1.00
O574   O     0.16667   0.79512   0.42845   0.00000  Uiso   1.00
Zn575  Zn    0.16667   0.88437   0.50000   0.00000  Uiso   1.00
Zn576  Zn    0.16667   0.78229   0.50000   0.00000  Uiso   1.00
Br577  Br    0.56302   0.72182   0.57744   0.00000  Uiso   1.00
Br578  Br    0.43698   0.94485   0.42256   0.00000  Uiso   1.00
Br579  Br    0.43698   0.72182   0.42256   0.00000  Uiso   1.00
Br580  Br    0.56302   0.94485   0.57744   0.00000  Uiso   1.00
C581   C     0.42005   0.83333   0.50000   0.00000  Uiso   1.00
C582   C     0.35462   0.87421   0.50007   0.00000  Uiso   1.00
C583   C     0.62416   0.83333   0.49994   0.00000  Uiso   1.00
C584   C     0.37584   0.83333   0.50007   0.00000  Uiso   1.00
C585   C     0.52598   0.69056   0.53189   0.00000  Uiso   1.00
C586   C     0.47402   0.97611   0.46811   0.00000  Uiso   1.00
C587   C     0.47402   0.69056   0.46811   0.00000  Uiso   1.00
C588   C     0.52598   0.97611   0.53189   0.00000  Uiso   1.00
C589   C     0.57995   0.83333   0.50000   0.00000  Uiso   1.00
C590   C     0.49994   0.83333   0.40632   0.00000  Uiso   1.00
C591   C     0.50006   0.83333   0.59368   0.00000  Uiso   1.00
C592   C     0.49998   0.83333   0.35515   0.00000  Uiso   1.00
C593   C     0.50002   0.83333   0.64485   0.00000  Uiso   1.00
C594   C     0.35462   0.79245   0.50007   0.00000  Uiso   1.00
C595   C     0.64538   0.87421   0.49993   0.00000  Uiso   1.00
C596   C     0.64538   0.79245   0.49993   0.00000  Uiso   1.00
H597   H     0.37071   0.76055   0.50020   0.00000  Uiso   1.00
H598   H     0.62929   0.90612   0.49980   0.00000  Uiso   1.00
H599   H     0.62929   0.76055   0.49980   0.00000  Uiso   1.00
H600   H     0.37071   0.90612   0.50020   0.00000  Uiso   1.00
N601   N     0.50000   0.95240   0.50000   0.00000  Uiso   1.00
N602   N     0.50000   0.71427   0.50000   0.00000  Uiso   1.00
O603   O     0.43892   0.87154   0.50000   0.00000  Uiso   1.00
O604   O     0.56108   0.79513   0.50000   0.00000  Uiso   1.00
O605   O     0.56108   0.87154   0.50000   0.00000  Uiso   1.00
O606   O     0.43892   0.79513   0.50000   0.00000  Uiso   1.00
O607   O     0.50000   0.87155   0.42845   0.00000  Uiso   1.00
O608   O     0.50000   0.79512   0.57155   0.00000  Uiso   1.00
O609   O     0.50000   0.87155   0.57155   0.00000  Uiso   1.00
O610   O     0.50000   0.79512   0.42845   0.00000  Uiso   1.00
Zn611  Zn    0.50000   0.88437   0.50000   0.00000  Uiso   1.00
Zn612  Zn    0.50000   0.78229   0.50000   0.00000  Uiso   1.00
Br613  Br    0.89635   0.72182   0.57744   0.00000  Uiso   1.00
Br614  Br    0.77031   0.94485   0.42256   0.00000  Uiso   1.00
Br615  Br    0.77031   0.72182   0.42256   0.00000  Uiso   1.00
Br616  Br    0.89635   0.94485   0.57744   0.00000  Uiso   1.00
C617   C     0.75338   0.83333   0.50000   0.00000  Uiso   1.00
C618   C     0.68795   0.87421   0.50007   0.00000  Uiso   1.00
C619   C     0.95749   0.83333   0.49994   0.00000  Uiso   1.00
C620   C     0.70918   0.83333   0.50007   0.00000  Uiso   1.00
C621   C     0.85931   0.69056   0.53189   0.00000  Uiso   1.00
C622   C     0.80736   0.97611   0.46811   0.00000  Uiso   1.00
C623   C     0.80736   0.69056   0.46811   0.00000  Uiso   1.00
C624   C     0.85931   0.97611   0.53189   0.00000  Uiso   1.00
C625   C     0.91328   0.83333   0.50000   0.00000  Uiso   1.00
C626   C     0.83328   0.83333   0.40632   0.00000  Uiso   1.00
C627   C     0.83339   0.83333   0.59368   0.00000  Uiso   1.00
C628   C     0.83331   0.83333   0.35515   0.00000  Uiso   1.00
C629   C     0.83335   0.83333   0.64485   0.00000  Uiso   1.00
C630   C     0.68795   0.79245   0.50007   0.00000  Uiso   1.00
C631   C     0.97872   0.87421   0.49993   0.00000  Uiso   1.00
C632   C     0.97872   0.79245   0.49993   0.00000  Uiso   1.00
H633   H     0.70404   0.76055   0.50020   0.00000  Uiso   1.00
H634   H     0.96262   0.90612   0.49980   0.00000  Uiso   1.00
H635   H     0.96262   0.76055   0.49980   0.00000  Uiso   1.00
H636   H     0.70404   0.90612   0.50020   0.00000  Uiso   1.00
N637   N     0.83333   0.95240   0.50000   0.00000  Uiso   1.00
N638   N     0.83333   0.71427   0.50000   0.00000  Uiso   1.00
O639   O     0.77226   0.87154   0.50000   0.00000  Uiso   1.00
O640   O     0.89441   0.79513   0.50000   0.00000  Uiso   1.00
O641   O     0.89441   0.87154   0.50000   0.00000  Uiso   1.00
O642   O     0.77226   0.79513   0.50000   0.00000  Uiso   1.00
O643   O     0.83334   0.87155   0.42845   0.00000  Uiso   1.00
O644   O     0.83333   0.79512   0.57155   0.00000  Uiso   1.00
O645   O     0.83333   0.87155   0.57155   0.00000  Uiso   1.00
O646   O     0.83334   0.79512   0.42845   0.00000  Uiso   1.00
Zn647  Zn    0.83333   0.88437   0.50000   0.00000  Uiso   1.00
Zn648  Zn    0.83333   0.78229   0.50000   0.00000  Uiso   1.00
Br649  Br    0.22968   0.05515   0.91078   0.00000  Uiso   1.00
Br650  Br    0.10365   0.27818   0.75589   0.00000  Uiso   1.00
Br651  Br    0.10365   0.05515   0.75589   0.00000  Uiso   1.00
Br652  Br    0.22968   0.27818   0.91078   0.00000  Uiso   1.00
C653   C     0.08672   0.16667   0.83333   0.00000  Uiso   1.00
C654   C     0.02128   0.20755   0.83341   0.00000  Uiso   1.00
C655   C     0.29082   0.16667   0.83327   0.00000  Uiso   1.00
C656   C     0.04251   0.16667   0.83340   0.00000  Uiso   1.00
C657   C     0.19264   0.02389   0.86522   0.00000  Uiso   1.00
C658   C     0.14069   0.30944   0.80145   0.00000  Uiso   1.00
C659   C     0.14069   0.02389   0.80145   0.00000  Uiso   1.00
C660   C     0.19264   0.30944   0.86522   0.00000  Uiso   1.00
C661   C     0.24662   0.16667   0.83334   0.00000  Uiso   1.00
C662   C     0.16661   0.16667   0.73965   0.00000  Uiso   1.00
C663   C     0.16672   0.16667   0.92702   0.00000  Uiso   1.00
C664   C     0.16665   0.16667   0.68849   0.00000  Uiso   1.00
C665   C     0.16669   0.16667   0.97818   0.00000  Uiso   1.00
C666   C     0.02128   0.12579   0.83341   0.00000  Uiso   1.00
C667   C     0.31205   0.20755   0.83326   0.00000  Uiso   1.00
C668   C     0.31205   0.12579   0.83326   0.00000  Uiso   1.00
H669   H     0.03738   0.09388   0.83354   0.00000  Uiso   1.00
H670   H     0.29596   0.23945   0.83313   0.00000  Uiso   1.00
H671   H     0.29596   0.09388   0.83313   0.00000  Uiso   1.00
H672   H     0.03738   0.23945   0.83354   0.00000  Uiso   1.00
N673   N     0.16667   0.28573   0.83333   0.00000  Uiso   1.00
N674   N     0.16667   0.04760   0.83333   0.00000  Uiso   1.00
O675   O     0.10559   0.20487   0.83333   0.00000  Uiso   1.00
O676   O     0.22774   0.12846   0.83334   0.00000  Uiso   1.00
O677   O     0.22774   0.20487   0.83334   0.00000  Uiso   1.00
O678   O     0.10559   0.12846   0.83333   0.00000  Uiso   1.00
O679   O     0.16667   0.20488   0.76178   0.00000  Uiso   1.00
O680   O     0.16666   0.12845   0.90489   0.00000  Uiso   1.00
O681   O     0.16666   0.20488   0.90489   0.00000  Uiso   1.00
O682   O     0.16667   0.12845   0.76178   0.00000  Uiso   1.00
Zn683  Zn    0.16667   0.21771   0.83333   0.00000  Uiso   1.00
Zn684  Zn    0.16667   0.11563   0.83333   0.00000  Uiso   1.00
Br685  Br    0.56302   0.05515   0.91078   0.00000  Uiso   1.00
Br686  Br    0.43698   0.27818   0.75589   0.00000  Uiso   1.00
Br687  Br    0.43698   0.05515   0.75589   0.00000  Uiso   1.00
Br688  Br    0.56302   0.27818   0.91078   0.00000  Uiso   1.00
C689   C     0.42005   0.16667   0.83333   0.00000  Uiso   1.00
C690   C     0.35462   0.20755   0.83341   0.00000  Uiso   1.00
C691   C     0.62416   0.16667   0.83327   0.00000  Uiso   1.00
C692   C     0.37584   0.16667   0.83340   0.00000  Uiso   1.00
C693   C     0.52598   0.02389   0.86522   0.00000  Uiso   1.00
C694   C     0.47402   0.30944   0.80145   0.00000  Uiso   1.00
C695   C     0.47402   0.02389   0.80145   0.00000  Uiso   1.00
C696   C     0.52598   0.30944   0.86522   0.00000  Uiso   1.00
C697   C     0.57995   0.16667   0.83334   0.00000  Uiso   1.00
C698   C     0.49994   0.16667   0.73965   0.00000  Uiso   1.00
C699   C     0.50006   0.16667   0.92702   0.00000  Uiso   1.00
C700   C     0.49998   0.16667   0.68849   0.00000  Uiso   1.00
C701   C     0.50002   0.16667   0.97818   0.00000  Uiso   1.00
C702   C     0.35462   0.12579   0.83341   0.00000  Uiso   1.00
C703   C     0.64538   0.20755   0.83326   0.00000  Uiso   1.00
C704   C     0.64538   0.12579   0.83326   0.00000  Uiso   1.00
H705   H     0.37071   0.09388   0.83354   0.00000  Uiso   1.00
H706   H     0.62929   0.23945   0.83313   0.00000  Uiso   1.00
H707   H     0.62929   0.09388   0.83313   0.00000  Uiso   1.00
H708   H     0.37071   0.23945   0.83354   0.00000  Uiso   1.00
N709   N     0.50000   0.28573   0.83333   0.00000  Uiso   1.00
N710   N     0.50000   0.04760   0.83333   0.00000  Uiso   1.00
O711   O     0.43892   0.20487   0.83333   0.00000  Uiso   1.00
O712   O     0.56108   0.12846   0.83334   0.00000  Uiso   1.00
O713   O     0.56108   0.20487   0.83334   0.00000  Uiso   1.00
O714   O     0.43892   0.12846   0.83333   0.00000  Uiso   1.00
O715   O     0.50000   0.20488   0.76178   0.00000  Uiso   1.00
O716   O     0.50000   0.12845   0.90489   0.00000  Uiso   1.00
O717   O     0.50000   0.20488   0.90489   0.00000  Uiso   1.00
O718   O     0.50000   0.12845   0.76178   0.00000  Uiso   1.00
Zn719  Zn    0.50000   0.21771   0.83333   0.00000  Uiso   1.00
Zn720  Zn    0.50000   0.11563   0.83333   0.00000  Uiso   1.00
Br721  Br    0.89635   0.05515   0.91078   0.00000  Uiso   1.00
Br722  Br    0.77031   0.27818   0.75589   0.00000  Uiso   1.00
Br723  Br    0.77031   0.05515   0.75589   0.00000  Uiso   1.00
Br724  Br    0.89635   0.27818   0.91078   0.00000  Uiso   1.00
C725   C     0.75338   0.16667   0.83333   0.00000  Uiso   1.00
C726   C     0.68795   0.20755   0.83341   0.00000  Uiso   1.00
C727   C     0.95749   0.16667   0.83327   0.00000  Uiso   1.00
C728   C     0.70918   0.16667   0.83340   0.00000  Uiso   1.00
C729   C     0.85931   0.02389   0.86522   0.00000  Uiso   1.00
C730   C     0.80736   0.30944   0.80145   0.00000  Uiso   1.00
C731   C     0.80736   0.02389   0.80145   0.00000  Uiso   1.00
C732   C     0.85931   0.30944   0.86522   0.00000  Uiso   1.00
C733   C     0.91328   0.16667   0.83334   0.00000  Uiso   1.00
C734   C     0.83328   0.16667   0.73965   0.00000  Uiso   1.00
C735   C     0.83339   0.16667   0.92702   0.00000  Uiso   1.00
C736   C     0.83331   0.16667   0.68849   0.00000  Uiso   1.00
C737   C     0.83335   0.16667   0.97818   0.00000  Uiso   1.00
C738   C     0.68795   0.12579   0.83341   0.00000  Uiso   1.00
C739   C     0.97872   0.20755   0.83326   0.00000  Uiso   1.00
C740   C     0.97872   0.12579   0.83326   0.00000  Uiso   1.00
H741   H     0.70404   0.09388   0.83354   0.00000  Uiso   1.00
H742   H     0.96262   0.23945   0.83313   0.00000  Uiso   1.00
H743   H     0.96262   0.09388   0.83313   0.00000  Uiso   1.00
H744   H     0.70404   0.23945   0.83354   0.00000  Uiso   1.00
N745   N     0.83333   0.28573   0.83333   0.00000  Uiso   1.00
N746   N     0.83333   0.04760   0.83333   0.00000  Uiso   1.00
O747   O     0.77226   0.20487   0.83333   0.00000  Uiso   1.00
O748   O     0.89441   0.12846   0.83334   0.00000  Uiso   1.00
O749   O     0.89441   0.20487   0.83334   0.00000  Uiso   1.00
O750   O     0.77226   0.12846   0.83333   0.00000  Uiso   1.00
O751   O     0.83334   0.20488   0.76178   0.00000  Uiso   1.00
O752   O     0.83333   0.12845   0.90489   0.00000  Uiso   1.00
O753   O     0.83333   0.20488   0.90489   0.00000  Uiso   1.00
O754   O     0.83334   0.12845   0.76178   0.00000  Uiso   1.00
Zn755  Zn    0.83333   0.21771   0.83333   0.00000  Uiso   1.00
Zn756  Zn    0.83333   0.11563   0.83333   0.00000  Uiso   1.00
Br757  Br    0.22968   0.38849   0.91078   0.00000  Uiso   1.00
Br758  Br    0.10365   0.61151   0.75589   0.00000  Uiso   1.00
Br759  Br    0.10365   0.38849   0.75589   0.00000  Uiso   1.00
Br760  Br    0.22968   0.61151   0.91078   0.00000  Uiso   1.00
C761   C     0.08672   0.50000   0.83333   0.00000  Uiso   1.00
C762   C     0.02128   0.54088   0.83341   0.00000  Uiso   1.00
C763   C     0.29082   0.50000   0.83327   0.00000  Uiso   1.00
C764   C     0.04251   0.50000   0.83340   0.00000  Uiso   1.00
C765   C     0.19264   0.35722   0.86522   0.00000  Uiso   1.00
C766   C     0.14069   0.64278   0.80145   0.00000  Uiso   1.00
C767   C     0.14069   0.35722   0.80145   0.00000  Uiso   1.00
C768   C     0.19264   0.64278   0.86522   0.00000  Uiso   1.00
C769   C     0.24662   0.50000   0.83334   0.00000  Uiso   1.00
C770   C     0.16661   0.50000   0.73965   0.00000  Uiso   1.00
C771   C     0.16672   0.50000   0.92702   0.00000  Uiso   1.00
C772   C     0.16665   0.50000   0.68849   0.00000  Uiso   1.00
C773   C     0.16669   0.50000   0.97818   0.00000  Uiso   1.00
C774   C     0.02128   0.45912   0.83341   0.00000  Uiso   1.00
C775   C     0.31205   0.54088   0.83326   0.00000  Uiso   1.00
C776   C     0.31205   0.45912   0.83326   0.00000  Uiso   1.00
H777   H     0.03738   0.42721   0.83354   0.00000  Uiso   1.00
H778   H     0.29596   0.57279   0.83313   0.00000  Uiso   1.00
H779   H     0.29596   0.42722   0.83313   0.00000  Uiso   1.00
H780   H     0.03738   0.57279   0.83354   0.00000  Uiso   1.00
N781   N     0.16667   0.61907   0.83333   0.00000  Uiso   1.00
N782   N     0.16667   0.38093   0.83333   0.00000  Uiso   1.00
O783   O     0.10559   0.53821   0.83333   0.00000  Uiso   1.00
O784   O     0.22774   0.46179   0.83334   0.00000  Uiso   1.00
O785   O     0.22774   0.53821   0.83334   0.00000  Uiso   1.00
O786   O     0.10559   0.46179   0.83333   0.00000  Uiso   1.00
O787   O     0.16667   0.53821   0.76178   0.00000  Uiso   1.00
O788   O     0.16666   0.46179   0.90489   0.00000  Uiso   1.00
O789   O     0.16666   0.53821   0.90489   0.00000  Uiso   1.00
O790   O     0.16667   0.46179   0.76178   0.00000  Uiso   1.00
Zn791  Zn    0.16667   0.55104   0.83333   0.00000  Uiso   1.00
Zn792  Zn    0.16667   0.44896   0.83333   0.00000  Uiso   1.00
Br793  Br    0.56302   0.38849   0.91078   0.00000  Uiso   1.00
Br794  Br    0.43698   0.61151   0.75589   0.00000  Uiso   1.00
Br795  Br    0.43698   0.38849   0.75589   0.00000  Uiso   1.00
Br796  Br    0.56302   0.61151   0.91078   0.00000  Uiso   1.00
C797   C     0.42005   0.50000   0.83333   0.00000  Uiso   1.00
C798   C     0.35462   0.54088   0.83341   0.00000  Uiso   1.00
C799   C     0.62416   0.50000   0.83327   0.00000  Uiso   1.00
C800   C     0.37584   0.50000   0.83340   0.00000  Uiso   1.00
C801   C     0.52598   0.35722   0.86522   0.00000  Uiso   1.00
C802   C     0.47402   0.64278   0.80145   0.00000  Uiso   1.00
C803   C     0.47402   0.35722   0.80145   0.00000  Uiso   1.00
C804   C     0.52598   0.64278   0.86522   0.00000  Uiso   1.00
C805   C     0.57995   0.50000   0.83334   0.00000  Uiso   1.00
C806   C     0.49994   0.50000   0.73965   0.00000  Uiso   1.00
C807   C     0.50006   0.50000   0.92702   0.00000  Uiso   1.00
C808   C     0.49998   0.50000   0.68849   0.00000  Uiso   1.00
C809   C     0.50002   0.50000   0.97818   0.00000  Uiso   1.00
C810   C     0.35462   0.45912   0.83341   0.00000  Uiso   1.00
C811   C     0.64538   0.54088   0.83326   0.00000  Uiso   1.00
C812   C     0.64538   0.45912   0.83326   0.00000  Uiso   1.00
H813   H     0.37071   0.42721   0.83354   0.00000  Uiso   1.00
H814   H     0.62929   0.57279   0.83313   0.00000  Uiso   1.00
H815   H     0.62929   0.42722   0.83313   0.00000  Uiso   1.00
H816   H     0.37071   0.57279   0.83354   0.00000  Uiso   1.00
N817   N     0.50000   0.61907   0.83333   0.00000  Uiso   1.00
N818   N     0.50000   0.38093   0.83333   0.00000  Uiso   1.00
O819   O     0.43892   0.53821   0.83333   0.00000  Uiso   1.00
O820   O     0.56108   0.46179   0.83334   0.00000  Uiso   1.00
O821   O     0.56108   0.53821   0.83334   0.00000  Uiso   1.00
O822   O     0.43892   0.46179   0.83333   0.00000  Uiso   1.00
O823   O     0.50000   0.53821   0.76178   0.00000  Uiso   1.00
O824   O     0.50000   0.46179   0.90489   0.00000  Uiso   1.00
O825   O     0.50000   0.53821   0.90489   0.00000  Uiso   1.00
O826   O     0.50000   0.46179   0.76178   0.00000  Uiso   1.00
Zn827  Zn    0.50000   0.55104   0.83333   0.00000  Uiso   1.00
Zn828  Zn    0.50000   0.44896   0.83333   0.00000  Uiso   1.00
Br829  Br    0.89635   0.38849   0.91078   0.00000  Uiso   1.00
Br830  Br    0.77031   0.61151   0.75589   0.00000  Uiso   1.00
Br831  Br    0.77031   0.38849   0.75589   0.00000  Uiso   1.00
Br832  Br    0.89635   0.61151   0.91078   0.00000  Uiso   1.00
C833   C     0.75338   0.50000   0.83333   0.00000  Uiso   1.00
C834   C     0.68795   0.54088   0.83341   0.00000  Uiso   1.00
C835   C     0.95749   0.50000   0.83327   0.00000  Uiso   1.00
C836   C     0.70918   0.50000   0.83340   0.00000  Uiso   1.00
C837   C     0.85931   0.35722   0.86522   0.00000  Uiso   1.00
C838   C     0.80736   0.64278   0.80145   0.00000  Uiso   1.00
C839   C     0.80736   0.35722   0.80145   0.00000  Uiso   1.00
C840   C     0.85931   0.64278   0.86522   0.00000  Uiso   1.00
C841   C     0.91328   0.50000   0.83334   0.00000  Uiso   1.00
C842   C     0.83328   0.50000   0.73965   0.00000  Uiso   1.00
C843   C     0.83339   0.50000   0.92702   0.00000  Uiso   1.00
C844   C     0.83331   0.50000   0.68849   0.00000  Uiso   1.00
C845   C     0.83335   0.50000   0.97818   0.00000  Uiso   1.00
C846   C     0.68795   0.45912   0.83341   0.00000  Uiso   1.00
C847   C     0.97872   0.54088   0.83326   0.00000  Uiso   1.00
C848   C     0.97872   0.45912   0.83326   0.00000  Uiso   1.00
H849   H     0.70404   0.42721   0.83354   0.00000  Uiso   1.00
H850   H     0.96262   0.57279   0.83313   0.00000  Uiso   1.00
H851   H     0.96262   0.42722   0.83313   0.00000  Uiso   1.00
H852   H     0.70404   0.57279   0.83354   0.00000  Uiso   1.00
N853   N     0.83333   0.61907   0.83333   0.00000  Uiso   1.00
N854   N     0.83333   0.38093   0.83333   0.00000  Uiso   1.00
O855   O     0.77226   0.53821   0.83333   0.00000  Uiso   1.00
O856   O     0.89441   0.46179   0.83334   0.00000  Uiso   1.00
O857   O     0.89441   0.53821   0.83334   0.00000  Uiso   1.00
O858   O     0.77226   0.46179   0.83333   0.00000  Uiso   1.00
O859   O     0.83334   0.53821   0.76178   0.00000  Uiso   1.00
O860   O     0.83333   0.46179   0.90489   0.00000  Uiso   1.00
O861   O     0.83333   0.53821   0.90489   0.00000  Uiso   1.00
O862   O     0.83334   0.46179   0.76178   0.00000  Uiso   1.00
Zn863  Zn    0.83333   0.55104   0.83333   0.00000  Uiso   1.00
Zn864  Zn    0.83333   0.44896   0.83333   0.00000  Uiso   1.00
Br865  Br    0.22968   0.72182   0.91078   0.00000  Uiso   1.00
Br866  Br    0.10365   0.94485   0.75589   0.00000  Uiso   1.00
Br867  Br    0.10365   0.72182   0.75589   0.00000  Uiso   1.00
Br868  Br    0.22968   0.94485   0.91078   0.00000  Uiso   1.00
C869   C     0.08672   0.83333   0.83333   0.00000  Uiso   1.00
C870   C     0.02128   0.87421   0.83341   0.00000  Uiso   1.00
C871   C     0.29082   0.83333   0.83327   0.00000  Uiso   1.00
C872   C     0.04251   0.83333   0.83340   0.00000  Uiso   1.00
C873   C     0.19264   0.69056   0.86522   0.00000  Uiso   1.00
C874   C     0.14069   0.97611   0.80145   0.00000  Uiso   1.00
C875   C     0.14069   0.69056   0.80145   0.00000  Uiso   1.00
C876   C     0.19264   0.97611   0.86522   0.00000  Uiso   1.00
C877   C     0.24662   0.83333   0.83334   0.00000  Uiso   1.00
C878   C     0.16661   0.83333   0.73965   0.00000  Uiso   1.00
C879   C     0.16672   0.83333   0.92702   0.00000  Uiso   1.00
C880   C     0.16665   0.83333   0.68849   0.00000  Uiso   1.00
C881   C     0.16669   0.83333   0.97818   0.00000  Uiso   1.00
C882   C     0.02128   0.79245   0.83341   0.00000  Uiso   1.00
C883   C     0.31205   0.87421   0.83326   0.00000  Uiso   1.00
C884   C     0.31205   0.79245   0.83326   0.00000  Uiso   1.00
H885   H     0.03738   0.76055   0.83354   0.00000  Uiso   1.00
H886   H     0.29596   0.90612   0.83313   0.00000  Uiso   1.00
H887   H     0.29596   0.76055   0.83313   0.00000  Uiso   1.00
H888   H     0.03738   0.90612   0.83354   0.00000  Uiso   1.00
N889   N     0.16667   0.95240   0.83333   0.00000  Uiso   1.00
N890   N     0.16667   0.71427   0.83333   0.00000  Uiso   1.00
O891   O     0.10559   0.87154   0.83333   0.00000  Uiso   1.00
O892   O     0.22774   0.79513   0.83334   0.00000  Uiso   1.00
O893   O     0.22774   0.87154   0.83334   0.00000  Uiso   1.00
O894   O     0.10559   0.79513   0.83333   0.00000  Uiso   1.00
O895   O     0.16667   0.87155   0.76178   0.00000  Uiso   1.00
O896   O     0.16666   0.79512   0.90489   0.00000  Uiso   1.00
O897   O     0.16666   0.87155   0.90489   0.00000  Uiso   1.00
O898   O     0.16667   0.79512   0.76178   0.00000  Uiso   1.00
Zn899  Zn    0.16667   0.88437   0.83333   0.00000  Uiso   1.00
Zn900  Zn    0.16667   0.78229   0.83333   0.00000  Uiso   1.00
Br901  Br    0.56302   0.72182   0.91078   0.00000  Uiso   1.00
Br902  Br    0.43698   0.94485   0.75589   0.00000  Uiso   1.00
Br903  Br    0.43698   0.72182   0.75589   0.00000  Uiso   1.00
Br904  Br    0.56302   0.94485   0.91078   0.00000  Uiso   1.00
C905   C     0.42005   0.83333   0.83333   0.00000  Uiso   1.00
C906   C     0.35462   0.87421   0.83341   0.00000  Uiso   1.00
C907   C     0.62416   0.83333   0.83327   0.00000  Uiso   1.00
C908   C     0.37584   0.83333   0.83340   0.00000  Uiso   1.00
C909   C     0.52598   0.69056   0.86522   0.00000  Uiso   1.00
C910   C     0.47402   0.97611   0.80145   0.00000  Uiso   1.00
C911   C     0.47402   0.69056   0.80145   0.00000  Uiso   1.00
C912   C     0.52598   0.97611   0.86522   0.00000  Uiso   1.00
C913   C     0.57995   0.83333   0.83334   0.00000  Uiso   1.00
C914   C     0.49994   0.83333   0.73965   0.00000  Uiso   1.00
C915   C     0.50006   0.83333   0.92702   0.00000  Uiso   1.00
C916   C     0.49998   0.83333   0.68849   0.00000  Uiso   1.00
C917   C     0.50002   0.83333   0.97818   0.00000  Uiso   1.00
C918   C     0.35462   0.79245   0.83341   0.00000  Uiso   1.00
C919   C     0.64538   0.87421   0.83326   0.00000  Uiso   1.00
C920   C     0.64538   0.79245   0.83326   0.00000  Uiso   1.00
H921   H     0.37071   0.76055   0.83354   0.00000  Uiso   1.00
H922   H     0.62929   0.90612   0.83313   0.00000  Uiso   1.00
H923   H     0.62929   0.76055   0.83313   0.00000  Uiso   1.00
H924   H     0.37071   0.90612   0.83354   0.00000  Uiso   1.00
N925   N     0.50000   0.95240   0.83333   0.00000  Uiso   1.00
N926   N     0.50000   0.71427   0.83333   0.00000  Uiso   1.00
O927   O     0.43892   0.87154   0.83333   0.00000  Uiso   1.00
O928   O     0.56108   0.79513   0.83334   0.00000  Uiso   1.00
O929   O     0.56108   0.87154   0.83334   0.00000  Uiso   1.00
O930   O     0.43892   0.79513   0.83333   0.00000  Uiso   1.00
O931   O     0.50000   0.87155   0.76178   0.00000  Uiso   1.00
O932   O     0.50000   0.79512   0.90489   0.00000  Uiso   1.00
O933   O     0.50000   0.87155   0.90489   0.00000  Uiso   1.00
O934   O     0.50000   0.79512   0.76178   0.00000  Uiso   1.00
Zn935  Zn    0.50000   0.88437   0.83333   0.00000  Uiso   1.00
Zn936  Zn    0.50000   0.78229   0.83333   0.00000  Uiso   1.00
Br937  Br    0.89635   0.72182   0.91078   0.00000  Uiso   1.00
Br938  Br    0.77031   0.94485   0.75589   0.00000  Uiso   1.00
Br939  Br    0.77031   0.72182   0.75589   0.00000  Uiso   1.00
Br940  Br    0.89635   0.94485   0.91078   0.00000  Uiso   1.00
C941   C     0.75338   0.83333   0.83333   0.00000  Uiso   1.00
C942   C     0.68795   0.87421   0.83341   0.00000  Uiso   1.00
C943   C     0.95749   0.83333   0.83327   0.00000  Uiso   1.00
C944   C     0.70918   0.83333   0.83340   0.00000  Uiso   1.00
C945   C     0.85931   0.69056   0.86522   0.00000  Uiso   1.00
C946   C     0.80736   0.97611   0.80145   0.00000  Uiso   1.00
C947   C     0.80736   0.69056   0.80145   0.00000  Uiso   1.00
C948   C     0.85931   0.97611   0.86522   0.00000  Uiso   1.00
C949   C     0.91328   0.83333   0.83334   0.00000  Uiso   1.00
C950   C     0.83328   0.83333   0.73965   0.00000  Uiso   1.00
C951   C     0.83339   0.83333   0.92702   0.00000  Uiso   1.00
C952   C     0.83331   0.83333   0.68849   0.00000  Uiso   1.00
C953   C     0.83335   0.83333   0.97818   0.00000  Uiso   1.00
C954   C     0.68795   0.79245   0.83341   0.00000  Uiso   1.00
C955   C     0.97872   0.87421   0.83326   0.00000  Uiso   1.00
C956   C     0.97872   0.79245   0.83326   0.00000  Uiso   1.00
H957   H     0.70404   0.76055   0.83354   0.00000  Uiso   1.00
H958   H     0.96262   0.90612   0.83313   0.00000  Uiso   1.00
H959   H     0.96262   0.76055   0.83313   0.00000  Uiso   1.00
H960   H     0.70404   0.90612   0.83354   0.00000  Uiso   1.00
N961   N     0.83333   0.95240   0.83333   0.00000  Uiso   1.00
N962   N     0.83333   0.71427   0.83333   0.00000  Uiso   1.00
O963   O     0.77226   0.87154   0.83333   0.00000  Uiso   1.00
O964   O     0.89441   0.79513   0.83334   0.00000  Uiso   1.00
O965   O     0.89441   0.87154   0.83334   0.00000  Uiso   1.00
O966   O     0.77226   0.79513   0.83333   0.00000  Uiso   1.00
O967   O     0.83334   0.87155   0.76178   0.00000  Uiso   1.00
O968   O     0.83333   0.79512   0.90489   0.00000  Uiso   1.00
O969   O     0.83333   0.87155   0.90489   0.00000  Uiso   1.00
O970   O     0.83334   0.79512   0.76178   0.00000  Uiso   1.00
Zn971  Zn    0.83333   0.88437   0.83333   0.00000  Uiso   1.00
Zn972  Zn    0.83333   0.78229   0.83333   0.00000  Uiso   1.00
loop_
_geom_bond_atom_site_label_1
_geom_bond_atom_site_label_2
_geom_bond_distance
_geom_bond_site_symmetry_2
_ccdc_geom_bond_type
Br1    C9      1.921   .     S
Br2    C10     1.921   .     S
Br3    C11     1.921   .     S
Br4    C12     1.921   .     S
C5     C8      1.422   .     S
C5     O30     1.291   .     A
C5     O27     1.291   .     A
C6     H24     1.083   .     S
C6     C8      1.397   .     A
C6     C91     1.369   1_455 S
C7     C13     1.422   .     S
C7     C20     1.397   .     A
C7     C19     1.397   .     A
C8     C18     1.397   .     A
C9     N26     1.373   .     A
C9     C228    1.425   1_545 S
C10    N25     1.373   .     A
C10    C119    1.425   .     S
C11    N26     1.373   .     A
C11    C226    1.425   1_545 S
C12    N25     1.373   .     A
C12    C117    1.425   .     S
C13    O28     1.291   .     A
C13    O29     1.291   .     A
C14    O34     1.284   .     A
C14    C16     1.366   .     S
C14    O31     1.284   .     A
C15    O32     1.284   .     A
C15    C17     1.366   .     S
C15    O33     1.284   .     A
C16    C665    1.166   1_554 S
C17    C340    1.166   .     S
C18    H21     1.083   .     S
C18    C92     1.369   1_455 S
C19    H22     1.083   .     S
C19    C42     1.369   .     S
C20    H23     1.083   .     S
C20    C54     1.369   .     S
N25    Zn35    2.029   .     S
N26    Zn36    2.029   .     S
O27    Zn35    2.002   .     S
O28    Zn36    2.002   .     S
O29    Zn35    2.002   .     S
O30    Zn36    2.002   .     S
O31    Zn35    1.949   .     S
O32    Zn36    1.949   .     S
O33    Zn35    1.949   .     S
O34    Zn36    1.949   .     S
Br37   C45     1.921   .     S
Br38   C46     1.921   .     S
Br39   C47     1.921   .     S
Br40   C48     1.921   .     S
C41    C44     1.422   .     S
C41    O66     1.291   .     A
C41    O63     1.291   .     A
C42    H60     1.083   .     S
C42    C44     1.397   .     A
C43    C49     1.422   .     S
C43    C56     1.397   .     A
C43    C55     1.397   .     A
C44    C54     1.397   .     A
C45    N62     1.373   .     A
C45    C264    1.425   1_545 S
C46    N61     1.373   .     A
C46    C155    1.425   .     S
C47    N62     1.373   .     A
C47    C262    1.425   1_545 S
C48    N61     1.373   .     A
C48    C153    1.425   .     S
C49    O64     1.291   .     A
C49    O65     1.291   .     A
C50    O70     1.284   .     A
C50    C52     1.366   .     S
C50    O67     1.284   .     A
C51    O68     1.284   .     A
C51    C53     1.366   .     S
C51    O69     1.284   .     A
C52    C701    1.166   1_554 S
C53    C376    1.166   .     S
C54    H57     1.083   .     S
C55    H58     1.083   .     S
C55    C78     1.369   .     S
C56    H59     1.083   .     S
C56    C90     1.369   .     S
N61    Zn71    2.029   .     S
N62    Zn72    2.029   .     S
O63    Zn71    2.002   .     S
O64    Zn72    2.002   .     S
O65    Zn71    2.002   .     S
O66    Zn72    2.002   .     S
O67    Zn71    1.949   .     S
O68    Zn72    1.949   .     S
O69    Zn71    1.949   .     S
O70    Zn72    1.949   .     S
Br73   C81     1.921   .     S
Br74   C82     1.921   .     S
Br75   C83     1.921   .     S
Br76   C84     1.921   .     S
C77    C80     1.422   .     S
C77    O102    1.291   .     A
C77    O99     1.291   .     A
C78    H96     1.083   .     S
C78    C80     1.397   .     A
C79    C85     1.422   .     S
C79    C92     1.397   .     A
C79    C91     1.397   .     A
C80    C90     1.397   .     A
C81    N98     1.373   .     A
C81    C300    1.425   1_545 S
C82    N97     1.373   .     A
C82    C191    1.425   .     S
C83    N98     1.373   .     A
C83    C298    1.425   1_545 S
C84    N97     1.373   .     A
C84    C189    1.425   .     S
C85    O100    1.291   .     A
C85    O101    1.291   .     A
C86    O106    1.284   .     A
C86    C88     1.366   .     S
C86    O103    1.284   .     A
C87    O104    1.284   .     A
C87    C89     1.366   .     S
C87    O105    1.284   .     A
C88    C737    1.166   1_554 S
C89    C412    1.166   .     S
C90    H93     1.083   .     S
C91    H94     1.083   .     S
C91    C6      1.369   1_655 S
C92    H95     1.083   .     S
C92    C18     1.369   1_655 S
N97    Zn107   2.029   .     S
N98    Zn108   2.029   .     S
O99    Zn107   2.002   .     S
O100   Zn108   2.002   .     S
O101   Zn107   2.002   .     S
O102   Zn108   2.002   .     S
O103   Zn107   1.949   .     S
O104   Zn108   1.949   .     S
O105   Zn107   1.949   .     S
O106   Zn108   1.949   .     S
Br109  C117    1.921   .     S
Br110  C118    1.921   .     S
Br111  C119    1.921   .     S
Br112  C120    1.921   .     S
C113   C116    1.422   .     S
C113   O138    1.291   .     A
C113   O135    1.291   .     A
C114   H132    1.083   .     S
C114   C116    1.397   .     A
C114   C199    1.369   1_455 S
C115   C121    1.422   .     S
C115   C128    1.397   .     A
C115   C127    1.397   .     A
C116   C126    1.397   .     A
C117   N134    1.373   .     A
C118   N133    1.373   .     A
C118   C227    1.425   .     S
C119   N134    1.373   .     A
C120   N133    1.373   .     A
C120   C225    1.425   .     S
C121   O136    1.291   .     A
C121   O137    1.291   .     A
C122   O142    1.284   .     A
C122   C124    1.366   .     S
C122   O139    1.284   .     A
C123   O140    1.284   .     A
C123   C125    1.366   .     S
C123   O141    1.284   .     A
C124   C773    1.166   1_554 S
C125   C448    1.166   .     S
C126   H129    1.083   .     S
C126   C200    1.369   1_455 S
C127   H130    1.083   .     S
C127   C150    1.369   .     S
C128   H131    1.083   .     S
C128   C162    1.369   .     S
N133   Zn143   2.029   .     S
N134   Zn144   2.029   .     S
O135   Zn143   2.002   .     S
O136   Zn144   2.002   .     S
O137   Zn143   2.002   .     S
O138   Zn144   2.002   .     S
O139   Zn143   1.949   .     S
O140   Zn144   1.949   .     S
O141   Zn143   1.949   .     S
O142   Zn144   1.949   .     S
Br145  C153    1.921   .     S
Br146  C154    1.921   .     S
Br147  C155    1.921   .     S
Br148  C156    1.921   .     S
C149   C152    1.422   .     S
C149   O174    1.291   .     A
C149   O171    1.291   .     A
C150   H168    1.083   .     S
C150   C152    1.397   .     A
C151   C157    1.422   .     S
C151   C164    1.397   .     A
C151   C163    1.397   .     A
C152   C162    1.397   .     A
C153   N170    1.373   .     A
C154   N169    1.373   .     A
C154   C263    1.425   .     S
C155   N170    1.373   .     A
C156   N169    1.373   .     A
C156   C261    1.425   .     S
C157   O172    1.291   .     A
C157   O173    1.291   .     A
C158   O178    1.284   .     A
C158   C160    1.366   .     S
C158   O175    1.284   .     A
C159   O176    1.284   .     A
C159   C161    1.366   .     S
C159   O177    1.284   .     A
C160   C809    1.166   1_554 S
C161   C484    1.166   .     S
C162   H165    1.083   .     S
C163   H166    1.083   .     S
C163   C186    1.369   .     S
C164   H167    1.083   .     S
C164   C198    1.369   .     S
N169   Zn179   2.029   .     S
N170   Zn180   2.029   .     S
O171   Zn179   2.002   .     S
O172   Zn180   2.002   .     S
O173   Zn179   2.002   .     S
O174   Zn180   2.002   .     S
O175   Zn179   1.949   .     S
O176   Zn180   1.949   .     S
O177   Zn179   1.949   .     S
O178   Zn180   1.949   .     S
Br181  C189    1.921   .     S
Br182  C190    1.921   .     S
Br183  C191    1.921   .     S
Br184  C192    1.921   .     S
C185   C188    1.422   .     S
C185   O210    1.291   .     A
C185   O207    1.291   .     A
C186   H204    1.083   .     S
C186   C188    1.397   .     A
C187   C193    1.422   .     S
C187   C200    1.397   .     A
C187   C199    1.397   .     A
C188   C198    1.397   .     A
C189   N206    1.373   .     A
C190   N205    1.373   .     A
C190   C299    1.425   .     S
C191   N206    1.373   .     A
C192   N205    1.373   .     A
C192   C297    1.425   .     S
C193   O208    1.291   .     A
C193   O209    1.291   .     A
C194   O214    1.284   .     A
C194   C196    1.366   .     S
C194   O211    1.284   .     A
C195   O212    1.284   .     A
C195   C197    1.366   .     S
C195   O213    1.284   .     A
C196   C845    1.166   1_554 S
C197   C520    1.166   .     S
C198   H201    1.083   .     S
C199   H202    1.083   .     S
C199   C114    1.369   1_655 S
C200   H203    1.083   .     S
C200   C126    1.369   1_655 S
N205   Zn215   2.029   .     S
N206   Zn216   2.029   .     S
O207   Zn215   2.002   .     S
O208   Zn216   2.002   .     S
O209   Zn215   2.002   .     S
O210   Zn216   2.002   .     S
O211   Zn215   1.949   .     S
O212   Zn216   1.949   .     S
O213   Zn215   1.949   .     S
O214   Zn216   1.949   .     S
Br217  C225    1.921   .     S
Br218  C226    1.921   .     S
Br219  C227    1.921   .     S
Br220  C228    1.921   .     S
C221   C224    1.422   .     S
C221   O246    1.291   .     A
C221   O243    1.291   .     A
C222   H240    1.083   .     S
C222   C224    1.397   .     A
C222   C307    1.369   1_455 S
C223   C229    1.422   .     S
C223   C236    1.397   .     A
C223   C235    1.397   .     A
C224   C234    1.397   .     A
C225   N242    1.373   .     A
C226   N241    1.373   .     A
C226   C11     1.425   1_565 S
C227   N242    1.373   .     A
C228   N241    1.373   .     A
C228   C9      1.425   1_565 S
C229   O244    1.291   .     A
C229   O245    1.291   .     A
C230   O250    1.284   .     A
C230   C232    1.366   .     S
C230   O247    1.284   .     A
C231   O248    1.284   .     A
C231   C233    1.366   .     S
C231   O249    1.284   .     A
C232   C881    1.166   1_554 S
C233   C556    1.166   .     S
C234   H237    1.083   .     S
C234   C308    1.369   1_455 S
C235   H238    1.083   .     S
C235   C258    1.369   .     S
C236   H239    1.083   .     S
C236   C270    1.369   .     S
N241   Zn251   2.029   .     S
N242   Zn252   2.029   .     S
O243   Zn251   2.002   .     S
O244   Zn252   2.002   .     S
O245   Zn251   2.002   .     S
O246   Zn252   2.002   .     S
O247   Zn251   1.949   .     S
O248   Zn252   1.949   .     S
O249   Zn251   1.949   .     S
O250   Zn252   1.949   .     S
Br253  C261    1.921   .     S
Br254  C262    1.921   .     S
Br255  C263    1.921   .     S
Br256  C264    1.921   .     S
C257   C260    1.422   .     S
C257   O282    1.291   .     A
C257   O279    1.291   .     A
C258   H276    1.083   .     S
C258   C260    1.397   .     A
C259   C265    1.422   .     S
C259   C272    1.397   .     A
C259   C271    1.397   .     A
C260   C270    1.397   .     A
C261   N278    1.373   .     A
C262   N277    1.373   .     A
C262   C47     1.425   1_565 S
C263   N278    1.373   .     A
C264   N277    1.373   .     A
C264   C45     1.425   1_565 S
C265   O280    1.291   .     A
C265   O281    1.291   .     A
C266   O286    1.284   .     A
C266   C268    1.366   .     S
C266   O283    1.284   .     A
C267   O284    1.284   .     A
C267   C269    1.366   .     S
C267   O285    1.284   .     A
C268   C917    1.166   1_554 S
C269   C592    1.166   .     S
C270   H273    1.083   .     S
C271   H274    1.083   .     S
C271   C294    1.369   .     S
C272   H275    1.083   .     S
C272   C306    1.369   .     S
N277   Zn287   2.029   .     S
N278   Zn288   2.029   .     S
O279   Zn287   2.002   .     S
O280   Zn288   2.002   .     S
O281   Zn287   2.002   .     S
O282   Zn288   2.002   .     S
O283   Zn287   1.949   .     S
O284   Zn288   1.949   .     S
O285   Zn287   1.949   .     S
O286   Zn288   1.949   .     S
Br289  C297    1.921   .     S
Br290  C298    1.921   .     S
Br291  C299    1.921   .     S
Br292  C300    1.921   .     S
C293   C296    1.422   .     S
C293   O318    1.291   .     A
C293   O315    1.291   .     A
C294   H312    1.083   .     S
C294   C296    1.397   .     A
C295   C301    1.422   .     S
C295   C308    1.397   .     A
C295   C307    1.397   .     A
C296   C306    1.397   .     A
C297   N314    1.373   .     A
C298   N313    1.373   .     A
C298   C83     1.425   1_565 S
C299   N314    1.373   .     A
C300   N313    1.373   .     A
C300   C81     1.425   1_565 S
C301   O316    1.291   .     A
C301   O317    1.291   .     A
C302   O322    1.284   .     A
C302   C304    1.366   .     S
C302   O319    1.284   .     A
C303   O320    1.284   .     A
C303   C305    1.366   .     S
C303   O321    1.284   .     A
C304   C953    1.166   1_554 S
C305   C628    1.166   .     S
C306   H309    1.083   .     S
C307   H310    1.083   .     S
C307   C222    1.369   1_655 S
C308   H311    1.083   .     S
C308   C234    1.369   1_655 S
N313   Zn323   2.029   .     S
N314   Zn324   2.029   .     S
O315   Zn323   2.002   .     S
O316   Zn324   2.002   .     S
O317   Zn323   2.002   .     S
O318   Zn324   2.002   .     S
O319   Zn323   1.949   .     S
O320   Zn324   1.949   .     S
O321   Zn323   1.949   .     S
O322   Zn324   1.949   .     S
Br325  C333    1.921   .     S
Br326  C334    1.921   .     S
Br327  C335    1.921   .     S
Br328  C336    1.921   .     S
C329   C332    1.422   .     S
C329   O354    1.291   .     A
C329   O351    1.291   .     A
C330   H348    1.083   .     S
C330   C332    1.397   .     A
C330   C415    1.369   1_455 S
C331   C337    1.422   .     S
C331   C344    1.397   .     A
C331   C343    1.397   .     A
C332   C342    1.397   .     A
C333   N350    1.373   .     A
C333   C552    1.425   1_545 S
C334   N349    1.373   .     A
C334   C443    1.425   .     S
C335   N350    1.373   .     A
C335   C550    1.425   1_545 S
C336   N349    1.373   .     A
C336   C441    1.425   .     S
C337   O352    1.291   .     A
C337   O353    1.291   .     A
C338   O358    1.284   .     A
C338   C340    1.366   .     S
C338   O355    1.284   .     A
C339   O356    1.284   .     A
C339   C341    1.366   .     S
C339   O357    1.284   .     A
C341   C664    1.166   .     S
C342   H345    1.083   .     S
C342   C416    1.369   1_455 S
C343   H346    1.083   .     S
C343   C366    1.369   .     S
C344   H347    1.083   .     S
C344   C378    1.369   .     S
N349   Zn359   2.029   .     S
N350   Zn360   2.029   .     S
O351   Zn359   2.002   .     S
O352   Zn360   2.002   .     S
O353   Zn359   2.002   .     S
O354   Zn360   2.002   .     S
O355   Zn359   1.949   .     S
O356   Zn360   1.949   .     S
O357   Zn359   1.949   .     S
O358   Zn360   1.949   .     S
Br361  C369    1.921   .     S
Br362  C370    1.921   .     S
Br363  C371    1.921   .     S
Br364  C372    1.921   .     S
C365   C368    1.422   .     S
C365   O390    1.291   .     A
C365   O387    1.291   .     A
C366   H384    1.083   .     S
C366   C368    1.397   .     A
C367   C373    1.422   .     S
C367   C380    1.397   .     A
C367   C379    1.397   .     A
C368   C378    1.397   .     A
C369   N386    1.373   .     A
C369   C588    1.425   1_545 S
C370   N385    1.373   .     A
C370   C479    1.425   .     S
C371   N386    1.373   .     A
C371   C586    1.425   1_545 S
C372   N385    1.373   .     A
C372   C477    1.425   .     S
C373   O388    1.291   .     A
C373   O389    1.291   .     A
C374   O394    1.284   .     A
C374   C376    1.366   .     S
C374   O391    1.284   .     A
C375   O392    1.284   .     A
C375   C377    1.366   .     S
C375   O393    1.284   .     A
C377   C700    1.166   .     S
C378   H381    1.083   .     S
C379   H382    1.083   .     S
C379   C402    1.369   .     S
C380   H383    1.083   .     S
C380   C414    1.369   .     S
N385   Zn395   2.029   .     S
N386   Zn396   2.029   .     S
O387   Zn395   2.002   .     S
O388   Zn396   2.002   .     S
O389   Zn395   2.002   .     S
O390   Zn396   2.002   .     S
O391   Zn395   1.949   .     S
O392   Zn396   1.949   .     S
O393   Zn395   1.949   .     S
O394   Zn396   1.949   .     S
Br397  C405    1.921   .     S
Br398  C406    1.921   .     S
Br399  C407    1.921   .     S
Br400  C408    1.921   .     S
C401   C404    1.422   .     S
C401   O426    1.291   .     A
C401   O423    1.291   .     A
C402   H420    1.083   .     S
C402   C404    1.397   .     A
C403   C409    1.422   .     S
C403   C416    1.397   .     A
C403   C415    1.397   .     A
C404   C414    1.397   .     A
C405   N422    1.373   .     A
C405   C624    1.425   1_545 S
C406   N421    1.373   .     A
C406   C515    1.425   .     S
C407   N422    1.373   .     A
C407   C622    1.425   1_545 S
C408   N421    1.373   .     A
C408   C513    1.425   .     S
C409   O424    1.291   .     A
C409   O425    1.291   .     A
C410   O430    1.284   .     A
C410   C412    1.366   .     S
C410   O427    1.284   .     A
C411   O428    1.284   .     A
C411   C413    1.366   .     S
C411   O429    1.284   .     A
C413   C736    1.166   .     S
C414   H417    1.083   .     S
C415   H418    1.083   .     S
C415   C330    1.369   1_655 S
C416   H419    1.083   .     S
C416   C342    1.369   1_655 S
N421   Zn431   2.029   .     S
N422   Zn432   2.029   .     S
O423   Zn431   2.002   .     S
O424   Zn432   2.002   .     S
O425   Zn431   2.002   .     S
O426   Zn432   2.002   .     S
O427   Zn431   1.949   .     S
O428   Zn432   1.949   .     S
O429   Zn431   1.949   .     S
O430   Zn432   1.949   .     S
Br433  C441    1.921   .     S
Br434  C442    1.921   .     S
Br435  C443    1.921   .     S
Br436  C444    1.921   .     S
C437   C440    1.422   .     S
C437   O462    1.291   .     A
C437   O459    1.291   .     A
C438   H456    1.083   .     S
C438   C440    1.397   .     A
C438   C523    1.369   1_455 S
C439   C445    1.422   .     S
C439   C452    1.397   .     A
C439   C451    1.397   .     A
C440   C450    1.397   .     A
C441   N458    1.373   .     A
C442   N457    1.373   .     A
C442   C551    1.425   .     S
C443   N458    1.373   .     A
C444   N457    1.373   .     A
C444   C549    1.425   .     S
C445   O460    1.291   .     A
C445   O461    1.291   .     A
C446   O466    1.284   .     A
C446   C448    1.366   .     S
C446   O463    1.284   .     A
C447   O464    1.284   .     A
C447   C449    1.366   .     S
C447   O465    1.284   .     A
C449   C772    1.166   .     S
C450   H453    1.083   .     S
C450   C524    1.369   1_455 S
C451   H454    1.083   .     S
C451   C474    1.369   .     S
C452   H455    1.083   .     S
C452   C486    1.369   .     S
N457   Zn467   2.029   .     S
N458   Zn468   2.029   .     S
O459   Zn467   2.002   .     S
O460   Zn468   2.002   .     S
O461   Zn467   2.002   .     S
O462   Zn468   2.002   .     S
O463   Zn467   1.949   .     S
O464   Zn468   1.949   .     S
O465   Zn467   1.949   .     S
O466   Zn468   1.949   .     S
Br469  C477    1.921   .     S
Br470  C478    1.921   .     S
Br471  C479    1.921   .     S
Br472  C480    1.921   .     S
C473   C476    1.422   .     S
C473   O498    1.291   .     A
C473   O495    1.291   .     A
C474   H492    1.083   .     S
C474   C476    1.397   .     A
C475   C481    1.422   .     S
C475   C488    1.397   .     A
C475   C487    1.397   .     A
C476   C486    1.397   .     A
C477   N494    1.373   .     A
C478   N493    1.373   .     A
C478   C587    1.425   .     S
C479   N494    1.373   .     A
C480   N493    1.373   .     A
C480   C585    1.425   .     S
C481   O496    1.291   .     A
C481   O497    1.291   .     A
C482   O502    1.284   .     A
C482   C484    1.366   .     S
C482   O499    1.284   .     A
C483   O500    1.284   .     A
C483   C485    1.366   .     S
C483   O501    1.284   .     A
C485   C808    1.166   .     S
C486   H489    1.083   .     S
C487   H490    1.083   .     S
C487   C510    1.369   .     S
C488   H491    1.083   .     S
C488   C522    1.369   .     S
N493   Zn503   2.029   .     S
N494   Zn504   2.029   .     S
O495   Zn503   2.002   .     S
O496   Zn504   2.002   .     S
O497   Zn503   2.002   .     S
O498   Zn504   2.002   .     S
O499   Zn503   1.949   .     S
O500   Zn504   1.949   .     S
O501   Zn503   1.949   .     S
O502   Zn504   1.949   .     S
Br505  C513    1.921   .     S
Br506  C514    1.921   .     S
Br507  C515    1.921   .     S
Br508  C516    1.921   .     S
C509   C512    1.422   .     S
C509   O534    1.291   .     A
C509   O531    1.291   .     A
C510   H528    1.083   .     S
C510   C512    1.397   .     A
C511   C517    1.422   .     S
C511   C524    1.397   .     A
C511   C523    1.397   .     A
C512   C522    1.397   .     A
C513   N530    1.373   .     A
C514   N529    1.373   .     A
C514   C623    1.425   .     S
C515   N530    1.373   .     A
C516   N529    1.373   .     A
C516   C621    1.425   .     S
C517   O532    1.291   .     A
C517   O533    1.291   .     A
C518   O538    1.284   .     A
C518   C520    1.366   .     S
C518   O535    1.284   .     A
C519   O536    1.284   .     A
C519   C521    1.366   .     S
C519   O537    1.284   .     A
C521   C844    1.166   .     S
C522   H525    1.083   .     S
C523   H526    1.083   .     S
C523   C438    1.369   1_655 S
C524   H527    1.083   .     S
C524   C450    1.369   1_655 S
N529   Zn539   2.029   .     S
N530   Zn540   2.029   .     S
O531   Zn539   2.002   .     S
O532   Zn540   2.002   .     S
O533   Zn539   2.002   .     S
O534   Zn540   2.002   .     S
O535   Zn539   1.949   .     S
O536   Zn540   1.949   .     S
O537   Zn539   1.949   .     S
O538   Zn540   1.949   .     S
Br541  C549    1.921   .     S
Br542  C550    1.921   .     S
Br543  C551    1.921   .     S
Br544  C552    1.921   .     S
C545   C548    1.422   .     S
C545   O570    1.291   .     A
C545   O567    1.291   .     A
C546   H564    1.083   .     S
C546   C548    1.397   .     A
C546   C631    1.369   1_455 S
C547   C553    1.422   .     S
C547   C560    1.397   .     A
C547   C559    1.397   .     A
C548   C558    1.397   .     A
C549   N566    1.373   .     A
C550   N565    1.373   .     A
C550   C335    1.425   1_565 S
C551   N566    1.373   .     A
C552   N565    1.373   .     A
C552   C333    1.425   1_565 S
C553   O568    1.291   .     A
C553   O569    1.291   .     A
C554   O574    1.284   .     A
C554   C556    1.366   .     S
C554   O571    1.284   .     A
C555   O572    1.284   .     A
C555   C557    1.366   .     S
C555   O573    1.284   .     A
C557   C880    1.166   .     S
C558   H561    1.083   .     S
C558   C632    1.369   1_455 S
C559   H562    1.083   .     S
C559   C582    1.369   .     S
C560   H563    1.083   .     S
C560   C594    1.369   .     S
N565   Zn575   2.029   .     S
N566   Zn576   2.029   .     S
O567   Zn575   2.002   .     S
O568   Zn576   2.002   .     S
O569   Zn575   2.002   .     S
O570   Zn576   2.002   .     S
O571   Zn575   1.949   .     S
O572   Zn576   1.949   .     S
O573   Zn575   1.949   .     S
O574   Zn576   1.949   .     S
Br577  C585    1.921   .     S
Br578  C586    1.921   .     S
Br579  C587    1.921   .     S
Br580  C588    1.921   .     S
C581   C584    1.422   .     S
C581   O606    1.291   .     A
C581   O603    1.291   .     A
C582   H600    1.083   .     S
C582   C584    1.397   .     A
C583   C589    1.422   .     S
C583   C596    1.397   .     A
C583   C595    1.397   .     A
C584   C594    1.397   .     A
C585   N602    1.373   .     A
C586   N601    1.373   .     A
C586   C371    1.425   1_565 S
C587   N602    1.373   .     A
C588   N601    1.373   .     A
C588   C369    1.425   1_565 S
C589   O604    1.291   .     A
C589   O605    1.291   .     A
C590   O610    1.284   .     A
C590   C592    1.366   .     S
C590   O607    1.284   .     A
C591   O608    1.284   .     A
C591   C593    1.366   .     S
C591   O609    1.284   .     A
C593   C916    1.166   .     S
C594   H597    1.083   .     S
C595   H598    1.083   .     S
C595   C618    1.369   .     S
C596   H599    1.083   .     S
C596   C630    1.369   .     S
N601   Zn611   2.029   .     S
N602   Zn612   2.029   .     S
O603   Zn611   2.002   .     S
O604   Zn612   2.002   .     S
O605   Zn611   2.002   .     S
O606   Zn612   2.002   .     S
O607   Zn611   1.949   .     S
O608   Zn612   1.949   .     S
O609   Zn611   1.949   .     S
O610   Zn612   1.949   .     S
Br613  C621    1.921   .     S
Br614  C622    1.921   .     S
Br615  C623    1.921   .     S
Br616  C624    1.921   .     S
C617   C620    1.422   .     S
C617   O642    1.291   .     A
C617   O639    1.291   .     A
C618   H636    1.083   .     S
C618   C620    1.397   .     A
C619   C625    1.422   .     S
C619   C632    1.397   .     A
C619   C631    1.397   .     A
C620   C630    1.397   .     A
C621   N638    1.373   .     A
C622   N637    1.373   .     A
C622   C407    1.425   1_565 S
C623   N638    1.373   .     A
C624   N637    1.373   .     A
C624   C405    1.425   1_565 S
C625   O640    1.291   .     A
C625   O641    1.291   .     A
C626   O646    1.284   .     A
C626   C628    1.366   .     S
C626   O643    1.284   .     A
C627   O644    1.284   .     A
C627   C629    1.366   .     S
C627   O645    1.284   .     A
C629   C952    1.166   .     S
C630   H633    1.083   .     S
C631   H634    1.083   .     S
C631   C546    1.369   1_655 S
C632   H635    1.083   .     S
C632   C558    1.369   1_655 S
N637   Zn647   2.029   .     S
N638   Zn648   2.029   .     S
O639   Zn647   2.002   .     S
O640   Zn648   2.002   .     S
O641   Zn647   2.002   .     S
O642   Zn648   2.002   .     S
O643   Zn647   1.949   .     S
O644   Zn648   1.949   .     S
O645   Zn647   1.949   .     S
O646   Zn648   1.949   .     S
Br649  C657    1.921   .     S
Br650  C658    1.921   .     S
Br651  C659    1.921   .     S
Br652  C660    1.921   .     S
C653   C656    1.422   .     S
C653   O678    1.291   .     A
C653   O675    1.291   .     A
C654   H672    1.083   .     S
C654   C656    1.397   .     A
C654   C739    1.369   1_455 S
C655   C661    1.422   .     S
C655   C668    1.397   .     A
C655   C667    1.397   .     A
C656   C666    1.397   .     A
C657   N674    1.373   .     A
C657   C876    1.425   1_545 S
C658   N673    1.373   .     A
C658   C767    1.425   .     S
C659   N674    1.373   .     A
C659   C874    1.425   1_545 S
C660   N673    1.373   .     A
C660   C765    1.425   .     S
C661   O676    1.291   .     A
C661   O677    1.291   .     A
C662   O682    1.284   .     A
C662   C664    1.366   .     S
C662   O679    1.284   .     A
C663   O680    1.284   .     A
C663   C665    1.366   .     S
C663   O681    1.284   .     A
C665   C16     1.166   1_556 S
C666   H669    1.083   .     S
C666   C740    1.369   1_455 S
C667   H670    1.083   .     S
C667   C690    1.369   .     S
C668   H671    1.083   .     S
C668   C702    1.369   .     S
N673   Zn683   2.029   .     S
N674   Zn684   2.029   .     S
O675   Zn683   2.002   .     S
O676   Zn684   2.002   .     S
O677   Zn683   2.002   .     S
O678   Zn684   2.002   .     S
O679   Zn683   1.949   .     S
O680   Zn684   1.949   .     S
O681   Zn683   1.949   .     S
O682   Zn684   1.949   .     S
Br685  C693    1.921   .     S
Br686  C694    1.921   .     S
Br687  C695    1.921   .     S
Br688  C696    1.921   .     S
C689   C692    1.422   .     S
C689   O714    1.291   .     A
C689   O711    1.291   .     A
C690   H708    1.083   .     S
C690   C692    1.397   .     A
C691   C697    1.422   .     S
C691   C704    1.397   .     A
C691   C703    1.397   .     A
C692   C702    1.397   .     A
C693   N710    1.373   .     A
C693   C912    1.425   1_545 S
C694   N709    1.373   .     A
C694   C803    1.425   .     S
C695   N710    1.373   .     A
C695   C910    1.425   1_545 S
C696   N709    1.373   .     A
C696   C801    1.425   .     S
C697   O712    1.291   .     A
C697   O713    1.291   .     A
C698   O718    1.284   .     A
C698   C700    1.366   .     S
C698   O715    1.284   .     A
C699   O716    1.284   .     A
C699   C701    1.366   .     S
C699   O717    1.284   .     A
C701   C52     1.166   1_556 S
C702   H705    1.083   .     S
C703   H706    1.083   .     S
C703   C726    1.369   .     S
C704   H707    1.083   .     S
C704   C738    1.369   .     S
N709   Zn719   2.029   .     S
N710   Zn720   2.029   .     S
O711   Zn719   2.002   .     S
O712   Zn720   2.002   .     S
O713   Zn719   2.002   .     S
O714   Zn720   2.002   .     S
O715   Zn719   1.949   .     S
O716   Zn720   1.949   .     S
O717   Zn719   1.949   .     S
O718   Zn720   1.949   .     S
Br721  C729    1.921   .     S
Br722  C730    1.921   .     S
Br723  C731    1.921   .     S
Br724  C732    1.921   .     S
C725   C728    1.422   .     S
C725   O750    1.291   .     A
C725   O747    1.291   .     A
C726   H744    1.083   .     S
C726   C728    1.397   .     A
C727   C733    1.422   .     S
C727   C740    1.397   .     A
C727   C739    1.397   .     A
C728   C738    1.397   .     A
C729   N746    1.373   .     A
C729   C948    1.425   1_545 S
C730   N745    1.373   .     A
C730   C839    1.425   .     S
C731   N746    1.373   .     A
C731   C946    1.425   1_545 S
C732   N745    1.373   .     A
C732   C837    1.425   .     S
C733   O748    1.291   .     A
C733   O749    1.291   .     A
C734   O754    1.284   .     A
C734   C736    1.366   .     S
C734   O751    1.284   .     A
C735   O752    1.284   .     A
C735   C737    1.366   .     S
C735   O753    1.284   .     A
C737   C88     1.166   1_556 S
C738   H741    1.083   .     S
C739   H742    1.083   .     S
C739   C654    1.369   1_655 S
C740   H743    1.083   .     S
C740   C666    1.369   1_655 S
N745   Zn755   2.029   .     S
N746   Zn756   2.029   .     S
O747   Zn755   2.002   .     S
O748   Zn756   2.002   .     S
O749   Zn755   2.002   .     S
O750   Zn756   2.002   .     S
O751   Zn755   1.949   .     S
O752   Zn756   1.949   .     S
O753   Zn755   1.949   .     S
O754   Zn756   1.949   .     S
Br757  C765    1.921   .     S
Br758  C766    1.921   .     S
Br759  C767    1.921   .     S
Br760  C768    1.921   .     S
C761   C764    1.422   .     S
C761   O786    1.291   .     A
C761   O783    1.291   .     A
C762   H780    1.083   .     S
C762   C764    1.397   .     A
C762   C847    1.369   1_455 S
C763   C769    1.422   .     S
C763   C776    1.397   .     A
C763   C775    1.397   .     A
C764   C774    1.397   .     A
C765   N782    1.373   .     A
C766   N781    1.373   .     A
C766   C875    1.425   .     S
C767   N782    1.373   .     A
C768   N781    1.373   .     A
C768   C873    1.425   .     S
C769   O784    1.291   .     A
C769   O785    1.291   .     A
C770   O790    1.284   .     A
C770   C772    1.366   .     S
C770   O787    1.284   .     A
C771   O788    1.284   .     A
C771   C773    1.366   .     S
C771   O789    1.284   .     A
C773   C124    1.166   1_556 S
C774   H777    1.083   .     S
C774   C848    1.369   1_455 S
C775   H778    1.083   .     S
C775   C798    1.369   .     S
C776   H779    1.083   .     S
C776   C810    1.369   .     S
N781   Zn791   2.029   .     S
N782   Zn792   2.029   .     S
O783   Zn791   2.002   .     S
O784   Zn792   2.002   .     S
O785   Zn791   2.002   .     S
O786   Zn792   2.002   .     S
O787   Zn791   1.949   .     S
O788   Zn792   1.949   .     S
O789   Zn791   1.949   .     S
O790   Zn792   1.949   .     S
Br793  C801    1.921   .     S
Br794  C802    1.921   .     S
Br795  C803    1.921   .     S
Br796  C804    1.921   .     S
C797   C800    1.422   .     S
C797   O822    1.291   .     A
C797   O819    1.291   .     A
C798   H816    1.083   .     S
C798   C800    1.397   .     A
C799   C805    1.422   .     S
C799   C812    1.397   .     A
C799   C811    1.397   .     A
C800   C810    1.397   .     A
C801   N818    1.373   .     A
C802   N817    1.373   .     A
C802   C911    1.425   .     S
C803   N818    1.373   .     A
C804   N817    1.373   .     A
C804   C909    1.425   .     S
C805   O820    1.291   .     A
C805   O821    1.291   .     A
C806   O826    1.284   .     A
C806   C808    1.366   .     S
C806   O823    1.284   .     A
C807   O824    1.284   .     A
C807   C809    1.366   .     S
C807   O825    1.284   .     A
C809   C160    1.166   1_556 S
C810   H813    1.083   .     S
C811   H814    1.083   .     S
C811   C834    1.369   .     S
C812   H815    1.083   .     S
C812   C846    1.369   .     S
N817   Zn827   2.029   .     S
N818   Zn828   2.029   .     S
O819   Zn827   2.002   .     S
O820   Zn828   2.002   .     S
O821   Zn827   2.002   .     S
O822   Zn828   2.002   .     S
O823   Zn827   1.949   .     S
O824   Zn828   1.949   .     S
O825   Zn827   1.949   .     S
O826   Zn828   1.949   .     S
Br829  C837    1.921   .     S
Br830  C838    1.921   .     S
Br831  C839    1.921   .     S
Br832  C840    1.921   .     S
C833   C836    1.422   .     S
C833   O858    1.291   .     A
C833   O855    1.291   .     A
C834   H852    1.083   .     S
C834   C836    1.397   .     A
C835   C841    1.422   .     S
C835   C848    1.397   .     A
C835   C847    1.397   .     A
C836   C846    1.397   .     A
C837   N854    1.373   .     A
C838   N853    1.373   .     A
C838   C947    1.425   .     S
C839   N854    1.373   .     A
C840   N853    1.373   .     A
C840   C945    1.425   .     S
C841   O856    1.291   .     A
C841   O857    1.291   .     A
C842   O862    1.284   .     A
C842   C844    1.366   .     S
C842   O859    1.284   .     A
C843   O860    1.284   .     A
C843   C845    1.366   .     S
C843   O861    1.284   .     A
C845   C196    1.166   1_556 S
C846   H849    1.083   .     S
C847   H850    1.083   .     S
C847   C762    1.369   1_655 S
C848   H851    1.083   .     S
C848   C774    1.369   1_655 S
N853   Zn863   2.029   .     S
N854   Zn864   2.029   .     S
O855   Zn863   2.002   .     S
O856   Zn864   2.002   .     S
O857   Zn863   2.002   .     S
O858   Zn864   2.002   .     S
O859   Zn863   1.949   .     S
O860   Zn864   1.949   .     S
O861   Zn863   1.949   .     S
O862   Zn864   1.949   .     S
Br865  C873    1.921   .     S
Br866  C874    1.921   .     S
Br867  C875    1.921   .     S
Br868  C876    1.921   .     S
C869   C872    1.422   .     S
C869   O894    1.291   .     A
C869   O891    1.291   .     A
C870   H888    1.083   .     S
C870   C872    1.397   .     A
C870   C955    1.369   1_455 S
C871   C877    1.422   .     S
C871   C884    1.397   .     A
C871   C883    1.397   .     A
C872   C882    1.397   .     A
C873   N890    1.373   .     A
C874   N889    1.373   .     A
C874   C659    1.425   1_565 S
C875   N890    1.373   .     A
C876   N889    1.373   .     A
C876   C657    1.425   1_565 S
C877   O892    1.291   .     A
C877   O893    1.291   .     A
C878   O898    1.284   .     A
C878   C880    1.366   .     S
C878   O895    1.284   .     A
C879   O896    1.284   .     A
C879   C881    1.366   .     S
C879   O897    1.284   .     A
C881   C232    1.166   1_556 S
C882   H885    1.083   .     S
C882   C956    1.369   1_455 S
C883   H886    1.083   .     S
C883   C906    1.369   .     S
C884   H887    1.083   .     S
C884   C918    1.369   .     S
N889   Zn899   2.029   .     S
N890   Zn900   2.029   .     S
O891   Zn899   2.002   .     S
O892   Zn900   2.002   .     S
O893   Zn899   2.002   .     S
O894   Zn900   2.002   .     S
O895   Zn899   1.949   .     S
O896   Zn900   1.949   .     S
O897   Zn899   1.949   .     S
O898   Zn900   1.949   .     S
Br901  C909    1.921   .     S
Br902  C910    1.921   .     S
Br903  C911    1.921   .     S
Br904  C912    1.921   .     S
C905   C908    1.422   .     S
C905   O930    1.291   .     A
C905   O927    1.291   .     A
C906   H924    1.083   .     S
C906   C908    1.397   .     A
C907   C913    1.422   .     S
C907   C920    1.397   .     A
C907   C919    1.397   .     A
C908   C918    1.397   .     A
C909   N926    1.373   .     A
C910   N925    1.373   .     A
C910   C695    1.425   1_565 S
C911   N926    1.373   .     A
C912   N925    1.373   .     A
C912   C693    1.425   1_565 S
C913   O928    1.291   .     A
C913   O929    1.291   .     A
C914   O934    1.284   .     A
C914   C916    1.366   .     S
C914   O931    1.284   .     A
C915   O932    1.284   .     A
C915   C917    1.366   .     S
C915   O933    1.284   .     A
C917   C268    1.166   1_556 S
C918   H921    1.083   .     S
C919   H922    1.083   .     S
C919   C942    1.369   .     S
C920   H923    1.083   .     S
C920   C954    1.369   .     S
N925   Zn935   2.029   .     S
N926   Zn936   2.029   .     S
O927   Zn935   2.002   .     S
O928   Zn936   2.002   .     S
O929   Zn935   2.002   .     S
O930   Zn936   2.002   .     S
O931   Zn935   1.949   .     S
O932   Zn936   1.949   .     S
O933   Zn935   1.949   .     S
O934   Zn936   1.949   .     S
Br937  C945    1.921   .     S
Br938  C946    1.921   .     S
Br939  C947    1.921   .     S
Br940  C948    1.921   .     S
C941   C944    1.422   .     S
C941   O966    1.291   .     A
C941   O963    1.291   .     A
C942   H960    1.083   .     S
C942   C944    1.397   .     A
C943   C949    1.422   .     S
C943   C956    1.397   .     A
C943   C955    1.397   .     A
C944   C954    1.397   .     A
C945   N962    1.373   .     A
C946   N961    1.373   .     A
C946   C731    1.425   1_565 S
C947   N962    1.373   .     A
C948   N961    1.373   .     A
C948   C729    1.425   1_565 S
C949   O964    1.291   .     A
C949   O965    1.291   .     A
C950   O970    1.284   .     A
C950   C952    1.366   .     S
C950   O967    1.284   .     A
C951   O968    1.284   .     A
C951   C953    1.366   .     S
C951   O969    1.284   .     A
C953   C304    1.166   1_556 S
C954   H957    1.083   .     S
C955   H958    1.083   .     S
C955   C870    1.369   1_655 S
C956   H959    1.083   .     S
C956   C882    1.369   1_655 S
N961   Zn971   2.029   .     S
N962   Zn972   2.029   .     S
O963   Zn971   2.002   .     S
O964   Zn972   2.002   .     S
O965   Zn971   2.002   .     S
O966   Zn972   2.002   .     S
O967   Zn971   1.949   .     S
O968   Zn972   1.949   .     S
O969   Zn971   1.949   .     S
O970   Zn972   1.949   .     S
