data_str_m3_o1_o10_pcu_sym.103
_audit_creation_date              2020-01-03
_audit_creation_method            'Materials Studio'
_symmetry_space_group_name_H-M    'P1'
_symmetry_Int_Tables_number       1
_symmetry_cell_setting            triclinic
loop_
_symmetry_equiv_pos_as_xyz
  x,y,z
_cell_length_a                    25.7799
_cell_length_b                    32.3169
_cell_length_c                    29.9156
_cell_angle_alpha                 91.6238
_cell_angle_beta                  98.7998
_cell_angle_gamma                 92.8979
loop_
_atom_site_label
_atom_site_type_symbol
_atom_site_fract_x
_atom_site_fract_y
_atom_site_fract_z
_atom_site_U_iso_or_equiv
_atom_site_adp_type
_atom_site_occupancy
C1     C     0.16676   0.08685   0.16606   0.00000  Uiso   1.00
C2     C     0.16652   0.24651   0.16729   0.00000  Uiso   1.00
C3     C     0.06723   0.16503   0.15492   0.00000  Uiso   1.00
C4     C     0.26611   0.16837   0.17841   0.00000  Uiso   1.00
C5     C     0.01227   0.15713   0.15105   0.00000  Uiso   1.00
C6     C     0.32108   0.17619   0.18226   0.00000  Uiso   1.00
C7     C     0.13518   0.01873   0.13095   0.00000  Uiso   1.00
C8     C     0.19729   0.31474   0.20280   0.00000  Uiso   1.00
C9     C     0.13302   0.30935   0.13286   0.00000  Uiso   1.00
C10    C     0.19991   0.02406   0.20059   0.00000  Uiso   1.00
C11    C     0.16505   0.29071   0.16825   0.00000  Uiso   1.00
C12    C     0.16797   0.04269   0.16518   0.00000  Uiso   1.00
C13    C     0.20737   0.18567   0.02978   0.00000  Uiso   1.00
C14    C     0.12555   0.14801   0.30363   0.00000  Uiso   1.00
C15    C     0.20782   0.18477   0.31566   0.00000  Uiso   1.00
C16    C     0.12518   0.14899   0.01817   0.00000  Uiso   1.00
N17    N     0.16665   0.16666   0.28573   0.00000  Uiso   1.00
N18    N     0.16668   0.16668   0.04760   0.00000  Uiso   1.00
O19    O     0.16666   0.10558   0.20487   0.00000  Uiso   1.00
O20    O     0.16667   0.22775   0.12846   0.00000  Uiso   1.00
O21    O     0.16666   0.10559   0.12843   0.00000  Uiso   1.00
O22    O     0.16667   0.22774   0.20490   0.00000  Uiso   1.00
O23    O     0.09058   0.16666   0.19595   0.00000  Uiso   1.00
O24    O     0.24275   0.16667   0.13739   0.00000  Uiso   1.00
O25    O     0.09058   0.16667   0.11950   0.00000  Uiso   1.00
O26    O     0.24275   0.16666   0.21383   0.00000  Uiso   1.00
Zn27   Zn    0.16667   0.16666   0.21771   0.00000  Uiso   1.00
Zn28   Zn    0.16667   0.16667   0.11563   0.00000  Uiso   1.00
C29    C     0.32283   0.11948   0.12346   0.00000  Uiso   1.00
O30    O     0.32931   0.11542   0.08406   0.00000  Uiso   1.00
O31    O     0.29418   0.08874   0.14277   0.00000  Uiso   1.00
H32    H     0.28051   0.06491   0.12063   0.00000  Uiso   1.00
C33    C     0.01060   0.21399   0.20952   0.00000  Uiso   1.00
O34    O     0.00627   0.21755   0.24947   0.00000  Uiso   1.00
O35    O     0.03728   0.24530   0.18929   0.00000  Uiso   1.00
H36    H     0.05142   0.26914   0.21126   0.00000  Uiso   1.00
C37    C     0.10353   0.03689   0.09180   0.00000  Uiso   1.00
O38    O     0.12511   0.04953   0.06080   0.00000  Uiso   1.00
O39    O     0.04882   0.03539   0.08838   0.00000  Uiso   1.00
H40    H     0.03105   0.04480   0.05809   0.00000  Uiso   1.00
C41    C     0.22775   0.29685   0.24270   0.00000  Uiso   1.00
O42    O     0.20587   0.28762   0.27481   0.00000  Uiso   1.00
O43    O     0.28210   0.29475   0.24540   0.00000  Uiso   1.00
H44    H     0.29927   0.28566   0.27605   0.00000  Uiso   1.00
N45    N     0.09723   0.28555   0.09880   0.00000  Uiso   1.00
H46    H     0.07544   0.26338   0.11402   0.00000  Uiso   1.00
H47    H     0.11833   0.27121   0.07613   0.00000  Uiso   1.00
N48    N     0.23610   0.04782   0.23441   0.00000  Uiso   1.00
H49    H     0.25794   0.06978   0.21897   0.00000  Uiso   1.00
H50    H     0.21534   0.06239   0.25718   0.00000  Uiso   1.00
C51    C     0.25146   0.20843   0.05922   0.00000  Uiso   1.00
O52    O     0.29618   0.19723   0.06015   0.00000  Uiso   1.00
O53    O     0.24280   0.24451   0.08306   0.00000  Uiso   1.00
H54    H     0.27623   0.25753   0.10149   0.00000  Uiso   1.00
C55    C     0.08208   0.12477   0.27402   0.00000  Uiso   1.00
O56    O     0.03727   0.13611   0.27164   0.00000  Uiso   1.00
O57    O     0.09144   0.08811   0.25158   0.00000  Uiso   1.00
H58    H     0.05843   0.07475   0.23282   0.00000  Uiso   1.00
N59    N     0.25320   0.20223   0.29988   0.00000  Uiso   1.00
H60    H     0.24132   0.21827   0.27083   0.00000  Uiso   1.00
H61    H     0.27579   0.17769   0.29268   0.00000  Uiso   1.00
N62    N     0.08051   0.13245   0.03598   0.00000  Uiso   1.00
H63    H     0.04912   0.15089   0.02528   0.00000  Uiso   1.00
H64    H     0.07051   0.10254   0.02231   0.00000  Uiso   1.00
C65    C     0.50010   0.08685   0.16606   0.00000  Uiso   1.00
C66    C     0.49985   0.24651   0.16729   0.00000  Uiso   1.00
C67    C     0.40056   0.16503   0.15492   0.00000  Uiso   1.00
C68    C     0.59945   0.16837   0.17841   0.00000  Uiso   1.00
C69    C     0.34560   0.15713   0.15105   0.00000  Uiso   1.00
C70    C     0.65441   0.17619   0.18226   0.00000  Uiso   1.00
C71    C     0.46852   0.01873   0.13095   0.00000  Uiso   1.00
C72    C     0.53062   0.31474   0.20280   0.00000  Uiso   1.00
C73    C     0.46635   0.30935   0.13286   0.00000  Uiso   1.00
C74    C     0.53324   0.02406   0.20059   0.00000  Uiso   1.00
C75    C     0.49838   0.29071   0.16825   0.00000  Uiso   1.00
C76    C     0.50130   0.04269   0.16518   0.00000  Uiso   1.00
C77    C     0.54071   0.18567   0.02978   0.00000  Uiso   1.00
C78    C     0.45888   0.14801   0.30363   0.00000  Uiso   1.00
C79    C     0.54116   0.18477   0.31566   0.00000  Uiso   1.00
C80    C     0.45851   0.14899   0.01817   0.00000  Uiso   1.00
N81    N     0.49999   0.16666   0.28573   0.00000  Uiso   1.00
N82    N     0.50001   0.16668   0.04760   0.00000  Uiso   1.00
O83    O     0.50000   0.10558   0.20487   0.00000  Uiso   1.00
O84    O     0.50000   0.22775   0.12846   0.00000  Uiso   1.00
O85    O     0.50000   0.10559   0.12843   0.00000  Uiso   1.00
O86    O     0.50000   0.22774   0.20490   0.00000  Uiso   1.00
O87    O     0.42392   0.16666   0.19595   0.00000  Uiso   1.00
O88    O     0.57608   0.16667   0.13739   0.00000  Uiso   1.00
O89    O     0.42392   0.16667   0.11950   0.00000  Uiso   1.00
O90    O     0.57608   0.16666   0.21383   0.00000  Uiso   1.00
Zn91   Zn    0.50000   0.16666   0.21771   0.00000  Uiso   1.00
Zn92   Zn    0.50000   0.16667   0.11563   0.00000  Uiso   1.00
C93    C     0.65616   0.11948   0.12346   0.00000  Uiso   1.00
O94    O     0.66264   0.11542   0.08406   0.00000  Uiso   1.00
O95    O     0.62752   0.08874   0.14277   0.00000  Uiso   1.00
H96    H     0.61384   0.06491   0.12063   0.00000  Uiso   1.00
C97    C     0.34394   0.21399   0.20952   0.00000  Uiso   1.00
O98    O     0.33960   0.21755   0.24947   0.00000  Uiso   1.00
O99    O     0.37061   0.24530   0.18929   0.00000  Uiso   1.00
H100   H     0.38475   0.26914   0.21126   0.00000  Uiso   1.00
C101   C     0.43687   0.03689   0.09180   0.00000  Uiso   1.00
O102   O     0.45845   0.04953   0.06080   0.00000  Uiso   1.00
O103   O     0.38216   0.03539   0.08838   0.00000  Uiso   1.00
H104   H     0.36438   0.04480   0.05809   0.00000  Uiso   1.00
C105   C     0.56109   0.29685   0.24270   0.00000  Uiso   1.00
O106   O     0.53921   0.28762   0.27481   0.00000  Uiso   1.00
O107   O     0.61543   0.29475   0.24540   0.00000  Uiso   1.00
H108   H     0.63261   0.28566   0.27605   0.00000  Uiso   1.00
N109   N     0.43056   0.28555   0.09880   0.00000  Uiso   1.00
H110   H     0.40878   0.26338   0.11402   0.00000  Uiso   1.00
H111   H     0.45166   0.27121   0.07613   0.00000  Uiso   1.00
N112   N     0.56944   0.04782   0.23441   0.00000  Uiso   1.00
H113   H     0.59128   0.06978   0.21897   0.00000  Uiso   1.00
H114   H     0.54868   0.06239   0.25718   0.00000  Uiso   1.00
C115   C     0.58480   0.20843   0.05922   0.00000  Uiso   1.00
O116   O     0.62951   0.19723   0.06015   0.00000  Uiso   1.00
O117   O     0.57614   0.24451   0.08306   0.00000  Uiso   1.00
H118   H     0.60956   0.25753   0.10149   0.00000  Uiso   1.00
C119   C     0.41541   0.12477   0.27402   0.00000  Uiso   1.00
O120   O     0.37061   0.13611   0.27164   0.00000  Uiso   1.00
O121   O     0.42477   0.08811   0.25158   0.00000  Uiso   1.00
H122   H     0.39176   0.07475   0.23282   0.00000  Uiso   1.00
N123   N     0.58654   0.20223   0.29988   0.00000  Uiso   1.00
H124   H     0.57466   0.21827   0.27083   0.00000  Uiso   1.00
H125   H     0.60912   0.17769   0.29268   0.00000  Uiso   1.00
N126   N     0.41385   0.13245   0.03598   0.00000  Uiso   1.00
H127   H     0.38245   0.15089   0.02528   0.00000  Uiso   1.00
H128   H     0.40385   0.10254   0.02231   0.00000  Uiso   1.00
C129   C     0.83343   0.08685   0.16606   0.00000  Uiso   1.00
C130   C     0.83319   0.24651   0.16729   0.00000  Uiso   1.00
C131   C     0.73389   0.16503   0.15492   0.00000  Uiso   1.00
C132   C     0.93278   0.16837   0.17841   0.00000  Uiso   1.00
C133   C     0.67894   0.15713   0.15105   0.00000  Uiso   1.00
C134   C     0.98774   0.17619   0.18226   0.00000  Uiso   1.00
C135   C     0.80185   0.01873   0.13095   0.00000  Uiso   1.00
C136   C     0.86395   0.31474   0.20280   0.00000  Uiso   1.00
C137   C     0.79969   0.30935   0.13286   0.00000  Uiso   1.00
C138   C     0.86657   0.02406   0.20059   0.00000  Uiso   1.00
C139   C     0.83171   0.29071   0.16825   0.00000  Uiso   1.00
C140   C     0.83464   0.04269   0.16518   0.00000  Uiso   1.00
C141   C     0.87404   0.18567   0.02978   0.00000  Uiso   1.00
C142   C     0.79222   0.14801   0.30363   0.00000  Uiso   1.00
C143   C     0.87449   0.18477   0.31566   0.00000  Uiso   1.00
C144   C     0.79185   0.14899   0.01817   0.00000  Uiso   1.00
N145   N     0.83332   0.16666   0.28573   0.00000  Uiso   1.00
N146   N     0.83335   0.16668   0.04760   0.00000  Uiso   1.00
O147   O     0.83333   0.10558   0.20487   0.00000  Uiso   1.00
O148   O     0.83334   0.22775   0.12846   0.00000  Uiso   1.00
O149   O     0.83333   0.10559   0.12843   0.00000  Uiso   1.00
O150   O     0.83334   0.22774   0.20490   0.00000  Uiso   1.00
O151   O     0.75725   0.16666   0.19595   0.00000  Uiso   1.00
O152   O     0.90942   0.16667   0.13739   0.00000  Uiso   1.00
O153   O     0.75725   0.16667   0.11950   0.00000  Uiso   1.00
O154   O     0.90942   0.16666   0.21383   0.00000  Uiso   1.00
Zn155  Zn    0.83333   0.16666   0.21771   0.00000  Uiso   1.00
Zn156  Zn    0.83333   0.16667   0.11563   0.00000  Uiso   1.00
C157   C     0.98949   0.11948   0.12346   0.00000  Uiso   1.00
O158   O     0.99597   0.11542   0.08406   0.00000  Uiso   1.00
O159   O     0.96085   0.08874   0.14277   0.00000  Uiso   1.00
H160   H     0.94717   0.06491   0.12063   0.00000  Uiso   1.00
C161   C     0.67727   0.21399   0.20952   0.00000  Uiso   1.00
O162   O     0.67294   0.21755   0.24947   0.00000  Uiso   1.00
O163   O     0.70395   0.24530   0.18929   0.00000  Uiso   1.00
H164   H     0.71809   0.26914   0.21126   0.00000  Uiso   1.00
C165   C     0.77020   0.03689   0.09180   0.00000  Uiso   1.00
O166   O     0.79178   0.04953   0.06080   0.00000  Uiso   1.00
O167   O     0.71549   0.03539   0.08838   0.00000  Uiso   1.00
H168   H     0.69771   0.04480   0.05809   0.00000  Uiso   1.00
C169   C     0.89442   0.29685   0.24270   0.00000  Uiso   1.00
O170   O     0.87254   0.28762   0.27481   0.00000  Uiso   1.00
O171   O     0.94876   0.29475   0.24540   0.00000  Uiso   1.00
H172   H     0.96594   0.28566   0.27605   0.00000  Uiso   1.00
N173   N     0.76389   0.28555   0.09880   0.00000  Uiso   1.00
H174   H     0.74211   0.26338   0.11402   0.00000  Uiso   1.00
H175   H     0.78499   0.27121   0.07613   0.00000  Uiso   1.00
N176   N     0.90277   0.04782   0.23441   0.00000  Uiso   1.00
H177   H     0.92461   0.06978   0.21897   0.00000  Uiso   1.00
H178   H     0.88201   0.06239   0.25718   0.00000  Uiso   1.00
C179   C     0.91813   0.20843   0.05922   0.00000  Uiso   1.00
O180   O     0.96285   0.19723   0.06015   0.00000  Uiso   1.00
O181   O     0.90947   0.24451   0.08306   0.00000  Uiso   1.00
H182   H     0.94290   0.25753   0.10149   0.00000  Uiso   1.00
C183   C     0.74874   0.12477   0.27402   0.00000  Uiso   1.00
O184   O     0.70394   0.13611   0.27164   0.00000  Uiso   1.00
O185   O     0.75810   0.08811   0.25158   0.00000  Uiso   1.00
H186   H     0.72509   0.07475   0.23282   0.00000  Uiso   1.00
N187   N     0.91987   0.20223   0.29988   0.00000  Uiso   1.00
H188   H     0.90799   0.21827   0.27083   0.00000  Uiso   1.00
H189   H     0.94246   0.17769   0.29268   0.00000  Uiso   1.00
N190   N     0.74718   0.13245   0.03598   0.00000  Uiso   1.00
H191   H     0.71579   0.15089   0.02528   0.00000  Uiso   1.00
H192   H     0.73718   0.10254   0.02231   0.00000  Uiso   1.00
C193   C     0.16676   0.42018   0.16606   0.00000  Uiso   1.00
C194   C     0.16652   0.57984   0.16729   0.00000  Uiso   1.00
C195   C     0.06723   0.49836   0.15492   0.00000  Uiso   1.00
C196   C     0.26611   0.50170   0.17841   0.00000  Uiso   1.00
C197   C     0.01227   0.49047   0.15105   0.00000  Uiso   1.00
C198   C     0.32108   0.50952   0.18226   0.00000  Uiso   1.00
C199   C     0.13518   0.35206   0.13095   0.00000  Uiso   1.00
C200   C     0.19729   0.64807   0.20280   0.00000  Uiso   1.00
C201   C     0.13302   0.64268   0.13286   0.00000  Uiso   1.00
C202   C     0.19991   0.35739   0.20059   0.00000  Uiso   1.00
C203   C     0.16505   0.62404   0.16825   0.00000  Uiso   1.00
C204   C     0.16797   0.37602   0.16518   0.00000  Uiso   1.00
C205   C     0.20737   0.51900   0.02978   0.00000  Uiso   1.00
C206   C     0.12555   0.48135   0.30363   0.00000  Uiso   1.00
C207   C     0.20782   0.51810   0.31566   0.00000  Uiso   1.00
C208   C     0.12518   0.48232   0.01817   0.00000  Uiso   1.00
N209   N     0.16665   0.49999   0.28573   0.00000  Uiso   1.00
N210   N     0.16668   0.50001   0.04760   0.00000  Uiso   1.00
O211   O     0.16666   0.43892   0.20487   0.00000  Uiso   1.00
O212   O     0.16667   0.56108   0.12846   0.00000  Uiso   1.00
O213   O     0.16666   0.43893   0.12843   0.00000  Uiso   1.00
O214   O     0.16667   0.56107   0.20490   0.00000  Uiso   1.00
O215   O     0.09058   0.50000   0.19595   0.00000  Uiso   1.00
O216   O     0.24275   0.50000   0.13739   0.00000  Uiso   1.00
O217   O     0.09058   0.50000   0.11950   0.00000  Uiso   1.00
O218   O     0.24275   0.50000   0.21383   0.00000  Uiso   1.00
Zn219  Zn    0.16667   0.49999   0.21771   0.00000  Uiso   1.00
Zn220  Zn    0.16667   0.50001   0.11563   0.00000  Uiso   1.00
C221   C     0.32283   0.45281   0.12346   0.00000  Uiso   1.00
O222   O     0.32931   0.44876   0.08406   0.00000  Uiso   1.00
O223   O     0.29418   0.42207   0.14277   0.00000  Uiso   1.00
H224   H     0.28051   0.39825   0.12063   0.00000  Uiso   1.00
C225   C     0.01060   0.54733   0.20952   0.00000  Uiso   1.00
O226   O     0.00627   0.55088   0.24947   0.00000  Uiso   1.00
O227   O     0.03728   0.57864   0.18929   0.00000  Uiso   1.00
H228   H     0.05142   0.60248   0.21126   0.00000  Uiso   1.00
C229   C     0.10353   0.37022   0.09180   0.00000  Uiso   1.00
O230   O     0.12511   0.38286   0.06080   0.00000  Uiso   1.00
O231   O     0.04882   0.36872   0.08838   0.00000  Uiso   1.00
H232   H     0.03105   0.37813   0.05809   0.00000  Uiso   1.00
C233   C     0.22775   0.63018   0.24270   0.00000  Uiso   1.00
O234   O     0.20587   0.62095   0.27481   0.00000  Uiso   1.00
O235   O     0.28210   0.62809   0.24540   0.00000  Uiso   1.00
H236   H     0.29927   0.61899   0.27605   0.00000  Uiso   1.00
N237   N     0.09723   0.61888   0.09880   0.00000  Uiso   1.00
H238   H     0.07544   0.59672   0.11402   0.00000  Uiso   1.00
H239   H     0.11833   0.60454   0.07613   0.00000  Uiso   1.00
N240   N     0.23610   0.38115   0.23441   0.00000  Uiso   1.00
H241   H     0.25794   0.40311   0.21897   0.00000  Uiso   1.00
H242   H     0.21534   0.39572   0.25718   0.00000  Uiso   1.00
C243   C     0.25146   0.54176   0.05922   0.00000  Uiso   1.00
O244   O     0.29618   0.53056   0.06015   0.00000  Uiso   1.00
O245   O     0.24280   0.57784   0.08306   0.00000  Uiso   1.00
H246   H     0.27623   0.59086   0.10149   0.00000  Uiso   1.00
C247   C     0.08208   0.45810   0.27402   0.00000  Uiso   1.00
O248   O     0.03727   0.46944   0.27164   0.00000  Uiso   1.00
O249   O     0.09144   0.42144   0.25158   0.00000  Uiso   1.00
H250   H     0.05843   0.40808   0.23282   0.00000  Uiso   1.00
N251   N     0.25320   0.53556   0.29988   0.00000  Uiso   1.00
H252   H     0.24132   0.55160   0.27083   0.00000  Uiso   1.00
H253   H     0.27579   0.51102   0.29268   0.00000  Uiso   1.00
N254   N     0.08051   0.46578   0.03598   0.00000  Uiso   1.00
H255   H     0.04912   0.48422   0.02528   0.00000  Uiso   1.00
H256   H     0.07051   0.43588   0.02231   0.00000  Uiso   1.00
C257   C     0.50010   0.42018   0.16606   0.00000  Uiso   1.00
C258   C     0.49985   0.57984   0.16729   0.00000  Uiso   1.00
C259   C     0.40056   0.49836   0.15492   0.00000  Uiso   1.00
C260   C     0.59945   0.50170   0.17841   0.00000  Uiso   1.00
C261   C     0.34560   0.49047   0.15105   0.00000  Uiso   1.00
C262   C     0.65441   0.50952   0.18226   0.00000  Uiso   1.00
C263   C     0.46852   0.35206   0.13095   0.00000  Uiso   1.00
C264   C     0.53062   0.64807   0.20280   0.00000  Uiso   1.00
C265   C     0.46635   0.64268   0.13286   0.00000  Uiso   1.00
C266   C     0.53324   0.35739   0.20059   0.00000  Uiso   1.00
C267   C     0.49838   0.62404   0.16825   0.00000  Uiso   1.00
C268   C     0.50130   0.37602   0.16518   0.00000  Uiso   1.00
C269   C     0.54071   0.51900   0.02978   0.00000  Uiso   1.00
C270   C     0.45888   0.48135   0.30363   0.00000  Uiso   1.00
C271   C     0.54116   0.51810   0.31566   0.00000  Uiso   1.00
C272   C     0.45851   0.48232   0.01817   0.00000  Uiso   1.00
N273   N     0.49999   0.49999   0.28573   0.00000  Uiso   1.00
N274   N     0.50001   0.50001   0.04760   0.00000  Uiso   1.00
O275   O     0.50000   0.43892   0.20487   0.00000  Uiso   1.00
O276   O     0.50000   0.56108   0.12846   0.00000  Uiso   1.00
O277   O     0.50000   0.43893   0.12843   0.00000  Uiso   1.00
O278   O     0.50000   0.56107   0.20490   0.00000  Uiso   1.00
O279   O     0.42392   0.50000   0.19595   0.00000  Uiso   1.00
O280   O     0.57608   0.50000   0.13739   0.00000  Uiso   1.00
O281   O     0.42392   0.50000   0.11950   0.00000  Uiso   1.00
O282   O     0.57608   0.50000   0.21383   0.00000  Uiso   1.00
Zn283  Zn    0.50000   0.49999   0.21771   0.00000  Uiso   1.00
Zn284  Zn    0.50000   0.50001   0.11563   0.00000  Uiso   1.00
C285   C     0.65616   0.45281   0.12346   0.00000  Uiso   1.00
O286   O     0.66264   0.44876   0.08406   0.00000  Uiso   1.00
O287   O     0.62752   0.42207   0.14277   0.00000  Uiso   1.00
H288   H     0.61384   0.39825   0.12063   0.00000  Uiso   1.00
C289   C     0.34394   0.54733   0.20952   0.00000  Uiso   1.00
O290   O     0.33960   0.55088   0.24947   0.00000  Uiso   1.00
O291   O     0.37061   0.57864   0.18929   0.00000  Uiso   1.00
H292   H     0.38475   0.60248   0.21126   0.00000  Uiso   1.00
C293   C     0.43687   0.37022   0.09180   0.00000  Uiso   1.00
O294   O     0.45845   0.38286   0.06080   0.00000  Uiso   1.00
O295   O     0.38216   0.36872   0.08838   0.00000  Uiso   1.00
H296   H     0.36438   0.37813   0.05809   0.00000  Uiso   1.00
C297   C     0.56109   0.63018   0.24270   0.00000  Uiso   1.00
O298   O     0.53921   0.62095   0.27481   0.00000  Uiso   1.00
O299   O     0.61543   0.62809   0.24540   0.00000  Uiso   1.00
H300   H     0.63261   0.61899   0.27605   0.00000  Uiso   1.00
N301   N     0.43056   0.61888   0.09880   0.00000  Uiso   1.00
H302   H     0.40878   0.59672   0.11402   0.00000  Uiso   1.00
H303   H     0.45166   0.60454   0.07613   0.00000  Uiso   1.00
N304   N     0.56944   0.38115   0.23441   0.00000  Uiso   1.00
H305   H     0.59128   0.40311   0.21897   0.00000  Uiso   1.00
H306   H     0.54868   0.39572   0.25718   0.00000  Uiso   1.00
C307   C     0.58480   0.54176   0.05922   0.00000  Uiso   1.00
O308   O     0.62951   0.53056   0.06015   0.00000  Uiso   1.00
O309   O     0.57614   0.57784   0.08306   0.00000  Uiso   1.00
H310   H     0.60956   0.59086   0.10149   0.00000  Uiso   1.00
C311   C     0.41541   0.45810   0.27402   0.00000  Uiso   1.00
O312   O     0.37061   0.46944   0.27164   0.00000  Uiso   1.00
O313   O     0.42477   0.42144   0.25158   0.00000  Uiso   1.00
H314   H     0.39176   0.40808   0.23282   0.00000  Uiso   1.00
N315   N     0.58654   0.53556   0.29988   0.00000  Uiso   1.00
H316   H     0.57466   0.55160   0.27083   0.00000  Uiso   1.00
H317   H     0.60912   0.51102   0.29268   0.00000  Uiso   1.00
N318   N     0.41385   0.46578   0.03598   0.00000  Uiso   1.00
H319   H     0.38245   0.48422   0.02528   0.00000  Uiso   1.00
H320   H     0.40385   0.43588   0.02231   0.00000  Uiso   1.00
C321   C     0.83343   0.42018   0.16606   0.00000  Uiso   1.00
C322   C     0.83319   0.57984   0.16729   0.00000  Uiso   1.00
C323   C     0.73389   0.49836   0.15492   0.00000  Uiso   1.00
C324   C     0.93278   0.50170   0.17841   0.00000  Uiso   1.00
C325   C     0.67894   0.49047   0.15105   0.00000  Uiso   1.00
C326   C     0.98774   0.50952   0.18226   0.00000  Uiso   1.00
C327   C     0.80185   0.35206   0.13095   0.00000  Uiso   1.00
C328   C     0.86395   0.64807   0.20280   0.00000  Uiso   1.00
C329   C     0.79969   0.64268   0.13286   0.00000  Uiso   1.00
C330   C     0.86657   0.35739   0.20059   0.00000  Uiso   1.00
C331   C     0.83171   0.62404   0.16825   0.00000  Uiso   1.00
C332   C     0.83464   0.37602   0.16518   0.00000  Uiso   1.00
C333   C     0.87404   0.51900   0.02978   0.00000  Uiso   1.00
C334   C     0.79222   0.48135   0.30363   0.00000  Uiso   1.00
C335   C     0.87449   0.51810   0.31566   0.00000  Uiso   1.00
C336   C     0.79185   0.48232   0.01817   0.00000  Uiso   1.00
N337   N     0.83332   0.49999   0.28573   0.00000  Uiso   1.00
N338   N     0.83335   0.50001   0.04760   0.00000  Uiso   1.00
O339   O     0.83333   0.43892   0.20487   0.00000  Uiso   1.00
O340   O     0.83334   0.56108   0.12846   0.00000  Uiso   1.00
O341   O     0.83333   0.43893   0.12843   0.00000  Uiso   1.00
O342   O     0.83334   0.56107   0.20490   0.00000  Uiso   1.00
O343   O     0.75725   0.50000   0.19595   0.00000  Uiso   1.00
O344   O     0.90942   0.50000   0.13739   0.00000  Uiso   1.00
O345   O     0.75725   0.50000   0.11950   0.00000  Uiso   1.00
O346   O     0.90942   0.50000   0.21383   0.00000  Uiso   1.00
Zn347  Zn    0.83333   0.49999   0.21771   0.00000  Uiso   1.00
Zn348  Zn    0.83333   0.50001   0.11563   0.00000  Uiso   1.00
C349   C     0.98949   0.45281   0.12346   0.00000  Uiso   1.00
O350   O     0.99597   0.44876   0.08406   0.00000  Uiso   1.00
O351   O     0.96085   0.42207   0.14277   0.00000  Uiso   1.00
H352   H     0.94717   0.39825   0.12063   0.00000  Uiso   1.00
C353   C     0.67727   0.54733   0.20952   0.00000  Uiso   1.00
O354   O     0.67294   0.55088   0.24947   0.00000  Uiso   1.00
O355   O     0.70395   0.57864   0.18929   0.00000  Uiso   1.00
H356   H     0.71809   0.60248   0.21126   0.00000  Uiso   1.00
C357   C     0.77020   0.37022   0.09180   0.00000  Uiso   1.00
O358   O     0.79178   0.38286   0.06080   0.00000  Uiso   1.00
O359   O     0.71549   0.36872   0.08838   0.00000  Uiso   1.00
H360   H     0.69771   0.37813   0.05809   0.00000  Uiso   1.00
C361   C     0.89442   0.63018   0.24270   0.00000  Uiso   1.00
O362   O     0.87254   0.62095   0.27481   0.00000  Uiso   1.00
O363   O     0.94876   0.62809   0.24540   0.00000  Uiso   1.00
H364   H     0.96594   0.61899   0.27605   0.00000  Uiso   1.00
N365   N     0.76389   0.61888   0.09880   0.00000  Uiso   1.00
H366   H     0.74211   0.59672   0.11402   0.00000  Uiso   1.00
H367   H     0.78499   0.60454   0.07613   0.00000  Uiso   1.00
N368   N     0.90277   0.38115   0.23441   0.00000  Uiso   1.00
H369   H     0.92461   0.40311   0.21897   0.00000  Uiso   1.00
H370   H     0.88201   0.39572   0.25718   0.00000  Uiso   1.00
C371   C     0.91813   0.54176   0.05922   0.00000  Uiso   1.00
O372   O     0.96285   0.53056   0.06015   0.00000  Uiso   1.00
O373   O     0.90947   0.57784   0.08306   0.00000  Uiso   1.00
H374   H     0.94290   0.59086   0.10149   0.00000  Uiso   1.00
C375   C     0.74874   0.45810   0.27402   0.00000  Uiso   1.00
O376   O     0.70394   0.46944   0.27164   0.00000  Uiso   1.00
O377   O     0.75810   0.42144   0.25158   0.00000  Uiso   1.00
H378   H     0.72509   0.40808   0.23282   0.00000  Uiso   1.00
N379   N     0.91987   0.53556   0.29988   0.00000  Uiso   1.00
H380   H     0.90799   0.55160   0.27083   0.00000  Uiso   1.00
H381   H     0.94246   0.51102   0.29268   0.00000  Uiso   1.00
N382   N     0.74718   0.46578   0.03598   0.00000  Uiso   1.00
H383   H     0.71579   0.48422   0.02528   0.00000  Uiso   1.00
H384   H     0.73718   0.43588   0.02231   0.00000  Uiso   1.00
C385   C     0.16676   0.75352   0.16606   0.00000  Uiso   1.00
C386   C     0.16652   0.91318   0.16729   0.00000  Uiso   1.00
C387   C     0.06723   0.83169   0.15492   0.00000  Uiso   1.00
C388   C     0.26611   0.83503   0.17841   0.00000  Uiso   1.00
C389   C     0.01227   0.82380   0.15105   0.00000  Uiso   1.00
C390   C     0.32108   0.84286   0.18226   0.00000  Uiso   1.00
C391   C     0.13518   0.68539   0.13095   0.00000  Uiso   1.00
C392   C     0.19729   0.98140   0.20280   0.00000  Uiso   1.00
C393   C     0.13302   0.97601   0.13286   0.00000  Uiso   1.00
C394   C     0.19991   0.69073   0.20059   0.00000  Uiso   1.00
C395   C     0.16505   0.95737   0.16825   0.00000  Uiso   1.00
C396   C     0.16797   0.70935   0.16518   0.00000  Uiso   1.00
C397   C     0.20737   0.85234   0.02978   0.00000  Uiso   1.00
C398   C     0.12555   0.81468   0.30363   0.00000  Uiso   1.00
C399   C     0.20782   0.85144   0.31566   0.00000  Uiso   1.00
C400   C     0.12518   0.81566   0.01817   0.00000  Uiso   1.00
N401   N     0.16665   0.83332   0.28573   0.00000  Uiso   1.00
N402   N     0.16668   0.83334   0.04760   0.00000  Uiso   1.00
O403   O     0.16666   0.77225   0.20487   0.00000  Uiso   1.00
O404   O     0.16667   0.89442   0.12846   0.00000  Uiso   1.00
O405   O     0.16666   0.77226   0.12843   0.00000  Uiso   1.00
O406   O     0.16667   0.89441   0.20490   0.00000  Uiso   1.00
O407   O     0.09058   0.83333   0.19595   0.00000  Uiso   1.00
O408   O     0.24275   0.83334   0.13739   0.00000  Uiso   1.00
O409   O     0.09058   0.83334   0.11950   0.00000  Uiso   1.00
O410   O     0.24275   0.83333   0.21383   0.00000  Uiso   1.00
Zn411  Zn    0.16667   0.83333   0.21771   0.00000  Uiso   1.00
Zn412  Zn    0.16667   0.83334   0.11563   0.00000  Uiso   1.00
C413   C     0.32283   0.78615   0.12346   0.00000  Uiso   1.00
O414   O     0.32931   0.78209   0.08406   0.00000  Uiso   1.00
O415   O     0.29418   0.75540   0.14277   0.00000  Uiso   1.00
H416   H     0.28051   0.73158   0.12063   0.00000  Uiso   1.00
C417   C     0.01060   0.88066   0.20952   0.00000  Uiso   1.00
O418   O     0.00627   0.88421   0.24947   0.00000  Uiso   1.00
O419   O     0.03728   0.91197   0.18929   0.00000  Uiso   1.00
H420   H     0.05142   0.93581   0.21126   0.00000  Uiso   1.00
C421   C     0.10353   0.70355   0.09180   0.00000  Uiso   1.00
O422   O     0.12511   0.71619   0.06080   0.00000  Uiso   1.00
O423   O     0.04882   0.70205   0.08838   0.00000  Uiso   1.00
H424   H     0.03105   0.71146   0.05809   0.00000  Uiso   1.00
C425   C     0.22775   0.96351   0.24270   0.00000  Uiso   1.00
O426   O     0.20587   0.95428   0.27481   0.00000  Uiso   1.00
O427   O     0.28210   0.96142   0.24540   0.00000  Uiso   1.00
H428   H     0.29927   0.95232   0.27605   0.00000  Uiso   1.00
N429   N     0.09723   0.95222   0.09880   0.00000  Uiso   1.00
H430   H     0.07544   0.93005   0.11402   0.00000  Uiso   1.00
H431   H     0.11833   0.93788   0.07613   0.00000  Uiso   1.00
N432   N     0.23610   0.71449   0.23441   0.00000  Uiso   1.00
H433   H     0.25794   0.73645   0.21897   0.00000  Uiso   1.00
H434   H     0.21534   0.72906   0.25718   0.00000  Uiso   1.00
C435   C     0.25146   0.87510   0.05922   0.00000  Uiso   1.00
O436   O     0.29618   0.86389   0.06015   0.00000  Uiso   1.00
O437   O     0.24280   0.91117   0.08306   0.00000  Uiso   1.00
H438   H     0.27623   0.92419   0.10149   0.00000  Uiso   1.00
C439   C     0.08208   0.79144   0.27402   0.00000  Uiso   1.00
O440   O     0.03727   0.80277   0.27164   0.00000  Uiso   1.00
O441   O     0.09144   0.75477   0.25158   0.00000  Uiso   1.00
H442   H     0.05843   0.74141   0.23282   0.00000  Uiso   1.00
N443   N     0.25320   0.86889   0.29988   0.00000  Uiso   1.00
H444   H     0.24132   0.88493   0.27083   0.00000  Uiso   1.00
H445   H     0.27579   0.84436   0.29268   0.00000  Uiso   1.00
N446   N     0.08051   0.79912   0.03598   0.00000  Uiso   1.00
H447   H     0.04912   0.81755   0.02528   0.00000  Uiso   1.00
H448   H     0.07051   0.76921   0.02231   0.00000  Uiso   1.00
C449   C     0.50010   0.75352   0.16606   0.00000  Uiso   1.00
C450   C     0.49985   0.91318   0.16729   0.00000  Uiso   1.00
C451   C     0.40056   0.83169   0.15492   0.00000  Uiso   1.00
C452   C     0.59945   0.83503   0.17841   0.00000  Uiso   1.00
C453   C     0.34560   0.82380   0.15105   0.00000  Uiso   1.00
C454   C     0.65441   0.84286   0.18226   0.00000  Uiso   1.00
C455   C     0.46852   0.68539   0.13095   0.00000  Uiso   1.00
C456   C     0.53062   0.98140   0.20280   0.00000  Uiso   1.00
C457   C     0.46635   0.97601   0.13286   0.00000  Uiso   1.00
C458   C     0.53324   0.69073   0.20059   0.00000  Uiso   1.00
C459   C     0.49838   0.95737   0.16825   0.00000  Uiso   1.00
C460   C     0.50130   0.70935   0.16518   0.00000  Uiso   1.00
C461   C     0.54071   0.85234   0.02978   0.00000  Uiso   1.00
C462   C     0.45888   0.81468   0.30363   0.00000  Uiso   1.00
C463   C     0.54116   0.85144   0.31566   0.00000  Uiso   1.00
C464   C     0.45851   0.81566   0.01817   0.00000  Uiso   1.00
N465   N     0.49999   0.83332   0.28573   0.00000  Uiso   1.00
N466   N     0.50001   0.83334   0.04760   0.00000  Uiso   1.00
O467   O     0.50000   0.77225   0.20487   0.00000  Uiso   1.00
O468   O     0.50000   0.89442   0.12846   0.00000  Uiso   1.00
O469   O     0.50000   0.77226   0.12843   0.00000  Uiso   1.00
O470   O     0.50000   0.89441   0.20490   0.00000  Uiso   1.00
O471   O     0.42392   0.83333   0.19595   0.00000  Uiso   1.00
O472   O     0.57608   0.83334   0.13739   0.00000  Uiso   1.00
O473   O     0.42392   0.83334   0.11950   0.00000  Uiso   1.00
O474   O     0.57608   0.83333   0.21383   0.00000  Uiso   1.00
Zn475  Zn    0.50000   0.83333   0.21771   0.00000  Uiso   1.00
Zn476  Zn    0.50000   0.83334   0.11563   0.00000  Uiso   1.00
C477   C     0.65616   0.78615   0.12346   0.00000  Uiso   1.00
O478   O     0.66264   0.78209   0.08406   0.00000  Uiso   1.00
O479   O     0.62752   0.75540   0.14277   0.00000  Uiso   1.00
H480   H     0.61384   0.73158   0.12063   0.00000  Uiso   1.00
C481   C     0.34394   0.88066   0.20952   0.00000  Uiso   1.00
O482   O     0.33960   0.88421   0.24947   0.00000  Uiso   1.00
O483   O     0.37061   0.91197   0.18929   0.00000  Uiso   1.00
H484   H     0.38475   0.93581   0.21126   0.00000  Uiso   1.00
C485   C     0.43687   0.70355   0.09180   0.00000  Uiso   1.00
O486   O     0.45845   0.71619   0.06080   0.00000  Uiso   1.00
O487   O     0.38216   0.70205   0.08838   0.00000  Uiso   1.00
H488   H     0.36438   0.71146   0.05809   0.00000  Uiso   1.00
C489   C     0.56109   0.96351   0.24270   0.00000  Uiso   1.00
O490   O     0.53921   0.95428   0.27481   0.00000  Uiso   1.00
O491   O     0.61543   0.96142   0.24540   0.00000  Uiso   1.00
H492   H     0.63261   0.95232   0.27605   0.00000  Uiso   1.00
N493   N     0.43056   0.95222   0.09880   0.00000  Uiso   1.00
H494   H     0.40878   0.93005   0.11402   0.00000  Uiso   1.00
H495   H     0.45166   0.93788   0.07613   0.00000  Uiso   1.00
N496   N     0.56944   0.71449   0.23441   0.00000  Uiso   1.00
H497   H     0.59128   0.73645   0.21897   0.00000  Uiso   1.00
H498   H     0.54868   0.72906   0.25718   0.00000  Uiso   1.00
C499   C     0.58480   0.87510   0.05922   0.00000  Uiso   1.00
O500   O     0.62951   0.86389   0.06015   0.00000  Uiso   1.00
O501   O     0.57614   0.91117   0.08306   0.00000  Uiso   1.00
H502   H     0.60956   0.92419   0.10149   0.00000  Uiso   1.00
C503   C     0.41541   0.79144   0.27402   0.00000  Uiso   1.00
O504   O     0.37061   0.80277   0.27164   0.00000  Uiso   1.00
O505   O     0.42477   0.75477   0.25158   0.00000  Uiso   1.00
H506   H     0.39176   0.74141   0.23282   0.00000  Uiso   1.00
N507   N     0.58654   0.86889   0.29988   0.00000  Uiso   1.00
H508   H     0.57466   0.88493   0.27083   0.00000  Uiso   1.00
H509   H     0.60912   0.84436   0.29268   0.00000  Uiso   1.00
N510   N     0.41385   0.79912   0.03598   0.00000  Uiso   1.00
H511   H     0.38245   0.81755   0.02528   0.00000  Uiso   1.00
H512   H     0.40385   0.76921   0.02231   0.00000  Uiso   1.00
C513   C     0.83343   0.75352   0.16606   0.00000  Uiso   1.00
C514   C     0.83319   0.91318   0.16729   0.00000  Uiso   1.00
C515   C     0.73389   0.83169   0.15492   0.00000  Uiso   1.00
C516   C     0.93278   0.83503   0.17841   0.00000  Uiso   1.00
C517   C     0.67894   0.82380   0.15105   0.00000  Uiso   1.00
C518   C     0.98774   0.84286   0.18226   0.00000  Uiso   1.00
C519   C     0.80185   0.68539   0.13095   0.00000  Uiso   1.00
C520   C     0.86395   0.98140   0.20280   0.00000  Uiso   1.00
C521   C     0.79969   0.97601   0.13286   0.00000  Uiso   1.00
C522   C     0.86657   0.69073   0.20059   0.00000  Uiso   1.00
C523   C     0.83171   0.95737   0.16825   0.00000  Uiso   1.00
C524   C     0.83464   0.70935   0.16518   0.00000  Uiso   1.00
C525   C     0.87404   0.85234   0.02978   0.00000  Uiso   1.00
C526   C     0.79222   0.81468   0.30363   0.00000  Uiso   1.00
C527   C     0.87449   0.85144   0.31566   0.00000  Uiso   1.00
C528   C     0.79185   0.81566   0.01817   0.00000  Uiso   1.00
N529   N     0.83332   0.83332   0.28573   0.00000  Uiso   1.00
N530   N     0.83335   0.83334   0.04760   0.00000  Uiso   1.00
O531   O     0.83333   0.77225   0.20487   0.00000  Uiso   1.00
O532   O     0.83334   0.89442   0.12846   0.00000  Uiso   1.00
O533   O     0.83333   0.77226   0.12843   0.00000  Uiso   1.00
O534   O     0.83334   0.89441   0.20490   0.00000  Uiso   1.00
O535   O     0.75725   0.83333   0.19595   0.00000  Uiso   1.00
O536   O     0.90942   0.83334   0.13739   0.00000  Uiso   1.00
O537   O     0.75725   0.83334   0.11950   0.00000  Uiso   1.00
O538   O     0.90942   0.83333   0.21383   0.00000  Uiso   1.00
Zn539  Zn    0.83333   0.83333   0.21771   0.00000  Uiso   1.00
Zn540  Zn    0.83333   0.83334   0.11563   0.00000  Uiso   1.00
C541   C     0.98949   0.78615   0.12346   0.00000  Uiso   1.00
O542   O     0.99597   0.78209   0.08406   0.00000  Uiso   1.00
O543   O     0.96085   0.75540   0.14277   0.00000  Uiso   1.00
H544   H     0.94717   0.73158   0.12063   0.00000  Uiso   1.00
C545   C     0.67727   0.88066   0.20952   0.00000  Uiso   1.00
O546   O     0.67294   0.88421   0.24947   0.00000  Uiso   1.00
O547   O     0.70395   0.91197   0.18929   0.00000  Uiso   1.00
H548   H     0.71809   0.93581   0.21126   0.00000  Uiso   1.00
C549   C     0.77020   0.70355   0.09180   0.00000  Uiso   1.00
O550   O     0.79178   0.71619   0.06080   0.00000  Uiso   1.00
O551   O     0.71549   0.70205   0.08838   0.00000  Uiso   1.00
H552   H     0.69771   0.71146   0.05809   0.00000  Uiso   1.00
C553   C     0.89442   0.96351   0.24270   0.00000  Uiso   1.00
O554   O     0.87254   0.95428   0.27481   0.00000  Uiso   1.00
O555   O     0.94876   0.96142   0.24540   0.00000  Uiso   1.00
H556   H     0.96594   0.95232   0.27605   0.00000  Uiso   1.00
N557   N     0.76389   0.95222   0.09880   0.00000  Uiso   1.00
H558   H     0.74211   0.93005   0.11402   0.00000  Uiso   1.00
H559   H     0.78499   0.93788   0.07613   0.00000  Uiso   1.00
N560   N     0.90277   0.71449   0.23441   0.00000  Uiso   1.00
H561   H     0.92461   0.73645   0.21897   0.00000  Uiso   1.00
H562   H     0.88201   0.72906   0.25718   0.00000  Uiso   1.00
C563   C     0.91813   0.87510   0.05922   0.00000  Uiso   1.00
O564   O     0.96285   0.86389   0.06015   0.00000  Uiso   1.00
O565   O     0.90947   0.91117   0.08306   0.00000  Uiso   1.00
H566   H     0.94290   0.92419   0.10149   0.00000  Uiso   1.00
C567   C     0.74874   0.79144   0.27402   0.00000  Uiso   1.00
O568   O     0.70394   0.80277   0.27164   0.00000  Uiso   1.00
O569   O     0.75810   0.75477   0.25158   0.00000  Uiso   1.00
H570   H     0.72509   0.74141   0.23282   0.00000  Uiso   1.00
N571   N     0.91987   0.86889   0.29988   0.00000  Uiso   1.00
H572   H     0.90799   0.88493   0.27083   0.00000  Uiso   1.00
H573   H     0.94246   0.84436   0.29268   0.00000  Uiso   1.00
N574   N     0.74718   0.79912   0.03598   0.00000  Uiso   1.00
H575   H     0.71579   0.81755   0.02528   0.00000  Uiso   1.00
H576   H     0.73718   0.76921   0.02231   0.00000  Uiso   1.00
C577   C     0.16676   0.08685   0.49939   0.00000  Uiso   1.00
C578   C     0.16652   0.24651   0.50063   0.00000  Uiso   1.00
C579   C     0.06723   0.16503   0.48826   0.00000  Uiso   1.00
C580   C     0.26611   0.16837   0.51174   0.00000  Uiso   1.00
C581   C     0.01227   0.15713   0.48438   0.00000  Uiso   1.00
C582   C     0.32108   0.17619   0.51559   0.00000  Uiso   1.00
C583   C     0.13518   0.01873   0.46428   0.00000  Uiso   1.00
C584   C     0.19729   0.31474   0.53613   0.00000  Uiso   1.00
C585   C     0.13302   0.30935   0.46620   0.00000  Uiso   1.00
C586   C     0.19991   0.02406   0.53392   0.00000  Uiso   1.00
C587   C     0.16505   0.29071   0.50158   0.00000  Uiso   1.00
C588   C     0.16797   0.04269   0.49851   0.00000  Uiso   1.00
C589   C     0.20737   0.18567   0.36311   0.00000  Uiso   1.00
C590   C     0.12555   0.14801   0.63697   0.00000  Uiso   1.00
C591   C     0.20782   0.18477   0.64899   0.00000  Uiso   1.00
C592   C     0.12518   0.14899   0.35150   0.00000  Uiso   1.00
N593   N     0.16665   0.16666   0.61907   0.00000  Uiso   1.00
N594   N     0.16668   0.16668   0.38093   0.00000  Uiso   1.00
O595   O     0.16666   0.10558   0.53821   0.00000  Uiso   1.00
O596   O     0.16667   0.22775   0.46179   0.00000  Uiso   1.00
O597   O     0.16666   0.10559   0.46176   0.00000  Uiso   1.00
O598   O     0.16667   0.22774   0.53824   0.00000  Uiso   1.00
O599   O     0.09058   0.16666   0.52928   0.00000  Uiso   1.00
O600   O     0.24275   0.16667   0.47072   0.00000  Uiso   1.00
O601   O     0.09058   0.16667   0.45284   0.00000  Uiso   1.00
O602   O     0.24275   0.16666   0.54716   0.00000  Uiso   1.00
Zn603  Zn    0.16667   0.16666   0.55104   0.00000  Uiso   1.00
Zn604  Zn    0.16667   0.16667   0.44896   0.00000  Uiso   1.00
C605   C     0.32283   0.11948   0.45679   0.00000  Uiso   1.00
O606   O     0.32931   0.11542   0.41739   0.00000  Uiso   1.00
O607   O     0.29418   0.08874   0.47611   0.00000  Uiso   1.00
H608   H     0.28051   0.06491   0.45397   0.00000  Uiso   1.00
C609   C     0.01060   0.21399   0.54285   0.00000  Uiso   1.00
O610   O     0.00627   0.21755   0.58280   0.00000  Uiso   1.00
O611   O     0.03728   0.24530   0.52263   0.00000  Uiso   1.00
H612   H     0.05142   0.26914   0.54459   0.00000  Uiso   1.00
C613   C     0.10353   0.03689   0.42513   0.00000  Uiso   1.00
O614   O     0.12511   0.04953   0.39413   0.00000  Uiso   1.00
O615   O     0.04882   0.03539   0.42171   0.00000  Uiso   1.00
H616   H     0.03105   0.04480   0.39142   0.00000  Uiso   1.00
C617   C     0.22775   0.29685   0.57603   0.00000  Uiso   1.00
O618   O     0.20587   0.28762   0.60814   0.00000  Uiso   1.00
O619   O     0.28210   0.29475   0.57874   0.00000  Uiso   1.00
H620   H     0.29927   0.28566   0.60938   0.00000  Uiso   1.00
N621   N     0.09723   0.28555   0.43213   0.00000  Uiso   1.00
H622   H     0.07544   0.26338   0.44735   0.00000  Uiso   1.00
H623   H     0.11833   0.27121   0.40946   0.00000  Uiso   1.00
N624   N     0.23610   0.04782   0.56774   0.00000  Uiso   1.00
H625   H     0.25794   0.06978   0.55230   0.00000  Uiso   1.00
H626   H     0.21534   0.06239   0.59052   0.00000  Uiso   1.00
C627   C     0.25146   0.20843   0.39255   0.00000  Uiso   1.00
O628   O     0.29618   0.19723   0.39348   0.00000  Uiso   1.00
O629   O     0.24280   0.24451   0.41639   0.00000  Uiso   1.00
H630   H     0.27623   0.25753   0.43482   0.00000  Uiso   1.00
C631   C     0.08208   0.12477   0.60735   0.00000  Uiso   1.00
O632   O     0.03727   0.13611   0.60498   0.00000  Uiso   1.00
O633   O     0.09144   0.08811   0.58491   0.00000  Uiso   1.00
H634   H     0.05843   0.07475   0.56616   0.00000  Uiso   1.00
N635   N     0.25320   0.20223   0.63321   0.00000  Uiso   1.00
H636   H     0.24132   0.21827   0.60417   0.00000  Uiso   1.00
H637   H     0.27579   0.17769   0.62601   0.00000  Uiso   1.00
N638   N     0.08051   0.13245   0.36932   0.00000  Uiso   1.00
H639   H     0.04912   0.15089   0.35862   0.00000  Uiso   1.00
H640   H     0.07051   0.10254   0.35564   0.00000  Uiso   1.00
C641   C     0.50010   0.08685   0.49939   0.00000  Uiso   1.00
C642   C     0.49985   0.24651   0.50063   0.00000  Uiso   1.00
C643   C     0.40056   0.16503   0.48826   0.00000  Uiso   1.00
C644   C     0.59945   0.16837   0.51174   0.00000  Uiso   1.00
C645   C     0.34560   0.15713   0.48438   0.00000  Uiso   1.00
C646   C     0.65441   0.17619   0.51559   0.00000  Uiso   1.00
C647   C     0.46852   0.01873   0.46428   0.00000  Uiso   1.00
C648   C     0.53062   0.31474   0.53613   0.00000  Uiso   1.00
C649   C     0.46635   0.30935   0.46620   0.00000  Uiso   1.00
C650   C     0.53324   0.02406   0.53392   0.00000  Uiso   1.00
C651   C     0.49838   0.29071   0.50158   0.00000  Uiso   1.00
C652   C     0.50130   0.04269   0.49851   0.00000  Uiso   1.00
C653   C     0.54071   0.18567   0.36311   0.00000  Uiso   1.00
C654   C     0.45888   0.14801   0.63697   0.00000  Uiso   1.00
C655   C     0.54116   0.18477   0.64899   0.00000  Uiso   1.00
C656   C     0.45851   0.14899   0.35150   0.00000  Uiso   1.00
N657   N     0.49999   0.16666   0.61907   0.00000  Uiso   1.00
N658   N     0.50001   0.16668   0.38093   0.00000  Uiso   1.00
O659   O     0.50000   0.10558   0.53821   0.00000  Uiso   1.00
O660   O     0.50000   0.22775   0.46179   0.00000  Uiso   1.00
O661   O     0.50000   0.10559   0.46176   0.00000  Uiso   1.00
O662   O     0.50000   0.22774   0.53824   0.00000  Uiso   1.00
O663   O     0.42392   0.16666   0.52928   0.00000  Uiso   1.00
O664   O     0.57608   0.16667   0.47072   0.00000  Uiso   1.00
O665   O     0.42392   0.16667   0.45284   0.00000  Uiso   1.00
O666   O     0.57608   0.16666   0.54716   0.00000  Uiso   1.00
Zn667  Zn    0.50000   0.16666   0.55104   0.00000  Uiso   1.00
Zn668  Zn    0.50000   0.16667   0.44896   0.00000  Uiso   1.00
C669   C     0.65616   0.11948   0.45679   0.00000  Uiso   1.00
O670   O     0.66264   0.11542   0.41739   0.00000  Uiso   1.00
O671   O     0.62752   0.08874   0.47611   0.00000  Uiso   1.00
H672   H     0.61384   0.06491   0.45397   0.00000  Uiso   1.00
C673   C     0.34394   0.21399   0.54285   0.00000  Uiso   1.00
O674   O     0.33960   0.21755   0.58280   0.00000  Uiso   1.00
O675   O     0.37061   0.24530   0.52263   0.00000  Uiso   1.00
H676   H     0.38475   0.26914   0.54459   0.00000  Uiso   1.00
C677   C     0.43687   0.03689   0.42513   0.00000  Uiso   1.00
O678   O     0.45845   0.04953   0.39413   0.00000  Uiso   1.00
O679   O     0.38216   0.03539   0.42171   0.00000  Uiso   1.00
H680   H     0.36438   0.04480   0.39142   0.00000  Uiso   1.00
C681   C     0.56109   0.29685   0.57603   0.00000  Uiso   1.00
O682   O     0.53921   0.28762   0.60814   0.00000  Uiso   1.00
O683   O     0.61543   0.29475   0.57874   0.00000  Uiso   1.00
H684   H     0.63261   0.28566   0.60938   0.00000  Uiso   1.00
N685   N     0.43056   0.28555   0.43213   0.00000  Uiso   1.00
H686   H     0.40878   0.26338   0.44735   0.00000  Uiso   1.00
H687   H     0.45166   0.27121   0.40946   0.00000  Uiso   1.00
N688   N     0.56944   0.04782   0.56774   0.00000  Uiso   1.00
H689   H     0.59128   0.06978   0.55230   0.00000  Uiso   1.00
H690   H     0.54868   0.06239   0.59052   0.00000  Uiso   1.00
C691   C     0.58480   0.20843   0.39255   0.00000  Uiso   1.00
O692   O     0.62951   0.19723   0.39348   0.00000  Uiso   1.00
O693   O     0.57614   0.24451   0.41639   0.00000  Uiso   1.00
H694   H     0.60956   0.25753   0.43482   0.00000  Uiso   1.00
C695   C     0.41541   0.12477   0.60735   0.00000  Uiso   1.00
O696   O     0.37061   0.13611   0.60498   0.00000  Uiso   1.00
O697   O     0.42477   0.08811   0.58491   0.00000  Uiso   1.00
H698   H     0.39176   0.07475   0.56616   0.00000  Uiso   1.00
N699   N     0.58654   0.20223   0.63321   0.00000  Uiso   1.00
H700   H     0.57466   0.21827   0.60417   0.00000  Uiso   1.00
H701   H     0.60912   0.17769   0.62601   0.00000  Uiso   1.00
N702   N     0.41385   0.13245   0.36932   0.00000  Uiso   1.00
H703   H     0.38245   0.15089   0.35862   0.00000  Uiso   1.00
H704   H     0.40385   0.10254   0.35564   0.00000  Uiso   1.00
C705   C     0.83343   0.08685   0.49939   0.00000  Uiso   1.00
C706   C     0.83319   0.24651   0.50063   0.00000  Uiso   1.00
C707   C     0.73389   0.16503   0.48826   0.00000  Uiso   1.00
C708   C     0.93278   0.16837   0.51174   0.00000  Uiso   1.00
C709   C     0.67894   0.15713   0.48438   0.00000  Uiso   1.00
C710   C     0.98774   0.17619   0.51559   0.00000  Uiso   1.00
C711   C     0.80185   0.01873   0.46428   0.00000  Uiso   1.00
C712   C     0.86395   0.31474   0.53613   0.00000  Uiso   1.00
C713   C     0.79969   0.30935   0.46620   0.00000  Uiso   1.00
C714   C     0.86657   0.02406   0.53392   0.00000  Uiso   1.00
C715   C     0.83171   0.29071   0.50158   0.00000  Uiso   1.00
C716   C     0.83464   0.04269   0.49851   0.00000  Uiso   1.00
C717   C     0.87404   0.18567   0.36311   0.00000  Uiso   1.00
C718   C     0.79222   0.14801   0.63697   0.00000  Uiso   1.00
C719   C     0.87449   0.18477   0.64899   0.00000  Uiso   1.00
C720   C     0.79185   0.14899   0.35150   0.00000  Uiso   1.00
N721   N     0.83332   0.16666   0.61907   0.00000  Uiso   1.00
N722   N     0.83335   0.16668   0.38093   0.00000  Uiso   1.00
O723   O     0.83333   0.10558   0.53821   0.00000  Uiso   1.00
O724   O     0.83334   0.22775   0.46179   0.00000  Uiso   1.00
O725   O     0.83333   0.10559   0.46176   0.00000  Uiso   1.00
O726   O     0.83334   0.22774   0.53824   0.00000  Uiso   1.00
O727   O     0.75725   0.16666   0.52928   0.00000  Uiso   1.00
O728   O     0.90942   0.16667   0.47072   0.00000  Uiso   1.00
O729   O     0.75725   0.16667   0.45284   0.00000  Uiso   1.00
O730   O     0.90942   0.16666   0.54716   0.00000  Uiso   1.00
Zn731  Zn    0.83333   0.16666   0.55104   0.00000  Uiso   1.00
Zn732  Zn    0.83333   0.16667   0.44896   0.00000  Uiso   1.00
C733   C     0.98949   0.11948   0.45679   0.00000  Uiso   1.00
O734   O     0.99597   0.11542   0.41739   0.00000  Uiso   1.00
O735   O     0.96085   0.08874   0.47611   0.00000  Uiso   1.00
H736   H     0.94717   0.06491   0.45397   0.00000  Uiso   1.00
C737   C     0.67727   0.21399   0.54285   0.00000  Uiso   1.00
O738   O     0.67294   0.21755   0.58280   0.00000  Uiso   1.00
O739   O     0.70395   0.24530   0.52263   0.00000  Uiso   1.00
H740   H     0.71809   0.26914   0.54459   0.00000  Uiso   1.00
C741   C     0.77020   0.03689   0.42513   0.00000  Uiso   1.00
O742   O     0.79178   0.04953   0.39413   0.00000  Uiso   1.00
O743   O     0.71549   0.03539   0.42171   0.00000  Uiso   1.00
H744   H     0.69771   0.04480   0.39142   0.00000  Uiso   1.00
C745   C     0.89442   0.29685   0.57603   0.00000  Uiso   1.00
O746   O     0.87254   0.28762   0.60814   0.00000  Uiso   1.00
O747   O     0.94876   0.29475   0.57874   0.00000  Uiso   1.00
H748   H     0.96594   0.28566   0.60938   0.00000  Uiso   1.00
N749   N     0.76389   0.28555   0.43213   0.00000  Uiso   1.00
H750   H     0.74211   0.26338   0.44735   0.00000  Uiso   1.00
H751   H     0.78499   0.27121   0.40946   0.00000  Uiso   1.00
N752   N     0.90277   0.04782   0.56774   0.00000  Uiso   1.00
H753   H     0.92461   0.06978   0.55230   0.00000  Uiso   1.00
H754   H     0.88201   0.06239   0.59052   0.00000  Uiso   1.00
C755   C     0.91813   0.20843   0.39255   0.00000  Uiso   1.00
O756   O     0.96285   0.19723   0.39348   0.00000  Uiso   1.00
O757   O     0.90947   0.24451   0.41639   0.00000  Uiso   1.00
H758   H     0.94290   0.25753   0.43482   0.00000  Uiso   1.00
C759   C     0.74874   0.12477   0.60735   0.00000  Uiso   1.00
O760   O     0.70394   0.13611   0.60498   0.00000  Uiso   1.00
O761   O     0.75810   0.08811   0.58491   0.00000  Uiso   1.00
H762   H     0.72509   0.07475   0.56616   0.00000  Uiso   1.00
N763   N     0.91987   0.20223   0.63321   0.00000  Uiso   1.00
H764   H     0.90799   0.21827   0.60417   0.00000  Uiso   1.00
H765   H     0.94246   0.17769   0.62601   0.00000  Uiso   1.00
N766   N     0.74718   0.13245   0.36932   0.00000  Uiso   1.00
H767   H     0.71579   0.15089   0.35862   0.00000  Uiso   1.00
H768   H     0.73718   0.10254   0.35564   0.00000  Uiso   1.00
C769   C     0.16676   0.42018   0.49939   0.00000  Uiso   1.00
C770   C     0.16652   0.57984   0.50063   0.00000  Uiso   1.00
C771   C     0.06723   0.49836   0.48826   0.00000  Uiso   1.00
C772   C     0.26611   0.50170   0.51174   0.00000  Uiso   1.00
C773   C     0.01227   0.49047   0.48438   0.00000  Uiso   1.00
C774   C     0.32108   0.50952   0.51559   0.00000  Uiso   1.00
C775   C     0.13518   0.35206   0.46428   0.00000  Uiso   1.00
C776   C     0.19729   0.64807   0.53613   0.00000  Uiso   1.00
C777   C     0.13302   0.64268   0.46620   0.00000  Uiso   1.00
C778   C     0.19991   0.35739   0.53392   0.00000  Uiso   1.00
C779   C     0.16505   0.62404   0.50158   0.00000  Uiso   1.00
C780   C     0.16797   0.37602   0.49851   0.00000  Uiso   1.00
C781   C     0.20737   0.51900   0.36311   0.00000  Uiso   1.00
C782   C     0.12555   0.48135   0.63697   0.00000  Uiso   1.00
C783   C     0.20782   0.51810   0.64899   0.00000  Uiso   1.00
C784   C     0.12518   0.48232   0.35150   0.00000  Uiso   1.00
N785   N     0.16665   0.49999   0.61907   0.00000  Uiso   1.00
N786   N     0.16668   0.50001   0.38093   0.00000  Uiso   1.00
O787   O     0.16666   0.43892   0.53821   0.00000  Uiso   1.00
O788   O     0.16667   0.56108   0.46179   0.00000  Uiso   1.00
O789   O     0.16666   0.43893   0.46176   0.00000  Uiso   1.00
O790   O     0.16667   0.56107   0.53824   0.00000  Uiso   1.00
O791   O     0.09058   0.50000   0.52928   0.00000  Uiso   1.00
O792   O     0.24275   0.50000   0.47072   0.00000  Uiso   1.00
O793   O     0.09058   0.50000   0.45284   0.00000  Uiso   1.00
O794   O     0.24275   0.50000   0.54716   0.00000  Uiso   1.00
Zn795  Zn    0.16667   0.49999   0.55104   0.00000  Uiso   1.00
Zn796  Zn    0.16667   0.50001   0.44896   0.00000  Uiso   1.00
C797   C     0.32283   0.45281   0.45679   0.00000  Uiso   1.00
O798   O     0.32931   0.44876   0.41739   0.00000  Uiso   1.00
O799   O     0.29418   0.42207   0.47611   0.00000  Uiso   1.00
H800   H     0.28051   0.39825   0.45397   0.00000  Uiso   1.00
C801   C     0.01060   0.54733   0.54285   0.00000  Uiso   1.00
O802   O     0.00627   0.55088   0.58280   0.00000  Uiso   1.00
O803   O     0.03728   0.57864   0.52263   0.00000  Uiso   1.00
H804   H     0.05142   0.60248   0.54459   0.00000  Uiso   1.00
C805   C     0.10353   0.37022   0.42513   0.00000  Uiso   1.00
O806   O     0.12511   0.38286   0.39413   0.00000  Uiso   1.00
O807   O     0.04882   0.36872   0.42171   0.00000  Uiso   1.00
H808   H     0.03105   0.37813   0.39142   0.00000  Uiso   1.00
C809   C     0.22775   0.63018   0.57603   0.00000  Uiso   1.00
O810   O     0.20587   0.62095   0.60814   0.00000  Uiso   1.00
O811   O     0.28210   0.62809   0.57874   0.00000  Uiso   1.00
H812   H     0.29927   0.61899   0.60938   0.00000  Uiso   1.00
N813   N     0.09723   0.61888   0.43213   0.00000  Uiso   1.00
H814   H     0.07544   0.59672   0.44735   0.00000  Uiso   1.00
H815   H     0.11833   0.60454   0.40946   0.00000  Uiso   1.00
N816   N     0.23610   0.38115   0.56774   0.00000  Uiso   1.00
H817   H     0.25794   0.40311   0.55230   0.00000  Uiso   1.00
H818   H     0.21534   0.39572   0.59052   0.00000  Uiso   1.00
C819   C     0.25146   0.54176   0.39255   0.00000  Uiso   1.00
O820   O     0.29618   0.53056   0.39348   0.00000  Uiso   1.00
O821   O     0.24280   0.57784   0.41639   0.00000  Uiso   1.00
H822   H     0.27623   0.59086   0.43482   0.00000  Uiso   1.00
C823   C     0.08208   0.45810   0.60735   0.00000  Uiso   1.00
O824   O     0.03727   0.46944   0.60498   0.00000  Uiso   1.00
O825   O     0.09144   0.42144   0.58491   0.00000  Uiso   1.00
H826   H     0.05843   0.40808   0.56616   0.00000  Uiso   1.00
N827   N     0.25320   0.53556   0.63321   0.00000  Uiso   1.00
H828   H     0.24132   0.55160   0.60417   0.00000  Uiso   1.00
H829   H     0.27579   0.51102   0.62601   0.00000  Uiso   1.00
N830   N     0.08051   0.46578   0.36932   0.00000  Uiso   1.00
H831   H     0.04912   0.48422   0.35862   0.00000  Uiso   1.00
H832   H     0.07051   0.43588   0.35564   0.00000  Uiso   1.00
C833   C     0.50010   0.42018   0.49939   0.00000  Uiso   1.00
C834   C     0.49985   0.57984   0.50063   0.00000  Uiso   1.00
C835   C     0.40056   0.49836   0.48826   0.00000  Uiso   1.00
C836   C     0.59945   0.50170   0.51174   0.00000  Uiso   1.00
C837   C     0.34560   0.49047   0.48438   0.00000  Uiso   1.00
C838   C     0.65441   0.50952   0.51559   0.00000  Uiso   1.00
C839   C     0.46852   0.35206   0.46428   0.00000  Uiso   1.00
C840   C     0.53062   0.64807   0.53613   0.00000  Uiso   1.00
C841   C     0.46635   0.64268   0.46620   0.00000  Uiso   1.00
C842   C     0.53324   0.35739   0.53392   0.00000  Uiso   1.00
C843   C     0.49838   0.62404   0.50158   0.00000  Uiso   1.00
C844   C     0.50130   0.37602   0.49851   0.00000  Uiso   1.00
C845   C     0.54071   0.51900   0.36311   0.00000  Uiso   1.00
C846   C     0.45888   0.48135   0.63697   0.00000  Uiso   1.00
C847   C     0.54116   0.51810   0.64899   0.00000  Uiso   1.00
C848   C     0.45851   0.48232   0.35150   0.00000  Uiso   1.00
N849   N     0.49999   0.49999   0.61907   0.00000  Uiso   1.00
N850   N     0.50001   0.50001   0.38093   0.00000  Uiso   1.00
O851   O     0.50000   0.43892   0.53821   0.00000  Uiso   1.00
O852   O     0.50000   0.56108   0.46179   0.00000  Uiso   1.00
O853   O     0.50000   0.43893   0.46176   0.00000  Uiso   1.00
O854   O     0.50000   0.56107   0.53824   0.00000  Uiso   1.00
O855   O     0.42392   0.50000   0.52928   0.00000  Uiso   1.00
O856   O     0.57608   0.50000   0.47072   0.00000  Uiso   1.00
O857   O     0.42392   0.50000   0.45284   0.00000  Uiso   1.00
O858   O     0.57608   0.50000   0.54716   0.00000  Uiso   1.00
Zn859  Zn    0.50000   0.49999   0.55104   0.00000  Uiso   1.00
Zn860  Zn    0.50000   0.50001   0.44896   0.00000  Uiso   1.00
C861   C     0.65616   0.45281   0.45679   0.00000  Uiso   1.00
O862   O     0.66264   0.44876   0.41739   0.00000  Uiso   1.00
O863   O     0.62752   0.42207   0.47611   0.00000  Uiso   1.00
H864   H     0.61384   0.39825   0.45397   0.00000  Uiso   1.00
C865   C     0.34394   0.54733   0.54285   0.00000  Uiso   1.00
O866   O     0.33960   0.55088   0.58280   0.00000  Uiso   1.00
O867   O     0.37061   0.57864   0.52263   0.00000  Uiso   1.00
H868   H     0.38475   0.60248   0.54459   0.00000  Uiso   1.00
C869   C     0.43687   0.37022   0.42513   0.00000  Uiso   1.00
O870   O     0.45845   0.38286   0.39413   0.00000  Uiso   1.00
O871   O     0.38216   0.36872   0.42171   0.00000  Uiso   1.00
H872   H     0.36438   0.37813   0.39142   0.00000  Uiso   1.00
C873   C     0.56109   0.63018   0.57603   0.00000  Uiso   1.00
O874   O     0.53921   0.62095   0.60814   0.00000  Uiso   1.00
O875   O     0.61543   0.62809   0.57874   0.00000  Uiso   1.00
H876   H     0.63261   0.61899   0.60938   0.00000  Uiso   1.00
N877   N     0.43056   0.61888   0.43213   0.00000  Uiso   1.00
H878   H     0.40878   0.59672   0.44735   0.00000  Uiso   1.00
H879   H     0.45166   0.60454   0.40946   0.00000  Uiso   1.00
N880   N     0.56944   0.38115   0.56774   0.00000  Uiso   1.00
H881   H     0.59128   0.40311   0.55230   0.00000  Uiso   1.00
H882   H     0.54868   0.39572   0.59052   0.00000  Uiso   1.00
C883   C     0.58480   0.54176   0.39255   0.00000  Uiso   1.00
O884   O     0.62951   0.53056   0.39348   0.00000  Uiso   1.00
O885   O     0.57614   0.57784   0.41639   0.00000  Uiso   1.00
H886   H     0.60956   0.59086   0.43482   0.00000  Uiso   1.00
C887   C     0.41541   0.45810   0.60735   0.00000  Uiso   1.00
O888   O     0.37061   0.46944   0.60498   0.00000  Uiso   1.00
O889   O     0.42477   0.42144   0.58491   0.00000  Uiso   1.00
H890   H     0.39176   0.40808   0.56616   0.00000  Uiso   1.00
N891   N     0.58654   0.53556   0.63321   0.00000  Uiso   1.00
H892   H     0.57466   0.55160   0.60417   0.00000  Uiso   1.00
H893   H     0.60912   0.51102   0.62601   0.00000  Uiso   1.00
N894   N     0.41385   0.46578   0.36932   0.00000  Uiso   1.00
H895   H     0.38245   0.48422   0.35862   0.00000  Uiso   1.00
H896   H     0.40385   0.43588   0.35564   0.00000  Uiso   1.00
C897   C     0.83343   0.42018   0.49939   0.00000  Uiso   1.00
C898   C     0.83319   0.57984   0.50063   0.00000  Uiso   1.00
C899   C     0.73389   0.49836   0.48826   0.00000  Uiso   1.00
C900   C     0.93278   0.50170   0.51174   0.00000  Uiso   1.00
C901   C     0.67894   0.49047   0.48438   0.00000  Uiso   1.00
C902   C     0.98774   0.50952   0.51559   0.00000  Uiso   1.00
C903   C     0.80185   0.35206   0.46428   0.00000  Uiso   1.00
C904   C     0.86395   0.64807   0.53613   0.00000  Uiso   1.00
C905   C     0.79969   0.64268   0.46620   0.00000  Uiso   1.00
C906   C     0.86657   0.35739   0.53392   0.00000  Uiso   1.00
C907   C     0.83171   0.62404   0.50158   0.00000  Uiso   1.00
C908   C     0.83464   0.37602   0.49851   0.00000  Uiso   1.00
C909   C     0.87404   0.51900   0.36311   0.00000  Uiso   1.00
C910   C     0.79222   0.48135   0.63697   0.00000  Uiso   1.00
C911   C     0.87449   0.51810   0.64899   0.00000  Uiso   1.00
C912   C     0.79185   0.48232   0.35150   0.00000  Uiso   1.00
N913   N     0.83332   0.49999   0.61907   0.00000  Uiso   1.00
N914   N     0.83335   0.50001   0.38093   0.00000  Uiso   1.00
O915   O     0.83333   0.43892   0.53821   0.00000  Uiso   1.00
O916   O     0.83334   0.56108   0.46179   0.00000  Uiso   1.00
O917   O     0.83333   0.43893   0.46176   0.00000  Uiso   1.00
O918   O     0.83334   0.56107   0.53824   0.00000  Uiso   1.00
O919   O     0.75725   0.50000   0.52928   0.00000  Uiso   1.00
O920   O     0.90942   0.50000   0.47072   0.00000  Uiso   1.00
O921   O     0.75725   0.50000   0.45284   0.00000  Uiso   1.00
O922   O     0.90942   0.50000   0.54716   0.00000  Uiso   1.00
Zn923  Zn    0.83333   0.49999   0.55104   0.00000  Uiso   1.00
Zn924  Zn    0.83333   0.50001   0.44896   0.00000  Uiso   1.00
C925   C     0.98949   0.45281   0.45679   0.00000  Uiso   1.00
O926   O     0.99597   0.44876   0.41739   0.00000  Uiso   1.00
O927   O     0.96085   0.42207   0.47611   0.00000  Uiso   1.00
H928   H     0.94717   0.39825   0.45397   0.00000  Uiso   1.00
C929   C     0.67727   0.54733   0.54285   0.00000  Uiso   1.00
O930   O     0.67294   0.55088   0.58280   0.00000  Uiso   1.00
O931   O     0.70395   0.57864   0.52263   0.00000  Uiso   1.00
H932   H     0.71809   0.60248   0.54459   0.00000  Uiso   1.00
C933   C     0.77020   0.37022   0.42513   0.00000  Uiso   1.00
O934   O     0.79178   0.38286   0.39413   0.00000  Uiso   1.00
O935   O     0.71549   0.36872   0.42171   0.00000  Uiso   1.00
H936   H     0.69771   0.37813   0.39142   0.00000  Uiso   1.00
C937   C     0.89442   0.63018   0.57603   0.00000  Uiso   1.00
O938   O     0.87254   0.62095   0.60814   0.00000  Uiso   1.00
O939   O     0.94876   0.62809   0.57874   0.00000  Uiso   1.00
H940   H     0.96594   0.61899   0.60938   0.00000  Uiso   1.00
N941   N     0.76389   0.61888   0.43213   0.00000  Uiso   1.00
H942   H     0.74211   0.59672   0.44735   0.00000  Uiso   1.00
H943   H     0.78499   0.60454   0.40946   0.00000  Uiso   1.00
N944   N     0.90277   0.38115   0.56774   0.00000  Uiso   1.00
H945   H     0.92461   0.40311   0.55230   0.00000  Uiso   1.00
H946   H     0.88201   0.39572   0.59052   0.00000  Uiso   1.00
C947   C     0.91813   0.54176   0.39255   0.00000  Uiso   1.00
O948   O     0.96285   0.53056   0.39348   0.00000  Uiso   1.00
O949   O     0.90947   0.57784   0.41639   0.00000  Uiso   1.00
H950   H     0.94290   0.59086   0.43482   0.00000  Uiso   1.00
C951   C     0.74874   0.45810   0.60735   0.00000  Uiso   1.00
O952   O     0.70394   0.46944   0.60498   0.00000  Uiso   1.00
O953   O     0.75810   0.42144   0.58491   0.00000  Uiso   1.00
H954   H     0.72509   0.40808   0.56616   0.00000  Uiso   1.00
N955   N     0.91987   0.53556   0.63321   0.00000  Uiso   1.00
H956   H     0.90799   0.55160   0.60417   0.00000  Uiso   1.00
H957   H     0.94246   0.51102   0.62601   0.00000  Uiso   1.00
N958   N     0.74718   0.46578   0.36932   0.00000  Uiso   1.00
H959   H     0.71579   0.48422   0.35862   0.00000  Uiso   1.00
H960   H     0.73718   0.43588   0.35564   0.00000  Uiso   1.00
C961   C     0.16676   0.75352   0.49939   0.00000  Uiso   1.00
C962   C     0.16652   0.91318   0.50063   0.00000  Uiso   1.00
C963   C     0.06723   0.83169   0.48826   0.00000  Uiso   1.00
C964   C     0.26611   0.83503   0.51174   0.00000  Uiso   1.00
C965   C     0.01227   0.82380   0.48438   0.00000  Uiso   1.00
C966   C     0.32108   0.84286   0.51559   0.00000  Uiso   1.00
C967   C     0.13518   0.68539   0.46428   0.00000  Uiso   1.00
C968   C     0.19729   0.98140   0.53613   0.00000  Uiso   1.00
C969   C     0.13302   0.97601   0.46620   0.00000  Uiso   1.00
C970   C     0.19991   0.69073   0.53392   0.00000  Uiso   1.00
C971   C     0.16505   0.95737   0.50158   0.00000  Uiso   1.00
C972   C     0.16797   0.70935   0.49851   0.00000  Uiso   1.00
C973   C     0.20737   0.85234   0.36311   0.00000  Uiso   1.00
C974   C     0.12555   0.81468   0.63697   0.00000  Uiso   1.00
C975   C     0.20782   0.85144   0.64899   0.00000  Uiso   1.00
C976   C     0.12518   0.81566   0.35150   0.00000  Uiso   1.00
N977   N     0.16665   0.83332   0.61907   0.00000  Uiso   1.00
N978   N     0.16668   0.83334   0.38093   0.00000  Uiso   1.00
O979   O     0.16666   0.77225   0.53821   0.00000  Uiso   1.00
O980   O     0.16667   0.89442   0.46179   0.00000  Uiso   1.00
O981   O     0.16666   0.77226   0.46176   0.00000  Uiso   1.00
O982   O     0.16667   0.89441   0.53824   0.00000  Uiso   1.00
O983   O     0.09058   0.83333   0.52928   0.00000  Uiso   1.00
O984   O     0.24275   0.83334   0.47072   0.00000  Uiso   1.00
O985   O     0.09058   0.83334   0.45284   0.00000  Uiso   1.00
O986   O     0.24275   0.83333   0.54716   0.00000  Uiso   1.00
Zn987  Zn    0.16667   0.83333   0.55104   0.00000  Uiso   1.00
Zn988  Zn    0.16667   0.83334   0.44896   0.00000  Uiso   1.00
C989   C     0.32283   0.78615   0.45679   0.00000  Uiso   1.00
O990   O     0.32931   0.78209   0.41739   0.00000  Uiso   1.00
O991   O     0.29418   0.75540   0.47611   0.00000  Uiso   1.00
H992   H     0.28051   0.73158   0.45397   0.00000  Uiso   1.00
C993   C     0.01060   0.88066   0.54285   0.00000  Uiso   1.00
O994   O     0.00627   0.88421   0.58280   0.00000  Uiso   1.00
O995   O     0.03728   0.91197   0.52263   0.00000  Uiso   1.00
H996   H     0.05142   0.93581   0.54459   0.00000  Uiso   1.00
C997   C     0.10353   0.70355   0.42513   0.00000  Uiso   1.00
O998   O     0.12511   0.71619   0.39413   0.00000  Uiso   1.00
O999   O     0.04882   0.70205   0.42171   0.00000  Uiso   1.00
H1000  H     0.03105   0.71146   0.39142   0.00000  Uiso   1.00
C1001  C     0.22775   0.96351   0.57603   0.00000  Uiso   1.00
O1002  O     0.20587   0.95428   0.60814   0.00000  Uiso   1.00
O1003  O     0.28210   0.96142   0.57874   0.00000  Uiso   1.00
H1004  H     0.29927   0.95232   0.60938   0.00000  Uiso   1.00
N1005  N     0.09723   0.95222   0.43213   0.00000  Uiso   1.00
H1006  H     0.07544   0.93005   0.44735   0.00000  Uiso   1.00
H1007  H     0.11833   0.93788   0.40946   0.00000  Uiso   1.00
N1008  N     0.23610   0.71449   0.56774   0.00000  Uiso   1.00
H1009  H     0.25794   0.73645   0.55230   0.00000  Uiso   1.00
H1010  H     0.21534   0.72906   0.59052   0.00000  Uiso   1.00
C1011  C     0.25146   0.87510   0.39255   0.00000  Uiso   1.00
O1012  O     0.29618   0.86389   0.39348   0.00000  Uiso   1.00
O1013  O     0.24280   0.91117   0.41639   0.00000  Uiso   1.00
H1014  H     0.27623   0.92419   0.43482   0.00000  Uiso   1.00
C1015  C     0.08208   0.79144   0.60735   0.00000  Uiso   1.00
O1016  O     0.03727   0.80277   0.60498   0.00000  Uiso   1.00
O1017  O     0.09144   0.75477   0.58491   0.00000  Uiso   1.00
H1018  H     0.05843   0.74141   0.56616   0.00000  Uiso   1.00
N1019  N     0.25320   0.86889   0.63321   0.00000  Uiso   1.00
H1020  H     0.24132   0.88493   0.60417   0.00000  Uiso   1.00
H1021  H     0.27579   0.84436   0.62601   0.00000  Uiso   1.00
N1022  N     0.08051   0.79912   0.36932   0.00000  Uiso   1.00
H1023  H     0.04912   0.81755   0.35862   0.00000  Uiso   1.00
H1024  H     0.07051   0.76921   0.35564   0.00000  Uiso   1.00
C1025  C     0.50010   0.75352   0.49939   0.00000  Uiso   1.00
C1026  C     0.49985   0.91318   0.50063   0.00000  Uiso   1.00
C1027  C     0.40056   0.83169   0.48826   0.00000  Uiso   1.00
C1028  C     0.59945   0.83503   0.51174   0.00000  Uiso   1.00
C1029  C     0.34560   0.82380   0.48438   0.00000  Uiso   1.00
C1030  C     0.65441   0.84286   0.51559   0.00000  Uiso   1.00
C1031  C     0.46852   0.68539   0.46428   0.00000  Uiso   1.00
C1032  C     0.53062   0.98140   0.53613   0.00000  Uiso   1.00
C1033  C     0.46635   0.97601   0.46620   0.00000  Uiso   1.00
C1034  C     0.53324   0.69073   0.53392   0.00000  Uiso   1.00
C1035  C     0.49838   0.95737   0.50158   0.00000  Uiso   1.00
C1036  C     0.50130   0.70935   0.49851   0.00000  Uiso   1.00
C1037  C     0.54071   0.85234   0.36311   0.00000  Uiso   1.00
C1038  C     0.45888   0.81468   0.63697   0.00000  Uiso   1.00
C1039  C     0.54116   0.85144   0.64899   0.00000  Uiso   1.00
C1040  C     0.45851   0.81566   0.35150   0.00000  Uiso   1.00
N1041  N     0.49999   0.83332   0.61907   0.00000  Uiso   1.00
N1042  N     0.50001   0.83334   0.38093   0.00000  Uiso   1.00
O1043  O     0.50000   0.77225   0.53821   0.00000  Uiso   1.00
O1044  O     0.50000   0.89442   0.46179   0.00000  Uiso   1.00
O1045  O     0.50000   0.77226   0.46176   0.00000  Uiso   1.00
O1046  O     0.50000   0.89441   0.53824   0.00000  Uiso   1.00
O1047  O     0.42392   0.83333   0.52928   0.00000  Uiso   1.00
O1048  O     0.57608   0.83334   0.47072   0.00000  Uiso   1.00
O1049  O     0.42392   0.83334   0.45284   0.00000  Uiso   1.00
O1050  O     0.57608   0.83333   0.54716   0.00000  Uiso   1.00
Zn1051 Zn    0.50000   0.83333   0.55104   0.00000  Uiso   1.00
Zn1052 Zn    0.50000   0.83334   0.44896   0.00000  Uiso   1.00
C1053  C     0.65616   0.78615   0.45679   0.00000  Uiso   1.00
O1054  O     0.66264   0.78209   0.41739   0.00000  Uiso   1.00
O1055  O     0.62752   0.75540   0.47611   0.00000  Uiso   1.00
H1056  H     0.61384   0.73158   0.45397   0.00000  Uiso   1.00
C1057  C     0.34394   0.88066   0.54285   0.00000  Uiso   1.00
O1058  O     0.33960   0.88421   0.58280   0.00000  Uiso   1.00
O1059  O     0.37061   0.91197   0.52263   0.00000  Uiso   1.00
H1060  H     0.38475   0.93581   0.54459   0.00000  Uiso   1.00
C1061  C     0.43687   0.70355   0.42513   0.00000  Uiso   1.00
O1062  O     0.45845   0.71619   0.39413   0.00000  Uiso   1.00
O1063  O     0.38216   0.70205   0.42171   0.00000  Uiso   1.00
H1064  H     0.36438   0.71146   0.39142   0.00000  Uiso   1.00
C1065  C     0.56109   0.96351   0.57603   0.00000  Uiso   1.00
O1066  O     0.53921   0.95428   0.60814   0.00000  Uiso   1.00
O1067  O     0.61543   0.96142   0.57874   0.00000  Uiso   1.00
H1068  H     0.63261   0.95232   0.60938   0.00000  Uiso   1.00
N1069  N     0.43056   0.95222   0.43213   0.00000  Uiso   1.00
H1070  H     0.40878   0.93005   0.44735   0.00000  Uiso   1.00
H1071  H     0.45166   0.93788   0.40946   0.00000  Uiso   1.00
N1072  N     0.56944   0.71449   0.56774   0.00000  Uiso   1.00
H1073  H     0.59128   0.73645   0.55230   0.00000  Uiso   1.00
H1074  H     0.54868   0.72906   0.59052   0.00000  Uiso   1.00
C1075  C     0.58480   0.87510   0.39255   0.00000  Uiso   1.00
O1076  O     0.62951   0.86389   0.39348   0.00000  Uiso   1.00
O1077  O     0.57614   0.91117   0.41639   0.00000  Uiso   1.00
H1078  H     0.60956   0.92419   0.43482   0.00000  Uiso   1.00
C1079  C     0.41541   0.79144   0.60735   0.00000  Uiso   1.00
O1080  O     0.37061   0.80277   0.60498   0.00000  Uiso   1.00
O1081  O     0.42477   0.75477   0.58491   0.00000  Uiso   1.00
H1082  H     0.39176   0.74141   0.56616   0.00000  Uiso   1.00
N1083  N     0.58654   0.86889   0.63321   0.00000  Uiso   1.00
H1084  H     0.57466   0.88493   0.60417   0.00000  Uiso   1.00
H1085  H     0.60912   0.84436   0.62601   0.00000  Uiso   1.00
N1086  N     0.41385   0.79912   0.36932   0.00000  Uiso   1.00
H1087  H     0.38245   0.81755   0.35862   0.00000  Uiso   1.00
H1088  H     0.40385   0.76921   0.35564   0.00000  Uiso   1.00
C1089  C     0.83343   0.75352   0.49939   0.00000  Uiso   1.00
C1090  C     0.83319   0.91318   0.50063   0.00000  Uiso   1.00
C1091  C     0.73389   0.83169   0.48826   0.00000  Uiso   1.00
C1092  C     0.93278   0.83503   0.51174   0.00000  Uiso   1.00
C1093  C     0.67894   0.82380   0.48438   0.00000  Uiso   1.00
C1094  C     0.98774   0.84286   0.51559   0.00000  Uiso   1.00
C1095  C     0.80185   0.68539   0.46428   0.00000  Uiso   1.00
C1096  C     0.86395   0.98140   0.53613   0.00000  Uiso   1.00
C1097  C     0.79969   0.97601   0.46620   0.00000  Uiso   1.00
C1098  C     0.86657   0.69073   0.53392   0.00000  Uiso   1.00
C1099  C     0.83171   0.95737   0.50158   0.00000  Uiso   1.00
C1100  C     0.83464   0.70935   0.49851   0.00000  Uiso   1.00
C1101  C     0.87404   0.85234   0.36311   0.00000  Uiso   1.00
C1102  C     0.79222   0.81468   0.63697   0.00000  Uiso   1.00
C1103  C     0.87449   0.85144   0.64899   0.00000  Uiso   1.00
C1104  C     0.79185   0.81566   0.35150   0.00000  Uiso   1.00
N1105  N     0.83332   0.83332   0.61907   0.00000  Uiso   1.00
N1106  N     0.83335   0.83334   0.38093   0.00000  Uiso   1.00
O1107  O     0.83333   0.77225   0.53821   0.00000  Uiso   1.00
O1108  O     0.83334   0.89442   0.46179   0.00000  Uiso   1.00
O1109  O     0.83333   0.77226   0.46176   0.00000  Uiso   1.00
O1110  O     0.83334   0.89441   0.53824   0.00000  Uiso   1.00
O1111  O     0.75725   0.83333   0.52928   0.00000  Uiso   1.00
O1112  O     0.90942   0.83334   0.47072   0.00000  Uiso   1.00
O1113  O     0.75725   0.83334   0.45284   0.00000  Uiso   1.00
O1114  O     0.90942   0.83333   0.54716   0.00000  Uiso   1.00
Zn1115 Zn    0.83333   0.83333   0.55104   0.00000  Uiso   1.00
Zn1116 Zn    0.83333   0.83334   0.44896   0.00000  Uiso   1.00
C1117  C     0.98949   0.78615   0.45679   0.00000  Uiso   1.00
O1118  O     0.99597   0.78209   0.41739   0.00000  Uiso   1.00
O1119  O     0.96085   0.75540   0.47611   0.00000  Uiso   1.00
H1120  H     0.94717   0.73158   0.45397   0.00000  Uiso   1.00
C1121  C     0.67727   0.88066   0.54285   0.00000  Uiso   1.00
O1122  O     0.67294   0.88421   0.58280   0.00000  Uiso   1.00
O1123  O     0.70395   0.91197   0.52263   0.00000  Uiso   1.00
H1124  H     0.71809   0.93581   0.54459   0.00000  Uiso   1.00
C1125  C     0.77020   0.70355   0.42513   0.00000  Uiso   1.00
O1126  O     0.79178   0.71619   0.39413   0.00000  Uiso   1.00
O1127  O     0.71549   0.70205   0.42171   0.00000  Uiso   1.00
H1128  H     0.69771   0.71146   0.39142   0.00000  Uiso   1.00
C1129  C     0.89442   0.96351   0.57603   0.00000  Uiso   1.00
O1130  O     0.87254   0.95428   0.60814   0.00000  Uiso   1.00
O1131  O     0.94876   0.96142   0.57874   0.00000  Uiso   1.00
H1132  H     0.96594   0.95232   0.60938   0.00000  Uiso   1.00
N1133  N     0.76389   0.95222   0.43213   0.00000  Uiso   1.00
H1134  H     0.74211   0.93005   0.44735   0.00000  Uiso   1.00
H1135  H     0.78499   0.93788   0.40946   0.00000  Uiso   1.00
N1136  N     0.90277   0.71449   0.56774   0.00000  Uiso   1.00
H1137  H     0.92461   0.73645   0.55230   0.00000  Uiso   1.00
H1138  H     0.88201   0.72906   0.59052   0.00000  Uiso   1.00
C1139  C     0.91813   0.87510   0.39255   0.00000  Uiso   1.00
O1140  O     0.96285   0.86389   0.39348   0.00000  Uiso   1.00
O1141  O     0.90947   0.91117   0.41639   0.00000  Uiso   1.00
H1142  H     0.94290   0.92419   0.43482   0.00000  Uiso   1.00
C1143  C     0.74874   0.79144   0.60735   0.00000  Uiso   1.00
O1144  O     0.70394   0.80277   0.60498   0.00000  Uiso   1.00
O1145  O     0.75810   0.75477   0.58491   0.00000  Uiso   1.00
H1146  H     0.72509   0.74141   0.56616   0.00000  Uiso   1.00
N1147  N     0.91987   0.86889   0.63321   0.00000  Uiso   1.00
H1148  H     0.90799   0.88493   0.60417   0.00000  Uiso   1.00
H1149  H     0.94246   0.84436   0.62601   0.00000  Uiso   1.00
N1150  N     0.74718   0.79912   0.36932   0.00000  Uiso   1.00
H1151  H     0.71579   0.81755   0.35862   0.00000  Uiso   1.00
H1152  H     0.73718   0.76921   0.35564   0.00000  Uiso   1.00
C1153  C     0.16676   0.08685   0.83272   0.00000  Uiso   1.00
C1154  C     0.16652   0.24651   0.83396   0.00000  Uiso   1.00
C1155  C     0.06723   0.16503   0.82159   0.00000  Uiso   1.00
C1156  C     0.26611   0.16837   0.84508   0.00000  Uiso   1.00
C1157  C     0.01227   0.15713   0.81771   0.00000  Uiso   1.00
C1158  C     0.32108   0.17619   0.84893   0.00000  Uiso   1.00
C1159  C     0.13518   0.01873   0.79761   0.00000  Uiso   1.00
C1160  C     0.19729   0.31474   0.86946   0.00000  Uiso   1.00
C1161  C     0.13302   0.30935   0.79953   0.00000  Uiso   1.00
C1162  C     0.19991   0.02406   0.86726   0.00000  Uiso   1.00
C1163  C     0.16505   0.29071   0.83491   0.00000  Uiso   1.00
C1164  C     0.16797   0.04269   0.83184   0.00000  Uiso   1.00
C1165  C     0.20737   0.18567   0.69644   0.00000  Uiso   1.00
C1166  C     0.12555   0.14801   0.97030   0.00000  Uiso   1.00
C1167  C     0.20782   0.18477   0.98232   0.00000  Uiso   1.00
C1168  C     0.12518   0.14899   0.68483   0.00000  Uiso   1.00
N1169  N     0.16665   0.16666   0.95240   0.00000  Uiso   1.00
N1170  N     0.16668   0.16668   0.71427   0.00000  Uiso   1.00
O1171  O     0.16666   0.10558   0.87154   0.00000  Uiso   1.00
O1172  O     0.16667   0.22775   0.79513   0.00000  Uiso   1.00
O1173  O     0.16666   0.10559   0.79510   0.00000  Uiso   1.00
O1174  O     0.16667   0.22774   0.87157   0.00000  Uiso   1.00
O1175  O     0.09058   0.16666   0.86261   0.00000  Uiso   1.00
O1176  O     0.24275   0.16667   0.80405   0.00000  Uiso   1.00
O1177  O     0.09058   0.16667   0.78617   0.00000  Uiso   1.00
O1178  O     0.24275   0.16666   0.88050   0.00000  Uiso   1.00
Zn1179 Zn    0.16667   0.16666   0.88437   0.00000  Uiso   1.00
Zn1180 Zn    0.16667   0.16667   0.78229   0.00000  Uiso   1.00
C1181  C     0.32283   0.11948   0.79013   0.00000  Uiso   1.00
O1182  O     0.32931   0.11542   0.75073   0.00000  Uiso   1.00
O1183  O     0.29418   0.08874   0.80944   0.00000  Uiso   1.00
H1184  H     0.28051   0.06491   0.78730   0.00000  Uiso   1.00
C1185  C     0.01060   0.21399   0.87619   0.00000  Uiso   1.00
O1186  O     0.00627   0.21755   0.91613   0.00000  Uiso   1.00
O1187  O     0.03728   0.24530   0.85596   0.00000  Uiso   1.00
H1188  H     0.05142   0.26914   0.87793   0.00000  Uiso   1.00
C1189  C     0.10353   0.03689   0.75846   0.00000  Uiso   1.00
O1190  O     0.12511   0.04953   0.72746   0.00000  Uiso   1.00
O1191  O     0.04882   0.03539   0.75505   0.00000  Uiso   1.00
H1192  H     0.03105   0.04480   0.72475   0.00000  Uiso   1.00
C1193  C     0.22775   0.29685   0.90937   0.00000  Uiso   1.00
O1194  O     0.20587   0.28762   0.94148   0.00000  Uiso   1.00
O1195  O     0.28210   0.29475   0.91207   0.00000  Uiso   1.00
H1196  H     0.29927   0.28566   0.94272   0.00000  Uiso   1.00
N1197  N     0.09723   0.28555   0.76546   0.00000  Uiso   1.00
H1198  H     0.07544   0.26338   0.78068   0.00000  Uiso   1.00
H1199  H     0.11833   0.27121   0.74279   0.00000  Uiso   1.00
N1200  N     0.23610   0.04782   0.90108   0.00000  Uiso   1.00
H1201  H     0.25794   0.06978   0.88563   0.00000  Uiso   1.00
H1202  H     0.21534   0.06239   0.92385   0.00000  Uiso   1.00
C1203  C     0.25146   0.20843   0.72589   0.00000  Uiso   1.00
O1204  O     0.29618   0.19723   0.72682   0.00000  Uiso   1.00
O1205  O     0.24280   0.24451   0.74973   0.00000  Uiso   1.00
H1206  H     0.27623   0.25753   0.76816   0.00000  Uiso   1.00
C1207  C     0.08208   0.12477   0.94069   0.00000  Uiso   1.00
O1208  O     0.03727   0.13611   0.93831   0.00000  Uiso   1.00
O1209  O     0.09144   0.08811   0.91824   0.00000  Uiso   1.00
H1210  H     0.05843   0.07475   0.89949   0.00000  Uiso   1.00
N1211  N     0.25320   0.20223   0.96655   0.00000  Uiso   1.00
H1212  H     0.24132   0.21827   0.93750   0.00000  Uiso   1.00
H1213  H     0.27579   0.17769   0.95934   0.00000  Uiso   1.00
N1214  N     0.08051   0.13245   0.70265   0.00000  Uiso   1.00
H1215  H     0.04912   0.15089   0.69195   0.00000  Uiso   1.00
H1216  H     0.07051   0.10254   0.68898   0.00000  Uiso   1.00
C1217  C     0.50010   0.08685   0.83272   0.00000  Uiso   1.00
C1218  C     0.49985   0.24651   0.83396   0.00000  Uiso   1.00
C1219  C     0.40056   0.16503   0.82159   0.00000  Uiso   1.00
C1220  C     0.59945   0.16837   0.84508   0.00000  Uiso   1.00
C1221  C     0.34560   0.15713   0.81771   0.00000  Uiso   1.00
C1222  C     0.65441   0.17619   0.84893   0.00000  Uiso   1.00
C1223  C     0.46852   0.01873   0.79761   0.00000  Uiso   1.00
C1224  C     0.53062   0.31474   0.86946   0.00000  Uiso   1.00
C1225  C     0.46635   0.30935   0.79953   0.00000  Uiso   1.00
C1226  C     0.53324   0.02406   0.86726   0.00000  Uiso   1.00
C1227  C     0.49838   0.29071   0.83491   0.00000  Uiso   1.00
C1228  C     0.50130   0.04269   0.83184   0.00000  Uiso   1.00
C1229  C     0.54071   0.18567   0.69644   0.00000  Uiso   1.00
C1230  C     0.45888   0.14801   0.97030   0.00000  Uiso   1.00
C1231  C     0.54116   0.18477   0.98232   0.00000  Uiso   1.00
C1232  C     0.45851   0.14899   0.68483   0.00000  Uiso   1.00
N1233  N     0.49999   0.16666   0.95240   0.00000  Uiso   1.00
N1234  N     0.50001   0.16668   0.71427   0.00000  Uiso   1.00
O1235  O     0.50000   0.10558   0.87154   0.00000  Uiso   1.00
O1236  O     0.50000   0.22775   0.79513   0.00000  Uiso   1.00
O1237  O     0.50000   0.10559   0.79510   0.00000  Uiso   1.00
O1238  O     0.50000   0.22774   0.87157   0.00000  Uiso   1.00
O1239  O     0.42392   0.16666   0.86261   0.00000  Uiso   1.00
O1240  O     0.57608   0.16667   0.80405   0.00000  Uiso   1.00
O1241  O     0.42392   0.16667   0.78617   0.00000  Uiso   1.00
O1242  O     0.57608   0.16666   0.88050   0.00000  Uiso   1.00
Zn1243 Zn    0.50000   0.16666   0.88437   0.00000  Uiso   1.00
Zn1244 Zn    0.50000   0.16667   0.78229   0.00000  Uiso   1.00
C1245  C     0.65616   0.11948   0.79013   0.00000  Uiso   1.00
O1246  O     0.66264   0.11542   0.75073   0.00000  Uiso   1.00
O1247  O     0.62752   0.08874   0.80944   0.00000  Uiso   1.00
H1248  H     0.61384   0.06491   0.78730   0.00000  Uiso   1.00
C1249  C     0.34394   0.21399   0.87619   0.00000  Uiso   1.00
O1250  O     0.33960   0.21755   0.91613   0.00000  Uiso   1.00
O1251  O     0.37061   0.24530   0.85596   0.00000  Uiso   1.00
H1252  H     0.38475   0.26914   0.87793   0.00000  Uiso   1.00
C1253  C     0.43687   0.03689   0.75846   0.00000  Uiso   1.00
O1254  O     0.45845   0.04953   0.72746   0.00000  Uiso   1.00
O1255  O     0.38216   0.03539   0.75505   0.00000  Uiso   1.00
H1256  H     0.36438   0.04480   0.72475   0.00000  Uiso   1.00
C1257  C     0.56109   0.29685   0.90937   0.00000  Uiso   1.00
O1258  O     0.53921   0.28762   0.94148   0.00000  Uiso   1.00
O1259  O     0.61543   0.29475   0.91207   0.00000  Uiso   1.00
H1260  H     0.63261   0.28566   0.94272   0.00000  Uiso   1.00
N1261  N     0.43056   0.28555   0.76546   0.00000  Uiso   1.00
H1262  H     0.40878   0.26338   0.78068   0.00000  Uiso   1.00
H1263  H     0.45166   0.27121   0.74279   0.00000  Uiso   1.00
N1264  N     0.56944   0.04782   0.90108   0.00000  Uiso   1.00
H1265  H     0.59128   0.06978   0.88563   0.00000  Uiso   1.00
H1266  H     0.54868   0.06239   0.92385   0.00000  Uiso   1.00
C1267  C     0.58480   0.20843   0.72589   0.00000  Uiso   1.00
O1268  O     0.62951   0.19723   0.72682   0.00000  Uiso   1.00
O1269  O     0.57614   0.24451   0.74973   0.00000  Uiso   1.00
H1270  H     0.60956   0.25753   0.76816   0.00000  Uiso   1.00
C1271  C     0.41541   0.12477   0.94069   0.00000  Uiso   1.00
O1272  O     0.37061   0.13611   0.93831   0.00000  Uiso   1.00
O1273  O     0.42477   0.08811   0.91824   0.00000  Uiso   1.00
H1274  H     0.39176   0.07475   0.89949   0.00000  Uiso   1.00
N1275  N     0.58654   0.20223   0.96655   0.00000  Uiso   1.00
H1276  H     0.57466   0.21827   0.93750   0.00000  Uiso   1.00
H1277  H     0.60912   0.17769   0.95934   0.00000  Uiso   1.00
N1278  N     0.41385   0.13245   0.70265   0.00000  Uiso   1.00
H1279  H     0.38245   0.15089   0.69195   0.00000  Uiso   1.00
H1280  H     0.40385   0.10254   0.68898   0.00000  Uiso   1.00
C1281  C     0.83343   0.08685   0.83272   0.00000  Uiso   1.00
C1282  C     0.83319   0.24651   0.83396   0.00000  Uiso   1.00
C1283  C     0.73389   0.16503   0.82159   0.00000  Uiso   1.00
C1284  C     0.93278   0.16837   0.84508   0.00000  Uiso   1.00
C1285  C     0.67894   0.15713   0.81771   0.00000  Uiso   1.00
C1286  C     0.98774   0.17619   0.84893   0.00000  Uiso   1.00
C1287  C     0.80185   0.01873   0.79761   0.00000  Uiso   1.00
C1288  C     0.86395   0.31474   0.86946   0.00000  Uiso   1.00
C1289  C     0.79969   0.30935   0.79953   0.00000  Uiso   1.00
C1290  C     0.86657   0.02406   0.86726   0.00000  Uiso   1.00
C1291  C     0.83171   0.29071   0.83491   0.00000  Uiso   1.00
C1292  C     0.83464   0.04269   0.83184   0.00000  Uiso   1.00
C1293  C     0.87404   0.18567   0.69644   0.00000  Uiso   1.00
C1294  C     0.79222   0.14801   0.97030   0.00000  Uiso   1.00
C1295  C     0.87449   0.18477   0.98232   0.00000  Uiso   1.00
C1296  C     0.79185   0.14899   0.68483   0.00000  Uiso   1.00
N1297  N     0.83332   0.16666   0.95240   0.00000  Uiso   1.00
N1298  N     0.83335   0.16668   0.71427   0.00000  Uiso   1.00
O1299  O     0.83333   0.10558   0.87154   0.00000  Uiso   1.00
O1300  O     0.83334   0.22775   0.79513   0.00000  Uiso   1.00
O1301  O     0.83333   0.10559   0.79510   0.00000  Uiso   1.00
O1302  O     0.83334   0.22774   0.87157   0.00000  Uiso   1.00
O1303  O     0.75725   0.16666   0.86261   0.00000  Uiso   1.00
O1304  O     0.90942   0.16667   0.80405   0.00000  Uiso   1.00
O1305  O     0.75725   0.16667   0.78617   0.00000  Uiso   1.00
O1306  O     0.90942   0.16666   0.88050   0.00000  Uiso   1.00
Zn1307 Zn    0.83333   0.16666   0.88437   0.00000  Uiso   1.00
Zn1308 Zn    0.83333   0.16667   0.78229   0.00000  Uiso   1.00
C1309  C     0.98949   0.11948   0.79013   0.00000  Uiso   1.00
O1310  O     0.99597   0.11542   0.75073   0.00000  Uiso   1.00
O1311  O     0.96085   0.08874   0.80944   0.00000  Uiso   1.00
H1312  H     0.94717   0.06491   0.78730   0.00000  Uiso   1.00
C1313  C     0.67727   0.21399   0.87619   0.00000  Uiso   1.00
O1314  O     0.67294   0.21755   0.91613   0.00000  Uiso   1.00
O1315  O     0.70395   0.24530   0.85596   0.00000  Uiso   1.00
H1316  H     0.71809   0.26914   0.87793   0.00000  Uiso   1.00
C1317  C     0.77020   0.03689   0.75846   0.00000  Uiso   1.00
O1318  O     0.79178   0.04953   0.72746   0.00000  Uiso   1.00
O1319  O     0.71549   0.03539   0.75505   0.00000  Uiso   1.00
H1320  H     0.69771   0.04480   0.72475   0.00000  Uiso   1.00
C1321  C     0.89442   0.29685   0.90937   0.00000  Uiso   1.00
O1322  O     0.87254   0.28762   0.94148   0.00000  Uiso   1.00
O1323  O     0.94876   0.29475   0.91207   0.00000  Uiso   1.00
H1324  H     0.96594   0.28566   0.94272   0.00000  Uiso   1.00
N1325  N     0.76389   0.28555   0.76546   0.00000  Uiso   1.00
H1326  H     0.74211   0.26338   0.78068   0.00000  Uiso   1.00
H1327  H     0.78499   0.27121   0.74279   0.00000  Uiso   1.00
N1328  N     0.90277   0.04782   0.90108   0.00000  Uiso   1.00
H1329  H     0.92461   0.06978   0.88563   0.00000  Uiso   1.00
H1330  H     0.88201   0.06239   0.92385   0.00000  Uiso   1.00
C1331  C     0.91813   0.20843   0.72589   0.00000  Uiso   1.00
O1332  O     0.96285   0.19723   0.72682   0.00000  Uiso   1.00
O1333  O     0.90947   0.24451   0.74973   0.00000  Uiso   1.00
H1334  H     0.94290   0.25753   0.76816   0.00000  Uiso   1.00
C1335  C     0.74874   0.12477   0.94069   0.00000  Uiso   1.00
O1336  O     0.70394   0.13611   0.93831   0.00000  Uiso   1.00
O1337  O     0.75810   0.08811   0.91824   0.00000  Uiso   1.00
H1338  H     0.72509   0.07475   0.89949   0.00000  Uiso   1.00
N1339  N     0.91987   0.20223   0.96655   0.00000  Uiso   1.00
H1340  H     0.90799   0.21827   0.93750   0.00000  Uiso   1.00
H1341  H     0.94246   0.17769   0.95934   0.00000  Uiso   1.00
N1342  N     0.74718   0.13245   0.70265   0.00000  Uiso   1.00
H1343  H     0.71579   0.15089   0.69195   0.00000  Uiso   1.00
H1344  H     0.73718   0.10254   0.68898   0.00000  Uiso   1.00
C1345  C     0.16676   0.42018   0.83272   0.00000  Uiso   1.00
C1346  C     0.16652   0.57984   0.83396   0.00000  Uiso   1.00
C1347  C     0.06723   0.49836   0.82159   0.00000  Uiso   1.00
C1348  C     0.26611   0.50170   0.84508   0.00000  Uiso   1.00
C1349  C     0.01227   0.49047   0.81771   0.00000  Uiso   1.00
C1350  C     0.32108   0.50952   0.84893   0.00000  Uiso   1.00
C1351  C     0.13518   0.35206   0.79761   0.00000  Uiso   1.00
C1352  C     0.19729   0.64807   0.86946   0.00000  Uiso   1.00
C1353  C     0.13302   0.64268   0.79953   0.00000  Uiso   1.00
C1354  C     0.19991   0.35739   0.86726   0.00000  Uiso   1.00
C1355  C     0.16505   0.62404   0.83491   0.00000  Uiso   1.00
C1356  C     0.16797   0.37602   0.83184   0.00000  Uiso   1.00
C1357  C     0.20737   0.51900   0.69644   0.00000  Uiso   1.00
C1358  C     0.12555   0.48135   0.97030   0.00000  Uiso   1.00
C1359  C     0.20782   0.51810   0.98232   0.00000  Uiso   1.00
C1360  C     0.12518   0.48232   0.68483   0.00000  Uiso   1.00
N1361  N     0.16665   0.49999   0.95240   0.00000  Uiso   1.00
N1362  N     0.16668   0.50001   0.71427   0.00000  Uiso   1.00
O1363  O     0.16666   0.43892   0.87154   0.00000  Uiso   1.00
O1364  O     0.16667   0.56108   0.79513   0.00000  Uiso   1.00
O1365  O     0.16666   0.43893   0.79510   0.00000  Uiso   1.00
O1366  O     0.16667   0.56107   0.87157   0.00000  Uiso   1.00
O1367  O     0.09058   0.50000   0.86261   0.00000  Uiso   1.00
O1368  O     0.24275   0.50000   0.80405   0.00000  Uiso   1.00
O1369  O     0.09058   0.50000   0.78617   0.00000  Uiso   1.00
O1370  O     0.24275   0.50000   0.88050   0.00000  Uiso   1.00
Zn1371 Zn    0.16667   0.49999   0.88437   0.00000  Uiso   1.00
Zn1372 Zn    0.16667   0.50001   0.78229   0.00000  Uiso   1.00
C1373  C     0.32283   0.45281   0.79013   0.00000  Uiso   1.00
O1374  O     0.32931   0.44876   0.75073   0.00000  Uiso   1.00
O1375  O     0.29418   0.42207   0.80944   0.00000  Uiso   1.00
H1376  H     0.28051   0.39825   0.78730   0.00000  Uiso   1.00
C1377  C     0.01060   0.54733   0.87619   0.00000  Uiso   1.00
O1378  O     0.00627   0.55088   0.91613   0.00000  Uiso   1.00
O1379  O     0.03728   0.57864   0.85596   0.00000  Uiso   1.00
H1380  H     0.05142   0.60248   0.87793   0.00000  Uiso   1.00
C1381  C     0.10353   0.37022   0.75846   0.00000  Uiso   1.00
O1382  O     0.12511   0.38286   0.72746   0.00000  Uiso   1.00
O1383  O     0.04882   0.36872   0.75505   0.00000  Uiso   1.00
H1384  H     0.03105   0.37813   0.72475   0.00000  Uiso   1.00
C1385  C     0.22775   0.63018   0.90937   0.00000  Uiso   1.00
O1386  O     0.20587   0.62095   0.94148   0.00000  Uiso   1.00
O1387  O     0.28210   0.62809   0.91207   0.00000  Uiso   1.00
H1388  H     0.29927   0.61899   0.94272   0.00000  Uiso   1.00
N1389  N     0.09723   0.61888   0.76546   0.00000  Uiso   1.00
H1390  H     0.07544   0.59672   0.78068   0.00000  Uiso   1.00
H1391  H     0.11833   0.60454   0.74279   0.00000  Uiso   1.00
N1392  N     0.23610   0.38115   0.90108   0.00000  Uiso   1.00
H1393  H     0.25794   0.40311   0.88563   0.00000  Uiso   1.00
H1394  H     0.21534   0.39572   0.92385   0.00000  Uiso   1.00
C1395  C     0.25146   0.54176   0.72589   0.00000  Uiso   1.00
O1396  O     0.29618   0.53056   0.72682   0.00000  Uiso   1.00
O1397  O     0.24280   0.57784   0.74973   0.00000  Uiso   1.00
H1398  H     0.27623   0.59086   0.76816   0.00000  Uiso   1.00
C1399  C     0.08208   0.45810   0.94069   0.00000  Uiso   1.00
O1400  O     0.03727   0.46944   0.93831   0.00000  Uiso   1.00
O1401  O     0.09144   0.42144   0.91824   0.00000  Uiso   1.00
H1402  H     0.05843   0.40808   0.89949   0.00000  Uiso   1.00
N1403  N     0.25320   0.53556   0.96655   0.00000  Uiso   1.00
H1404  H     0.24132   0.55160   0.93750   0.00000  Uiso   1.00
H1405  H     0.27579   0.51102   0.95934   0.00000  Uiso   1.00
N1406  N     0.08051   0.46578   0.70265   0.00000  Uiso   1.00
H1407  H     0.04912   0.48422   0.69195   0.00000  Uiso   1.00
H1408  H     0.07051   0.43588   0.68898   0.00000  Uiso   1.00
C1409  C     0.50010   0.42018   0.83272   0.00000  Uiso   1.00
C1410  C     0.49985   0.57984   0.83396   0.00000  Uiso   1.00
C1411  C     0.40056   0.49836   0.82159   0.00000  Uiso   1.00
C1412  C     0.59945   0.50170   0.84508   0.00000  Uiso   1.00
C1413  C     0.34560   0.49047   0.81771   0.00000  Uiso   1.00
C1414  C     0.65441   0.50952   0.84893   0.00000  Uiso   1.00
C1415  C     0.46852   0.35206   0.79761   0.00000  Uiso   1.00
C1416  C     0.53062   0.64807   0.86946   0.00000  Uiso   1.00
C1417  C     0.46635   0.64268   0.79953   0.00000  Uiso   1.00
C1418  C     0.53324   0.35739   0.86726   0.00000  Uiso   1.00
C1419  C     0.49838   0.62404   0.83491   0.00000  Uiso   1.00
C1420  C     0.50130   0.37602   0.83184   0.00000  Uiso   1.00
C1421  C     0.54071   0.51900   0.69644   0.00000  Uiso   1.00
C1422  C     0.45888   0.48135   0.97030   0.00000  Uiso   1.00
C1423  C     0.54116   0.51810   0.98232   0.00000  Uiso   1.00
C1424  C     0.45851   0.48232   0.68483   0.00000  Uiso   1.00
N1425  N     0.49999   0.49999   0.95240   0.00000  Uiso   1.00
N1426  N     0.50001   0.50001   0.71427   0.00000  Uiso   1.00
O1427  O     0.50000   0.43892   0.87154   0.00000  Uiso   1.00
O1428  O     0.50000   0.56108   0.79513   0.00000  Uiso   1.00
O1429  O     0.50000   0.43893   0.79510   0.00000  Uiso   1.00
O1430  O     0.50000   0.56107   0.87157   0.00000  Uiso   1.00
O1431  O     0.42392   0.50000   0.86261   0.00000  Uiso   1.00
O1432  O     0.57608   0.50000   0.80405   0.00000  Uiso   1.00
O1433  O     0.42392   0.50000   0.78617   0.00000  Uiso   1.00
O1434  O     0.57608   0.50000   0.88050   0.00000  Uiso   1.00
Zn1435 Zn    0.50000   0.49999   0.88437   0.00000  Uiso   1.00
Zn1436 Zn    0.50000   0.50001   0.78229   0.00000  Uiso   1.00
C1437  C     0.65616   0.45281   0.79013   0.00000  Uiso   1.00
O1438  O     0.66264   0.44876   0.75073   0.00000  Uiso   1.00
O1439  O     0.62752   0.42207   0.80944   0.00000  Uiso   1.00
H1440  H     0.61384   0.39825   0.78730   0.00000  Uiso   1.00
C1441  C     0.34394   0.54733   0.87619   0.00000  Uiso   1.00
O1442  O     0.33960   0.55088   0.91613   0.00000  Uiso   1.00
O1443  O     0.37061   0.57864   0.85596   0.00000  Uiso   1.00
H1444  H     0.38475   0.60248   0.87793   0.00000  Uiso   1.00
C1445  C     0.43687   0.37022   0.75846   0.00000  Uiso   1.00
O1446  O     0.45845   0.38286   0.72746   0.00000  Uiso   1.00
O1447  O     0.38216   0.36872   0.75505   0.00000  Uiso   1.00
H1448  H     0.36438   0.37813   0.72475   0.00000  Uiso   1.00
C1449  C     0.56109   0.63018   0.90937   0.00000  Uiso   1.00
O1450  O     0.53921   0.62095   0.94148   0.00000  Uiso   1.00
O1451  O     0.61543   0.62809   0.91207   0.00000  Uiso   1.00
H1452  H     0.63261   0.61899   0.94272   0.00000  Uiso   1.00
N1453  N     0.43056   0.61888   0.76546   0.00000  Uiso   1.00
H1454  H     0.40878   0.59672   0.78068   0.00000  Uiso   1.00
H1455  H     0.45166   0.60454   0.74279   0.00000  Uiso   1.00
N1456  N     0.56944   0.38115   0.90108   0.00000  Uiso   1.00
H1457  H     0.59128   0.40311   0.88563   0.00000  Uiso   1.00
H1458  H     0.54868   0.39572   0.92385   0.00000  Uiso   1.00
C1459  C     0.58480   0.54176   0.72589   0.00000  Uiso   1.00
O1460  O     0.62951   0.53056   0.72682   0.00000  Uiso   1.00
O1461  O     0.57614   0.57784   0.74973   0.00000  Uiso   1.00
H1462  H     0.60956   0.59086   0.76816   0.00000  Uiso   1.00
C1463  C     0.41541   0.45810   0.94069   0.00000  Uiso   1.00
O1464  O     0.37061   0.46944   0.93831   0.00000  Uiso   1.00
O1465  O     0.42477   0.42144   0.91824   0.00000  Uiso   1.00
H1466  H     0.39176   0.40808   0.89949   0.00000  Uiso   1.00
N1467  N     0.58654   0.53556   0.96655   0.00000  Uiso   1.00
H1468  H     0.57466   0.55160   0.93750   0.00000  Uiso   1.00
H1469  H     0.60912   0.51102   0.95934   0.00000  Uiso   1.00
N1470  N     0.41385   0.46578   0.70265   0.00000  Uiso   1.00
H1471  H     0.38245   0.48422   0.69195   0.00000  Uiso   1.00
H1472  H     0.40385   0.43588   0.68898   0.00000  Uiso   1.00
C1473  C     0.83343   0.42018   0.83272   0.00000  Uiso   1.00
C1474  C     0.83319   0.57984   0.83396   0.00000  Uiso   1.00
C1475  C     0.73389   0.49836   0.82159   0.00000  Uiso   1.00
C1476  C     0.93278   0.50170   0.84508   0.00000  Uiso   1.00
C1477  C     0.67894   0.49047   0.81771   0.00000  Uiso   1.00
C1478  C     0.98774   0.50952   0.84893   0.00000  Uiso   1.00
C1479  C     0.80185   0.35206   0.79761   0.00000  Uiso   1.00
C1480  C     0.86395   0.64807   0.86946   0.00000  Uiso   1.00
C1481  C     0.79969   0.64268   0.79953   0.00000  Uiso   1.00
C1482  C     0.86657   0.35739   0.86726   0.00000  Uiso   1.00
C1483  C     0.83171   0.62404   0.83491   0.00000  Uiso   1.00
C1484  C     0.83464   0.37602   0.83184   0.00000  Uiso   1.00
C1485  C     0.87404   0.51900   0.69644   0.00000  Uiso   1.00
C1486  C     0.79222   0.48135   0.97030   0.00000  Uiso   1.00
C1487  C     0.87449   0.51810   0.98232   0.00000  Uiso   1.00
C1488  C     0.79185   0.48232   0.68483   0.00000  Uiso   1.00
N1489  N     0.83332   0.49999   0.95240   0.00000  Uiso   1.00
N1490  N     0.83335   0.50001   0.71427   0.00000  Uiso   1.00
O1491  O     0.83333   0.43892   0.87154   0.00000  Uiso   1.00
O1492  O     0.83334   0.56108   0.79513   0.00000  Uiso   1.00
O1493  O     0.83333   0.43893   0.79510   0.00000  Uiso   1.00
O1494  O     0.83334   0.56107   0.87157   0.00000  Uiso   1.00
O1495  O     0.75725   0.50000   0.86261   0.00000  Uiso   1.00
O1496  O     0.90942   0.50000   0.80405   0.00000  Uiso   1.00
O1497  O     0.75725   0.50000   0.78617   0.00000  Uiso   1.00
O1498  O     0.90942   0.50000   0.88050   0.00000  Uiso   1.00
Zn1499 Zn    0.83333   0.49999   0.88437   0.00000  Uiso   1.00
Zn1500 Zn    0.83333   0.50001   0.78229   0.00000  Uiso   1.00
C1501  C     0.98949   0.45281   0.79013   0.00000  Uiso   1.00
O1502  O     0.99597   0.44876   0.75073   0.00000  Uiso   1.00
O1503  O     0.96085   0.42207   0.80944   0.00000  Uiso   1.00
H1504  H     0.94717   0.39825   0.78730   0.00000  Uiso   1.00
C1505  C     0.67727   0.54733   0.87619   0.00000  Uiso   1.00
O1506  O     0.67294   0.55088   0.91613   0.00000  Uiso   1.00
O1507  O     0.70395   0.57864   0.85596   0.00000  Uiso   1.00
H1508  H     0.71809   0.60248   0.87793   0.00000  Uiso   1.00
C1509  C     0.77020   0.37022   0.75846   0.00000  Uiso   1.00
O1510  O     0.79178   0.38286   0.72746   0.00000  Uiso   1.00
O1511  O     0.71549   0.36872   0.75505   0.00000  Uiso   1.00
H1512  H     0.69771   0.37813   0.72475   0.00000  Uiso   1.00
C1513  C     0.89442   0.63018   0.90937   0.00000  Uiso   1.00
O1514  O     0.87254   0.62095   0.94148   0.00000  Uiso   1.00
O1515  O     0.94876   0.62809   0.91207   0.00000  Uiso   1.00
H1516  H     0.96594   0.61899   0.94272   0.00000  Uiso   1.00
N1517  N     0.76389   0.61888   0.76546   0.00000  Uiso   1.00
H1518  H     0.74211   0.59672   0.78068   0.00000  Uiso   1.00
H1519  H     0.78499   0.60454   0.74279   0.00000  Uiso   1.00
N1520  N     0.90277   0.38115   0.90108   0.00000  Uiso   1.00
H1521  H     0.92461   0.40311   0.88563   0.00000  Uiso   1.00
H1522  H     0.88201   0.39572   0.92385   0.00000  Uiso   1.00
C1523  C     0.91813   0.54176   0.72589   0.00000  Uiso   1.00
O1524  O     0.96285   0.53056   0.72682   0.00000  Uiso   1.00
O1525  O     0.90947   0.57784   0.74973   0.00000  Uiso   1.00
H1526  H     0.94290   0.59086   0.76816   0.00000  Uiso   1.00
C1527  C     0.74874   0.45810   0.94069   0.00000  Uiso   1.00
O1528  O     0.70394   0.46944   0.93831   0.00000  Uiso   1.00
O1529  O     0.75810   0.42144   0.91824   0.00000  Uiso   1.00
H1530  H     0.72509   0.40808   0.89949   0.00000  Uiso   1.00
N1531  N     0.91987   0.53556   0.96655   0.00000  Uiso   1.00
H1532  H     0.90799   0.55160   0.93750   0.00000  Uiso   1.00
H1533  H     0.94246   0.51102   0.95934   0.00000  Uiso   1.00
N1534  N     0.74718   0.46578   0.70265   0.00000  Uiso   1.00
H1535  H     0.71579   0.48422   0.69195   0.00000  Uiso   1.00
H1536  H     0.73718   0.43588   0.68898   0.00000  Uiso   1.00
C1537  C     0.16676   0.75352   0.83272   0.00000  Uiso   1.00
C1538  C     0.16652   0.91318   0.83396   0.00000  Uiso   1.00
C1539  C     0.06723   0.83169   0.82159   0.00000  Uiso   1.00
C1540  C     0.26611   0.83503   0.84508   0.00000  Uiso   1.00
C1541  C     0.01227   0.82380   0.81771   0.00000  Uiso   1.00
C1542  C     0.32108   0.84286   0.84893   0.00000  Uiso   1.00
C1543  C     0.13518   0.68539   0.79761   0.00000  Uiso   1.00
C1544  C     0.19729   0.98140   0.86946   0.00000  Uiso   1.00
C1545  C     0.13302   0.97601   0.79953   0.00000  Uiso   1.00
C1546  C     0.19991   0.69073   0.86726   0.00000  Uiso   1.00
C1547  C     0.16505   0.95737   0.83491   0.00000  Uiso   1.00
C1548  C     0.16797   0.70935   0.83184   0.00000  Uiso   1.00
C1549  C     0.20737   0.85234   0.69644   0.00000  Uiso   1.00
C1550  C     0.12555   0.81468   0.97030   0.00000  Uiso   1.00
C1551  C     0.20782   0.85144   0.98232   0.00000  Uiso   1.00
C1552  C     0.12518   0.81566   0.68483   0.00000  Uiso   1.00
N1553  N     0.16665   0.83332   0.95240   0.00000  Uiso   1.00
N1554  N     0.16668   0.83334   0.71427   0.00000  Uiso   1.00
O1555  O     0.16666   0.77225   0.87154   0.00000  Uiso   1.00
O1556  O     0.16667   0.89442   0.79513   0.00000  Uiso   1.00
O1557  O     0.16666   0.77226   0.79510   0.00000  Uiso   1.00
O1558  O     0.16667   0.89441   0.87157   0.00000  Uiso   1.00
O1559  O     0.09058   0.83333   0.86261   0.00000  Uiso   1.00
O1560  O     0.24275   0.83334   0.80405   0.00000  Uiso   1.00
O1561  O     0.09058   0.83334   0.78617   0.00000  Uiso   1.00
O1562  O     0.24275   0.83333   0.88050   0.00000  Uiso   1.00
Zn1563 Zn    0.16667   0.83333   0.88437   0.00000  Uiso   1.00
Zn1564 Zn    0.16667   0.83334   0.78229   0.00000  Uiso   1.00
C1565  C     0.32283   0.78615   0.79013   0.00000  Uiso   1.00
O1566  O     0.32931   0.78209   0.75073   0.00000  Uiso   1.00
O1567  O     0.29418   0.75540   0.80944   0.00000  Uiso   1.00
H1568  H     0.28051   0.73158   0.78730   0.00000  Uiso   1.00
C1569  C     0.01060   0.88066   0.87619   0.00000  Uiso   1.00
O1570  O     0.00627   0.88421   0.91613   0.00000  Uiso   1.00
O1571  O     0.03728   0.91197   0.85596   0.00000  Uiso   1.00
H1572  H     0.05142   0.93581   0.87793   0.00000  Uiso   1.00
C1573  C     0.10353   0.70355   0.75846   0.00000  Uiso   1.00
O1574  O     0.12511   0.71619   0.72746   0.00000  Uiso   1.00
O1575  O     0.04882   0.70205   0.75505   0.00000  Uiso   1.00
H1576  H     0.03105   0.71146   0.72475   0.00000  Uiso   1.00
C1577  C     0.22775   0.96351   0.90937   0.00000  Uiso   1.00
O1578  O     0.20587   0.95428   0.94148   0.00000  Uiso   1.00
O1579  O     0.28210   0.96142   0.91207   0.00000  Uiso   1.00
H1580  H     0.29927   0.95232   0.94272   0.00000  Uiso   1.00
N1581  N     0.09723   0.95222   0.76546   0.00000  Uiso   1.00
H1582  H     0.07544   0.93005   0.78068   0.00000  Uiso   1.00
H1583  H     0.11833   0.93788   0.74279   0.00000  Uiso   1.00
N1584  N     0.23610   0.71449   0.90108   0.00000  Uiso   1.00
H1585  H     0.25794   0.73645   0.88563   0.00000  Uiso   1.00
H1586  H     0.21534   0.72906   0.92385   0.00000  Uiso   1.00
C1587  C     0.25146   0.87510   0.72589   0.00000  Uiso   1.00
O1588  O     0.29618   0.86389   0.72682   0.00000  Uiso   1.00
O1589  O     0.24280   0.91117   0.74973   0.00000  Uiso   1.00
H1590  H     0.27623   0.92419   0.76816   0.00000  Uiso   1.00
C1591  C     0.08208   0.79144   0.94069   0.00000  Uiso   1.00
O1592  O     0.03727   0.80277   0.93831   0.00000  Uiso   1.00
O1593  O     0.09144   0.75477   0.91824   0.00000  Uiso   1.00
H1594  H     0.05843   0.74141   0.89949   0.00000  Uiso   1.00
N1595  N     0.25320   0.86889   0.96655   0.00000  Uiso   1.00
H1596  H     0.24132   0.88493   0.93750   0.00000  Uiso   1.00
H1597  H     0.27579   0.84436   0.95934   0.00000  Uiso   1.00
N1598  N     0.08051   0.79912   0.70265   0.00000  Uiso   1.00
H1599  H     0.04912   0.81755   0.69195   0.00000  Uiso   1.00
H1600  H     0.07051   0.76921   0.68898   0.00000  Uiso   1.00
C1601  C     0.50010   0.75352   0.83272   0.00000  Uiso   1.00
C1602  C     0.49985   0.91318   0.83396   0.00000  Uiso   1.00
C1603  C     0.40056   0.83169   0.82159   0.00000  Uiso   1.00
C1604  C     0.59945   0.83503   0.84508   0.00000  Uiso   1.00
C1605  C     0.34560   0.82380   0.81771   0.00000  Uiso   1.00
C1606  C     0.65441   0.84286   0.84893   0.00000  Uiso   1.00
C1607  C     0.46852   0.68539   0.79761   0.00000  Uiso   1.00
C1608  C     0.53062   0.98140   0.86946   0.00000  Uiso   1.00
C1609  C     0.46635   0.97601   0.79953   0.00000  Uiso   1.00
C1610  C     0.53324   0.69073   0.86726   0.00000  Uiso   1.00
C1611  C     0.49838   0.95737   0.83491   0.00000  Uiso   1.00
C1612  C     0.50130   0.70935   0.83184   0.00000  Uiso   1.00
C1613  C     0.54071   0.85234   0.69644   0.00000  Uiso   1.00
C1614  C     0.45888   0.81468   0.97030   0.00000  Uiso   1.00
C1615  C     0.54116   0.85144   0.98232   0.00000  Uiso   1.00
C1616  C     0.45851   0.81566   0.68483   0.00000  Uiso   1.00
N1617  N     0.49999   0.83332   0.95240   0.00000  Uiso   1.00
N1618  N     0.50001   0.83334   0.71427   0.00000  Uiso   1.00
O1619  O     0.50000   0.77225   0.87154   0.00000  Uiso   1.00
O1620  O     0.50000   0.89442   0.79513   0.00000  Uiso   1.00
O1621  O     0.50000   0.77226   0.79510   0.00000  Uiso   1.00
O1622  O     0.50000   0.89441   0.87157   0.00000  Uiso   1.00
O1623  O     0.42392   0.83333   0.86261   0.00000  Uiso   1.00
O1624  O     0.57608   0.83334   0.80405   0.00000  Uiso   1.00
O1625  O     0.42392   0.83334   0.78617   0.00000  Uiso   1.00
O1626  O     0.57608   0.83333   0.88050   0.00000  Uiso   1.00
Zn1627 Zn    0.50000   0.83333   0.88437   0.00000  Uiso   1.00
Zn1628 Zn    0.50000   0.83334   0.78229   0.00000  Uiso   1.00
C1629  C     0.65616   0.78615   0.79013   0.00000  Uiso   1.00
O1630  O     0.66264   0.78209   0.75073   0.00000  Uiso   1.00
O1631  O     0.62752   0.75540   0.80944   0.00000  Uiso   1.00
H1632  H     0.61384   0.73158   0.78730   0.00000  Uiso   1.00
C1633  C     0.34394   0.88066   0.87619   0.00000  Uiso   1.00
O1634  O     0.33960   0.88421   0.91613   0.00000  Uiso   1.00
O1635  O     0.37061   0.91197   0.85596   0.00000  Uiso   1.00
H1636  H     0.38475   0.93581   0.87793   0.00000  Uiso   1.00
C1637  C     0.43687   0.70355   0.75846   0.00000  Uiso   1.00
O1638  O     0.45845   0.71619   0.72746   0.00000  Uiso   1.00
O1639  O     0.38216   0.70205   0.75505   0.00000  Uiso   1.00
H1640  H     0.36438   0.71146   0.72475   0.00000  Uiso   1.00
C1641  C     0.56109   0.96351   0.90937   0.00000  Uiso   1.00
O1642  O     0.53921   0.95428   0.94148   0.00000  Uiso   1.00
O1643  O     0.61543   0.96142   0.91207   0.00000  Uiso   1.00
H1644  H     0.63261   0.95232   0.94272   0.00000  Uiso   1.00
N1645  N     0.43056   0.95222   0.76546   0.00000  Uiso   1.00
H1646  H     0.40878   0.93005   0.78068   0.00000  Uiso   1.00
H1647  H     0.45166   0.93788   0.74279   0.00000  Uiso   1.00
N1648  N     0.56944   0.71449   0.90108   0.00000  Uiso   1.00
H1649  H     0.59128   0.73645   0.88563   0.00000  Uiso   1.00
H1650  H     0.54868   0.72906   0.92385   0.00000  Uiso   1.00
C1651  C     0.58480   0.87510   0.72589   0.00000  Uiso   1.00
O1652  O     0.62951   0.86389   0.72682   0.00000  Uiso   1.00
O1653  O     0.57614   0.91117   0.74973   0.00000  Uiso   1.00
H1654  H     0.60956   0.92419   0.76816   0.00000  Uiso   1.00
C1655  C     0.41541   0.79144   0.94069   0.00000  Uiso   1.00
O1656  O     0.37061   0.80277   0.93831   0.00000  Uiso   1.00
O1657  O     0.42477   0.75477   0.91824   0.00000  Uiso   1.00
H1658  H     0.39176   0.74141   0.89949   0.00000  Uiso   1.00
N1659  N     0.58654   0.86889   0.96655   0.00000  Uiso   1.00
H1660  H     0.57466   0.88493   0.93750   0.00000  Uiso   1.00
H1661  H     0.60912   0.84436   0.95934   0.00000  Uiso   1.00
N1662  N     0.41385   0.79912   0.70265   0.00000  Uiso   1.00
H1663  H     0.38245   0.81755   0.69195   0.00000  Uiso   1.00
H1664  H     0.40385   0.76921   0.68898   0.00000  Uiso   1.00
C1665  C     0.83343   0.75352   0.83272   0.00000  Uiso   1.00
C1666  C     0.83319   0.91318   0.83396   0.00000  Uiso   1.00
C1667  C     0.73389   0.83169   0.82159   0.00000  Uiso   1.00
C1668  C     0.93278   0.83503   0.84508   0.00000  Uiso   1.00
C1669  C     0.67894   0.82380   0.81771   0.00000  Uiso   1.00
C1670  C     0.98774   0.84286   0.84893   0.00000  Uiso   1.00
C1671  C     0.80185   0.68539   0.79761   0.00000  Uiso   1.00
C1672  C     0.86395   0.98140   0.86946   0.00000  Uiso   1.00
C1673  C     0.79969   0.97601   0.79953   0.00000  Uiso   1.00
C1674  C     0.86657   0.69073   0.86726   0.00000  Uiso   1.00
C1675  C     0.83171   0.95737   0.83491   0.00000  Uiso   1.00
C1676  C     0.83464   0.70935   0.83184   0.00000  Uiso   1.00
C1677  C     0.87404   0.85234   0.69644   0.00000  Uiso   1.00
C1678  C     0.79222   0.81468   0.97030   0.00000  Uiso   1.00
C1679  C     0.87449   0.85144   0.98232   0.00000  Uiso   1.00
C1680  C     0.79185   0.81566   0.68483   0.00000  Uiso   1.00
N1681  N     0.83332   0.83332   0.95240   0.00000  Uiso   1.00
N1682  N     0.83335   0.83334   0.71427   0.00000  Uiso   1.00
O1683  O     0.83333   0.77225   0.87154   0.00000  Uiso   1.00
O1684  O     0.83334   0.89442   0.79513   0.00000  Uiso   1.00
O1685  O     0.83333   0.77226   0.79510   0.00000  Uiso   1.00
O1686  O     0.83334   0.89441   0.87157   0.00000  Uiso   1.00
O1687  O     0.75725   0.83333   0.86261   0.00000  Uiso   1.00
O1688  O     0.90942   0.83334   0.80405   0.00000  Uiso   1.00
O1689  O     0.75725   0.83334   0.78617   0.00000  Uiso   1.00
O1690  O     0.90942   0.83333   0.88050   0.00000  Uiso   1.00
Zn1691 Zn    0.83333   0.83333   0.88437   0.00000  Uiso   1.00
Zn1692 Zn    0.83333   0.83334   0.78229   0.00000  Uiso   1.00
C1693  C     0.98949   0.78615   0.79013   0.00000  Uiso   1.00
O1694  O     0.99597   0.78209   0.75073   0.00000  Uiso   1.00
O1695  O     0.96085   0.75540   0.80944   0.00000  Uiso   1.00
H1696  H     0.94717   0.73158   0.78730   0.00000  Uiso   1.00
C1697  C     0.67727   0.88066   0.87619   0.00000  Uiso   1.00
O1698  O     0.67294   0.88421   0.91613   0.00000  Uiso   1.00
O1699  O     0.70395   0.91197   0.85596   0.00000  Uiso   1.00
H1700  H     0.71809   0.93581   0.87793   0.00000  Uiso   1.00
C1701  C     0.77020   0.70355   0.75846   0.00000  Uiso   1.00
O1702  O     0.79178   0.71619   0.72746   0.00000  Uiso   1.00
O1703  O     0.71549   0.70205   0.75505   0.00000  Uiso   1.00
H1704  H     0.69771   0.71146   0.72475   0.00000  Uiso   1.00
C1705  C     0.89442   0.96351   0.90937   0.00000  Uiso   1.00
O1706  O     0.87254   0.95428   0.94148   0.00000  Uiso   1.00
O1707  O     0.94876   0.96142   0.91207   0.00000  Uiso   1.00
H1708  H     0.96594   0.95232   0.94272   0.00000  Uiso   1.00
N1709  N     0.76389   0.95222   0.76546   0.00000  Uiso   1.00
H1710  H     0.74211   0.93005   0.78068   0.00000  Uiso   1.00
H1711  H     0.78499   0.93788   0.74279   0.00000  Uiso   1.00
N1712  N     0.90277   0.71449   0.90108   0.00000  Uiso   1.00
H1713  H     0.92461   0.73645   0.88563   0.00000  Uiso   1.00
H1714  H     0.88201   0.72906   0.92385   0.00000  Uiso   1.00
C1715  C     0.91813   0.87510   0.72589   0.00000  Uiso   1.00
O1716  O     0.96285   0.86389   0.72682   0.00000  Uiso   1.00
O1717  O     0.90947   0.91117   0.74973   0.00000  Uiso   1.00
H1718  H     0.94290   0.92419   0.76816   0.00000  Uiso   1.00
C1719  C     0.74874   0.79144   0.94069   0.00000  Uiso   1.00
O1720  O     0.70394   0.80277   0.93831   0.00000  Uiso   1.00
O1721  O     0.75810   0.75477   0.91824   0.00000  Uiso   1.00
H1722  H     0.72509   0.74141   0.89949   0.00000  Uiso   1.00
N1723  N     0.91987   0.86889   0.96655   0.00000  Uiso   1.00
H1724  H     0.90799   0.88493   0.93750   0.00000  Uiso   1.00
H1725  H     0.94246   0.84436   0.95934   0.00000  Uiso   1.00
N1726  N     0.74718   0.79912   0.70265   0.00000  Uiso   1.00
H1727  H     0.71579   0.81755   0.69195   0.00000  Uiso   1.00
H1728  H     0.73718   0.76921   0.68898   0.00000  Uiso   1.00
loop_
_geom_bond_atom_site_label_1
_geom_bond_atom_site_label_2
_geom_bond_distance
_geom_bond_site_symmetry_2
_ccdc_geom_bond_type
C1     O21     1.293   .     A
C1     C12     1.429   .     S
C1     O19     1.295   .     A
C2     O22     1.293   .     A
C2     C11     1.430   .     S
C2     O20     1.296   .     A
C3     O23     1.280   .     A
C3     C5      1.413   .     S
C3     O25     1.297   .     A
C4     O26     1.298   .     A
C4     O24     1.280   .     A
C4     C6      1.413   .     S
C5     C134    1.356   1_455 S
C5     C157    1.493   1_455 S
C6     C69     1.356   .     S
C6     C97     1.493   .     S
C7     C12     1.409   .     A
C7     C37     1.475   .     S
C7     C393    1.382   1_545 S
C8     C11     1.410   .     A
C8     C41     1.475   .     S
C8     C202    1.381   .     S
C9     N45     1.441   .     S
C9     C11     1.409   .     A
C9     C199    1.382   .     S
C10    C12     1.408   .     A
C10    N48     1.442   .     S
C10    C392    1.381   1_545 S
C13    N18     1.373   .     A
C13    C51     1.477   .     S
C13    C1167   1.421   1_554 S
C14    N17     1.378   .     A
C14    C55     1.476   .     S
C14    C592    1.433   .     S
C15    N17     1.374   .     A
C15    N59     1.424   .     S
C15    C589    1.421   .     S
C16    N62     1.427   .     S
C16    N18     1.367   .     A
C16    C1166   1.433   1_554 S
N17    Zn27    2.035   .     S
N18    Zn28    2.035   .     S
O19    Zn27    2.000   .     S
O20    Zn28    2.000   .     S
O21    Zn28    2.021   .     S
O22    Zn27    2.021   .     S
O23    Zn27    1.970   .     S
O24    Zn28    1.970   .     S
O25    Zn28    1.982   .     S
O26    Zn27    1.982   .     S
C29    O30     1.220   .     D
C29    O31     1.398   .     S
C29    C69     1.493   .     S
O31    H32     1.014   .     S
C33    O34     1.220   .     D
C33    O35     1.398   .     S
C33    C134    1.493   1_455 S
O35    H36     1.014   .     S
C37    O38     1.222   .     D
C37    O39     1.397   .     S
O39    H40     1.013   .     S
C41    O42     1.223   .     D
C41    O43     1.396   .     S
O43    H44     1.014   .     S
N45    H46     1.045   .     S
N45    H47     1.045   .     S
N48    H50     1.045   .     S
N48    H49     1.045   .     S
C51    O52     1.222   .     D
C51    O53     1.395   .     S
O53    H54     1.014   .     S
C55    O56     1.222   .     D
C55    O57     1.395   .     S
O57    H58     1.014   .     S
N59    H60     1.038   .     S
N59    H61     1.044   .     S
N62    H63     1.045   .     S
N62    H64     1.043   .     S
C65    O85     1.293   .     A
C65    C76     1.429   .     S
C65    O83     1.295   .     A
C66    O86     1.293   .     A
C66    C75     1.430   .     S
C66    O84     1.296   .     A
C67    O87     1.280   .     A
C67    C69     1.413   .     S
C67    O89     1.297   .     A
C68    O90     1.298   .     A
C68    O88     1.280   .     A
C68    C70     1.413   .     S
C70    C133    1.356   .     S
C70    C161    1.493   .     S
C71    C76     1.409   .     A
C71    C101    1.475   .     S
C71    C457    1.382   1_545 S
C72    C75     1.410   .     A
C72    C105    1.475   .     S
C72    C266    1.381   .     S
C73    N109    1.441   .     S
C73    C75     1.409   .     A
C73    C263    1.382   .     S
C74    C76     1.408   .     A
C74    N112    1.442   .     S
C74    C456    1.381   1_545 S
C77    N82     1.373   .     A
C77    C115    1.477   .     S
C77    C1231   1.421   1_554 S
C78    N81     1.378   .     A
C78    C119    1.476   .     S
C78    C656    1.433   .     S
C79    N81     1.374   .     A
C79    N123    1.424   .     S
C79    C653    1.421   .     S
C80    N126    1.427   .     S
C80    N82     1.367   .     A
C80    C1230   1.433   1_554 S
N81    Zn91    2.035   .     S
N82    Zn92    2.035   .     S
O83    Zn91    2.000   .     S
O84    Zn92    2.000   .     S
O85    Zn92    2.021   .     S
O86    Zn91    2.021   .     S
O87    Zn91    1.970   .     S
O88    Zn92    1.970   .     S
O89    Zn92    1.982   .     S
O90    Zn91    1.982   .     S
C93    O94     1.220   .     D
C93    O95     1.398   .     S
C93    C133    1.493   .     S
O95    H96     1.014   .     S
C97    O98     1.220   .     D
C97    O99     1.398   .     S
O99    H100    1.014   .     S
C101   O102    1.222   .     D
C101   O103    1.397   .     S
O103   H104    1.013   .     S
C105   O106    1.223   .     D
C105   O107    1.396   .     S
O107   H108    1.014   .     S
N109   H110    1.045   .     S
N109   H111    1.045   .     S
N112   H114    1.045   .     S
N112   H113    1.045   .     S
C115   O116    1.222   .     D
C115   O117    1.395   .     S
O117   H118    1.014   .     S
C119   O120    1.222   .     D
C119   O121    1.395   .     S
O121   H122    1.014   .     S
N123   H124    1.038   .     S
N123   H125    1.044   .     S
N126   H127    1.045   .     S
N126   H128    1.043   .     S
C129   O149    1.293   .     A
C129   C140    1.429   .     S
C129   O147    1.295   .     A
C130   O150    1.293   .     A
C130   C139    1.430   .     S
C130   O148    1.296   .     A
C131   O151    1.280   .     A
C131   C133    1.413   .     S
C131   O153    1.297   .     A
C132   O154    1.298   .     A
C132   O152    1.280   .     A
C132   C134    1.413   .     S
C134   C5      1.356   1_655 S
C134   C33     1.493   1_655 S
C135   C140    1.409   .     A
C135   C165    1.475   .     S
C135   C521    1.382   1_545 S
C136   C139    1.410   .     A
C136   C169    1.475   .     S
C136   C330    1.381   .     S
C137   N173    1.441   .     S
C137   C139    1.409   .     A
C137   C327    1.382   .     S
C138   C140    1.408   .     A
C138   N176    1.442   .     S
C138   C520    1.381   1_545 S
C141   N146    1.373   .     A
C141   C179    1.477   .     S
C141   C1295   1.421   1_554 S
C142   N145    1.378   .     A
C142   C183    1.476   .     S
C142   C720    1.433   .     S
C143   N145    1.374   .     A
C143   N187    1.424   .     S
C143   C717    1.421   .     S
C144   N190    1.427   .     S
C144   N146    1.367   .     A
C144   C1294   1.433   1_554 S
N145   Zn155   2.035   .     S
N146   Zn156   2.035   .     S
O147   Zn155   2.000   .     S
O148   Zn156   2.000   .     S
O149   Zn156   2.021   .     S
O150   Zn155   2.021   .     S
O151   Zn155   1.970   .     S
O152   Zn156   1.970   .     S
O153   Zn156   1.982   .     S
O154   Zn155   1.982   .     S
C157   O158    1.220   .     D
C157   O159    1.398   .     S
C157   C5      1.493   1_655 S
O159   H160    1.014   .     S
C161   O162    1.220   .     D
C161   O163    1.398   .     S
O163   H164    1.014   .     S
C165   O166    1.222   .     D
C165   O167    1.397   .     S
O167   H168    1.013   .     S
C169   O170    1.223   .     D
C169   O171    1.396   .     S
O171   H172    1.014   .     S
N173   H174    1.045   .     S
N173   H175    1.045   .     S
N176   H178    1.045   .     S
N176   H177    1.045   .     S
C179   O180    1.222   .     D
C179   O181    1.395   .     S
O181   H182    1.014   .     S
C183   O184    1.222   .     D
C183   O185    1.395   .     S
O185   H186    1.014   .     S
N187   H188    1.038   .     S
N187   H189    1.044   .     S
N190   H191    1.045   .     S
N190   H192    1.043   .     S
C193   O213    1.293   .     A
C193   C204    1.429   .     S
C193   O211    1.295   .     A
C194   O214    1.293   .     A
C194   C203    1.430   .     S
C194   O212    1.296   .     A
C195   O215    1.280   .     A
C195   C197    1.413   .     S
C195   O217    1.297   .     A
C196   O218    1.298   .     A
C196   O216    1.280   .     A
C196   C198    1.413   .     S
C197   C326    1.356   1_455 S
C197   C349    1.493   1_455 S
C198   C261    1.356   .     S
C198   C289    1.493   .     S
C199   C204    1.409   .     A
C199   C229    1.475   .     S
C200   C203    1.410   .     A
C200   C233    1.475   .     S
C200   C394    1.381   .     S
C201   N237    1.441   .     S
C201   C203    1.409   .     A
C201   C391    1.382   .     S
C202   C204    1.408   .     A
C202   N240    1.442   .     S
C205   N210    1.373   .     A
C205   C243    1.477   .     S
C205   C1359   1.421   1_554 S
C206   N209    1.378   .     A
C206   C247    1.476   .     S
C206   C784    1.433   .     S
C207   N209    1.374   .     A
C207   N251    1.424   .     S
C207   C781    1.421   .     S
C208   N254    1.427   .     S
C208   N210    1.367   .     A
C208   C1358   1.433   1_554 S
N209   Zn219   2.035   .     S
N210   Zn220   2.035   .     S
O211   Zn219   2.000   .     S
O212   Zn220   2.000   .     S
O213   Zn220   2.021   .     S
O214   Zn219   2.021   .     S
O215   Zn219   1.970   .     S
O216   Zn220   1.970   .     S
O217   Zn220   1.982   .     S
O218   Zn219   1.982   .     S
C221   O222    1.220   .     D
C221   O223    1.398   .     S
C221   C261    1.493   .     S
O223   H224    1.014   .     S
C225   O226    1.220   .     D
C225   O227    1.398   .     S
C225   C326    1.493   1_455 S
O227   H228    1.014   .     S
C229   O230    1.222   .     D
C229   O231    1.397   .     S
O231   H232    1.013   .     S
C233   O234    1.223   .     D
C233   O235    1.396   .     S
O235   H236    1.014   .     S
N237   H238    1.045   .     S
N237   H239    1.045   .     S
N240   H242    1.045   .     S
N240   H241    1.045   .     S
C243   O244    1.222   .     D
C243   O245    1.395   .     S
O245   H246    1.014   .     S
C247   O248    1.222   .     D
C247   O249    1.395   .     S
O249   H250    1.014   .     S
N251   H252    1.038   .     S
N251   H253    1.044   .     S
N254   H255    1.045   .     S
N254   H256    1.043   .     S
C257   O277    1.293   .     A
C257   C268    1.429   .     S
C257   O275    1.295   .     A
C258   O278    1.293   .     A
C258   C267    1.430   .     S
C258   O276    1.296   .     A
C259   O279    1.280   .     A
C259   C261    1.413   .     S
C259   O281    1.297   .     A
C260   O282    1.298   .     A
C260   O280    1.280   .     A
C260   C262    1.413   .     S
C262   C325    1.356   .     S
C262   C353    1.493   .     S
C263   C268    1.409   .     A
C263   C293    1.475   .     S
C264   C267    1.410   .     A
C264   C297    1.475   .     S
C264   C458    1.381   .     S
C265   N301    1.441   .     S
C265   C267    1.409   .     A
C265   C455    1.382   .     S
C266   C268    1.408   .     A
C266   N304    1.442   .     S
C269   N274    1.373   .     A
C269   C307    1.477   .     S
C269   C1423   1.421   1_554 S
C270   N273    1.378   .     A
C270   C311    1.476   .     S
C270   C848    1.433   .     S
C271   N273    1.374   .     A
C271   N315    1.424   .     S
C271   C845    1.421   .     S
C272   N318    1.427   .     S
C272   N274    1.367   .     A
C272   C1422   1.433   1_554 S
N273   Zn283   2.035   .     S
N274   Zn284   2.035   .     S
O275   Zn283   2.000   .     S
O276   Zn284   2.000   .     S
O277   Zn284   2.021   .     S
O278   Zn283   2.021   .     S
O279   Zn283   1.970   .     S
O280   Zn284   1.970   .     S
O281   Zn284   1.982   .     S
O282   Zn283   1.982   .     S
C285   O286    1.220   .     D
C285   O287    1.398   .     S
C285   C325    1.493   .     S
O287   H288    1.014   .     S
C289   O290    1.220   .     D
C289   O291    1.398   .     S
O291   H292    1.014   .     S
C293   O294    1.222   .     D
C293   O295    1.397   .     S
O295   H296    1.013   .     S
C297   O298    1.223   .     D
C297   O299    1.396   .     S
O299   H300    1.014   .     S
N301   H302    1.045   .     S
N301   H303    1.045   .     S
N304   H306    1.045   .     S
N304   H305    1.045   .     S
C307   O308    1.222   .     D
C307   O309    1.395   .     S
O309   H310    1.014   .     S
C311   O312    1.222   .     D
C311   O313    1.395   .     S
O313   H314    1.014   .     S
N315   H316    1.038   .     S
N315   H317    1.044   .     S
N318   H319    1.045   .     S
N318   H320    1.043   .     S
C321   O341    1.293   .     A
C321   C332    1.429   .     S
C321   O339    1.295   .     A
C322   O342    1.293   .     A
C322   C331    1.430   .     S
C322   O340    1.296   .     A
C323   O343    1.280   .     A
C323   C325    1.413   .     S
C323   O345    1.297   .     A
C324   O346    1.298   .     A
C324   O344    1.280   .     A
C324   C326    1.413   .     S
C326   C197    1.356   1_655 S
C326   C225    1.493   1_655 S
C327   C332    1.409   .     A
C327   C357    1.475   .     S
C328   C331    1.410   .     A
C328   C361    1.475   .     S
C328   C522    1.381   .     S
C329   N365    1.441   .     S
C329   C331    1.409   .     A
C329   C519    1.382   .     S
C330   C332    1.408   .     A
C330   N368    1.442   .     S
C333   N338    1.373   .     A
C333   C371    1.477   .     S
C333   C1487   1.421   1_554 S
C334   N337    1.378   .     A
C334   C375    1.476   .     S
C334   C912    1.433   .     S
C335   N337    1.374   .     A
C335   N379    1.424   .     S
C335   C909    1.421   .     S
C336   N382    1.427   .     S
C336   N338    1.367   .     A
C336   C1486   1.433   1_554 S
N337   Zn347   2.035   .     S
N338   Zn348   2.035   .     S
O339   Zn347   2.000   .     S
O340   Zn348   2.000   .     S
O341   Zn348   2.021   .     S
O342   Zn347   2.021   .     S
O343   Zn347   1.970   .     S
O344   Zn348   1.970   .     S
O345   Zn348   1.982   .     S
O346   Zn347   1.982   .     S
C349   O350    1.220   .     D
C349   O351    1.398   .     S
C349   C197    1.493   1_655 S
O351   H352    1.014   .     S
C353   O354    1.220   .     D
C353   O355    1.398   .     S
O355   H356    1.014   .     S
C357   O358    1.222   .     D
C357   O359    1.397   .     S
O359   H360    1.013   .     S
C361   O362    1.223   .     D
C361   O363    1.396   .     S
O363   H364    1.014   .     S
N365   H366    1.045   .     S
N365   H367    1.045   .     S
N368   H370    1.045   .     S
N368   H369    1.045   .     S
C371   O372    1.222   .     D
C371   O373    1.395   .     S
O373   H374    1.014   .     S
C375   O376    1.222   .     D
C375   O377    1.395   .     S
O377   H378    1.014   .     S
N379   H380    1.038   .     S
N379   H381    1.044   .     S
N382   H383    1.045   .     S
N382   H384    1.043   .     S
C385   O405    1.293   .     A
C385   C396    1.429   .     S
C385   O403    1.295   .     A
C386   O406    1.293   .     A
C386   C395    1.430   .     S
C386   O404    1.296   .     A
C387   O407    1.280   .     A
C387   C389    1.413   .     S
C387   O409    1.297   .     A
C388   O410    1.298   .     A
C388   O408    1.280   .     A
C388   C390    1.413   .     S
C389   C518    1.356   1_455 S
C389   C541    1.493   1_455 S
C390   C453    1.356   .     S
C390   C481    1.493   .     S
C391   C396    1.409   .     A
C391   C421    1.475   .     S
C392   C395    1.410   .     A
C392   C425    1.475   .     S
C392   C10     1.381   1_565 S
C393   N429    1.441   .     S
C393   C395    1.409   .     A
C393   C7      1.382   1_565 S
C394   C396    1.408   .     A
C394   N432    1.442   .     S
C397   N402    1.373   .     A
C397   C435    1.477   .     S
C397   C1551   1.421   1_554 S
C398   N401    1.378   .     A
C398   C439    1.476   .     S
C398   C976    1.433   .     S
C399   N401    1.374   .     A
C399   N443    1.424   .     S
C399   C973    1.421   .     S
C400   N446    1.427   .     S
C400   N402    1.367   .     A
C400   C1550   1.433   1_554 S
N401   Zn411   2.035   .     S
N402   Zn412   2.035   .     S
O403   Zn411   2.000   .     S
O404   Zn412   2.000   .     S
O405   Zn412   2.021   .     S
O406   Zn411   2.021   .     S
O407   Zn411   1.970   .     S
O408   Zn412   1.970   .     S
O409   Zn412   1.982   .     S
O410   Zn411   1.982   .     S
C413   O414    1.220   .     D
C413   O415    1.398   .     S
C413   C453    1.493   .     S
O415   H416    1.014   .     S
C417   O418    1.220   .     D
C417   O419    1.398   .     S
C417   C518    1.493   1_455 S
O419   H420    1.014   .     S
C421   O422    1.222   .     D
C421   O423    1.397   .     S
O423   H424    1.013   .     S
C425   O426    1.223   .     D
C425   O427    1.396   .     S
O427   H428    1.014   .     S
N429   H430    1.045   .     S
N429   H431    1.045   .     S
N432   H434    1.045   .     S
N432   H433    1.045   .     S
C435   O436    1.222   .     D
C435   O437    1.395   .     S
O437   H438    1.014   .     S
C439   O440    1.222   .     D
C439   O441    1.395   .     S
O441   H442    1.014   .     S
N443   H444    1.038   .     S
N443   H445    1.044   .     S
N446   H447    1.045   .     S
N446   H448    1.043   .     S
C449   O469    1.293   .     A
C449   C460    1.429   .     S
C449   O467    1.295   .     A
C450   O470    1.293   .     A
C450   C459    1.430   .     S
C450   O468    1.296   .     A
C451   O471    1.280   .     A
C451   C453    1.413   .     S
C451   O473    1.297   .     A
C452   O474    1.298   .     A
C452   O472    1.280   .     A
C452   C454    1.413   .     S
C454   C517    1.356   .     S
C454   C545    1.493   .     S
C455   C460    1.409   .     A
C455   C485    1.475   .     S
C456   C459    1.410   .     A
C456   C489    1.475   .     S
C456   C74     1.381   1_565 S
C457   N493    1.441   .     S
C457   C459    1.409   .     A
C457   C71     1.382   1_565 S
C458   C460    1.408   .     A
C458   N496    1.442   .     S
C461   N466    1.373   .     A
C461   C499    1.477   .     S
C461   C1615   1.421   1_554 S
C462   N465    1.378   .     A
C462   C503    1.476   .     S
C462   C1040   1.433   .     S
C463   N465    1.374   .     A
C463   N507    1.424   .     S
C463   C1037   1.421   .     S
C464   N510    1.427   .     S
C464   N466    1.367   .     A
C464   C1614   1.433   1_554 S
N465   Zn475   2.035   .     S
N466   Zn476   2.035   .     S
O467   Zn475   2.000   .     S
O468   Zn476   2.000   .     S
O469   Zn476   2.021   .     S
O470   Zn475   2.021   .     S
O471   Zn475   1.970   .     S
O472   Zn476   1.970   .     S
O473   Zn476   1.982   .     S
O474   Zn475   1.982   .     S
C477   O478    1.220   .     D
C477   O479    1.398   .     S
C477   C517    1.493   .     S
O479   H480    1.014   .     S
C481   O482    1.220   .     D
C481   O483    1.398   .     S
O483   H484    1.014   .     S
C485   O486    1.222   .     D
C485   O487    1.397   .     S
O487   H488    1.013   .     S
C489   O490    1.223   .     D
C489   O491    1.396   .     S
O491   H492    1.014   .     S
N493   H494    1.045   .     S
N493   H495    1.045   .     S
N496   H498    1.045   .     S
N496   H497    1.045   .     S
C499   O500    1.222   .     D
C499   O501    1.395   .     S
O501   H502    1.014   .     S
C503   O504    1.222   .     D
C503   O505    1.395   .     S
O505   H506    1.014   .     S
N507   H508    1.038   .     S
N507   H509    1.044   .     S
N510   H511    1.045   .     S
N510   H512    1.043   .     S
C513   O533    1.293   .     A
C513   C524    1.429   .     S
C513   O531    1.295   .     A
C514   O534    1.293   .     A
C514   C523    1.430   .     S
C514   O532    1.296   .     A
C515   O535    1.280   .     A
C515   C517    1.413   .     S
C515   O537    1.297   .     A
C516   O538    1.298   .     A
C516   O536    1.280   .     A
C516   C518    1.413   .     S
C518   C389    1.356   1_655 S
C518   C417    1.493   1_655 S
C519   C524    1.409   .     A
C519   C549    1.475   .     S
C520   C523    1.410   .     A
C520   C553    1.475   .     S
C520   C138    1.381   1_565 S
C521   N557    1.441   .     S
C521   C523    1.409   .     A
C521   C135    1.382   1_565 S
C522   C524    1.408   .     A
C522   N560    1.442   .     S
C525   N530    1.373   .     A
C525   C563    1.477   .     S
C525   C1679   1.421   1_554 S
C526   N529    1.378   .     A
C526   C567    1.476   .     S
C526   C1104   1.433   .     S
C527   N529    1.374   .     A
C527   N571    1.424   .     S
C527   C1101   1.421   .     S
C528   N574    1.427   .     S
C528   N530    1.367   .     A
C528   C1678   1.433   1_554 S
N529   Zn539   2.035   .     S
N530   Zn540   2.035   .     S
O531   Zn539   2.000   .     S
O532   Zn540   2.000   .     S
O533   Zn540   2.021   .     S
O534   Zn539   2.021   .     S
O535   Zn539   1.970   .     S
O536   Zn540   1.970   .     S
O537   Zn540   1.982   .     S
O538   Zn539   1.982   .     S
C541   O542    1.220   .     D
C541   O543    1.398   .     S
C541   C389    1.493   1_655 S
O543   H544    1.014   .     S
C545   O546    1.220   .     D
C545   O547    1.398   .     S
O547   H548    1.014   .     S
C549   O550    1.222   .     D
C549   O551    1.397   .     S
O551   H552    1.013   .     S
C553   O554    1.223   .     D
C553   O555    1.396   .     S
O555   H556    1.014   .     S
N557   H558    1.045   .     S
N557   H559    1.045   .     S
N560   H562    1.045   .     S
N560   H561    1.045   .     S
C563   O564    1.222   .     D
C563   O565    1.395   .     S
O565   H566    1.014   .     S
C567   O568    1.222   .     D
C567   O569    1.395   .     S
O569   H570    1.014   .     S
N571   H572    1.038   .     S
N571   H573    1.044   .     S
N574   H575    1.045   .     S
N574   H576    1.043   .     S
C577   O597    1.293   .     A
C577   C588    1.429   .     S
C577   O595    1.295   .     A
C578   O598    1.293   .     A
C578   C587    1.430   .     S
C578   O596    1.296   .     A
C579   O599    1.280   .     A
C579   C581    1.413   .     S
C579   O601    1.297   .     A
C580   O602    1.298   .     A
C580   O600    1.280   .     A
C580   C582    1.413   .     S
C581   C710    1.356   1_455 S
C581   C733    1.493   1_455 S
C582   C645    1.356   .     S
C582   C673    1.493   .     S
C583   C588    1.409   .     A
C583   C613    1.475   .     S
C583   C969    1.382   1_545 S
C584   C587    1.410   .     A
C584   C617    1.475   .     S
C584   C778    1.381   .     S
C585   N621    1.441   .     S
C585   C587    1.409   .     A
C585   C775    1.382   .     S
C586   C588    1.408   .     A
C586   N624    1.442   .     S
C586   C968    1.381   1_545 S
C589   N594    1.373   .     A
C589   C627    1.477   .     S
C590   N593    1.378   .     A
C590   C631    1.476   .     S
C590   C1168   1.433   .     S
C591   N593    1.374   .     A
C591   N635    1.424   .     S
C591   C1165   1.421   .     S
C592   N638    1.427   .     S
C592   N594    1.367   .     A
N593   Zn603   2.035   .     S
N594   Zn604   2.035   .     S
O595   Zn603   2.000   .     S
O596   Zn604   2.000   .     S
O597   Zn604   2.021   .     S
O598   Zn603   2.021   .     S
O599   Zn603   1.970   .     S
O600   Zn604   1.970   .     S
O601   Zn604   1.982   .     S
O602   Zn603   1.982   .     S
C605   O606    1.220   .     D
C605   O607    1.398   .     S
C605   C645    1.493   .     S
O607   H608    1.014   .     S
C609   O610    1.220   .     D
C609   O611    1.398   .     S
C609   C710    1.493   1_455 S
O611   H612    1.014   .     S
C613   O614    1.222   .     D
C613   O615    1.397   .     S
O615   H616    1.013   .     S
C617   O618    1.223   .     D
C617   O619    1.396   .     S
O619   H620    1.014   .     S
N621   H622    1.045   .     S
N621   H623    1.045   .     S
N624   H626    1.045   .     S
N624   H625    1.045   .     S
C627   O628    1.222   .     D
C627   O629    1.395   .     S
O629   H630    1.014   .     S
C631   O632    1.222   .     D
C631   O633    1.395   .     S
O633   H634    1.014   .     S
N635   H636    1.038   .     S
N635   H637    1.044   .     S
N638   H639    1.045   .     S
N638   H640    1.043   .     S
C641   O661    1.293   .     A
C641   C652    1.429   .     S
C641   O659    1.295   .     A
C642   O662    1.293   .     A
C642   C651    1.430   .     S
C642   O660    1.296   .     A
C643   O663    1.280   .     A
C643   C645    1.413   .     S
C643   O665    1.297   .     A
C644   O666    1.298   .     A
C644   O664    1.280   .     A
C644   C646    1.413   .     S
C646   C709    1.356   .     S
C646   C737    1.493   .     S
C647   C652    1.409   .     A
C647   C677    1.475   .     S
C647   C1033   1.382   1_545 S
C648   C651    1.410   .     A
C648   C681    1.475   .     S
C648   C842    1.381   .     S
C649   N685    1.441   .     S
C649   C651    1.409   .     A
C649   C839    1.382   .     S
C650   C652    1.408   .     A
C650   N688    1.442   .     S
C650   C1032   1.381   1_545 S
C653   N658    1.373   .     A
C653   C691    1.477   .     S
C654   N657    1.378   .     A
C654   C695    1.476   .     S
C654   C1232   1.433   .     S
C655   N657    1.374   .     A
C655   N699    1.424   .     S
C655   C1229   1.421   .     S
C656   N702    1.427   .     S
C656   N658    1.367   .     A
N657   Zn667   2.035   .     S
N658   Zn668   2.035   .     S
O659   Zn667   2.000   .     S
O660   Zn668   2.000   .     S
O661   Zn668   2.021   .     S
O662   Zn667   2.021   .     S
O663   Zn667   1.970   .     S
O664   Zn668   1.970   .     S
O665   Zn668   1.982   .     S
O666   Zn667   1.982   .     S
C669   O670    1.220   .     D
C669   O671    1.398   .     S
C669   C709    1.493   .     S
O671   H672    1.014   .     S
C673   O674    1.220   .     D
C673   O675    1.398   .     S
O675   H676    1.014   .     S
C677   O678    1.222   .     D
C677   O679    1.397   .     S
O679   H680    1.013   .     S
C681   O682    1.223   .     D
C681   O683    1.396   .     S
O683   H684    1.014   .     S
N685   H686    1.045   .     S
N685   H687    1.045   .     S
N688   H690    1.045   .     S
N688   H689    1.045   .     S
C691   O692    1.222   .     D
C691   O693    1.395   .     S
O693   H694    1.014   .     S
C695   O696    1.222   .     D
C695   O697    1.395   .     S
O697   H698    1.014   .     S
N699   H700    1.038   .     S
N699   H701    1.044   .     S
N702   H703    1.045   .     S
N702   H704    1.043   .     S
C705   O725    1.293   .     A
C705   C716    1.429   .     S
C705   O723    1.295   .     A
C706   O726    1.293   .     A
C706   C715    1.430   .     S
C706   O724    1.296   .     A
C707   O727    1.280   .     A
C707   C709    1.413   .     S
C707   O729    1.297   .     A
C708   O730    1.298   .     A
C708   O728    1.280   .     A
C708   C710    1.413   .     S
C710   C581    1.356   1_655 S
C710   C609    1.493   1_655 S
C711   C716    1.409   .     A
C711   C741    1.475   .     S
C711   C1097   1.382   1_545 S
C712   C715    1.410   .     A
C712   C745    1.475   .     S
C712   C906    1.381   .     S
C713   N749    1.441   .     S
C713   C715    1.409   .     A
C713   C903    1.382   .     S
C714   C716    1.408   .     A
C714   N752    1.442   .     S
C714   C1096   1.381   1_545 S
C717   N722    1.373   .     A
C717   C755    1.477   .     S
C718   N721    1.378   .     A
C718   C759    1.476   .     S
C718   C1296   1.433   .     S
C719   N721    1.374   .     A
C719   N763    1.424   .     S
C719   C1293   1.421   .     S
C720   N766    1.427   .     S
C720   N722    1.367   .     A
N721   Zn731   2.035   .     S
N722   Zn732   2.035   .     S
O723   Zn731   2.000   .     S
O724   Zn732   2.000   .     S
O725   Zn732   2.021   .     S
O726   Zn731   2.021   .     S
O727   Zn731   1.970   .     S
O728   Zn732   1.970   .     S
O729   Zn732   1.982   .     S
O730   Zn731   1.982   .     S
C733   O734    1.220   .     D
C733   O735    1.398   .     S
C733   C581    1.493   1_655 S
O735   H736    1.014   .     S
C737   O738    1.220   .     D
C737   O739    1.398   .     S
O739   H740    1.014   .     S
C741   O742    1.222   .     D
C741   O743    1.397   .     S
O743   H744    1.013   .     S
C745   O746    1.223   .     D
C745   O747    1.396   .     S
O747   H748    1.014   .     S
N749   H750    1.045   .     S
N749   H751    1.045   .     S
N752   H754    1.045   .     S
N752   H753    1.045   .     S
C755   O756    1.222   .     D
C755   O757    1.395   .     S
O757   H758    1.014   .     S
C759   O760    1.222   .     D
C759   O761    1.395   .     S
O761   H762    1.014   .     S
N763   H764    1.038   .     S
N763   H765    1.044   .     S
N766   H767    1.045   .     S
N766   H768    1.043   .     S
C769   O789    1.293   .     A
C769   C780    1.429   .     S
C769   O787    1.295   .     A
C770   O790    1.293   .     A
C770   C779    1.430   .     S
C770   O788    1.296   .     A
C771   O791    1.280   .     A
C771   C773    1.413   .     S
C771   O793    1.297   .     A
C772   O794    1.298   .     A
C772   O792    1.280   .     A
C772   C774    1.413   .     S
C773   C902    1.356   1_455 S
C773   C925    1.493   1_455 S
C774   C837    1.356   .     S
C774   C865    1.493   .     S
C775   C780    1.409   .     A
C775   C805    1.475   .     S
C776   C779    1.410   .     A
C776   C809    1.475   .     S
C776   C970    1.381   .     S
C777   N813    1.441   .     S
C777   C779    1.409   .     A
C777   C967    1.382   .     S
C778   C780    1.408   .     A
C778   N816    1.442   .     S
C781   N786    1.373   .     A
C781   C819    1.477   .     S
C782   N785    1.378   .     A
C782   C823    1.476   .     S
C782   C1360   1.433   .     S
C783   N785    1.374   .     A
C783   N827    1.424   .     S
C783   C1357   1.421   .     S
C784   N830    1.427   .     S
C784   N786    1.367   .     A
N785   Zn795   2.035   .     S
N786   Zn796   2.035   .     S
O787   Zn795   2.000   .     S
O788   Zn796   2.000   .     S
O789   Zn796   2.021   .     S
O790   Zn795   2.021   .     S
O791   Zn795   1.970   .     S
O792   Zn796   1.970   .     S
O793   Zn796   1.982   .     S
O794   Zn795   1.982   .     S
C797   O798    1.220   .     D
C797   O799    1.398   .     S
C797   C837    1.493   .     S
O799   H800    1.014   .     S
C801   O802    1.220   .     D
C801   O803    1.398   .     S
C801   C902    1.493   1_455 S
O803   H804    1.014   .     S
C805   O806    1.222   .     D
C805   O807    1.397   .     S
O807   H808    1.013   .     S
C809   O810    1.223   .     D
C809   O811    1.396   .     S
O811   H812    1.014   .     S
N813   H814    1.045   .     S
N813   H815    1.045   .     S
N816   H818    1.045   .     S
N816   H817    1.045   .     S
C819   O820    1.222   .     D
C819   O821    1.395   .     S
O821   H822    1.014   .     S
C823   O824    1.222   .     D
C823   O825    1.395   .     S
O825   H826    1.014   .     S
N827   H828    1.038   .     S
N827   H829    1.044   .     S
N830   H831    1.045   .     S
N830   H832    1.043   .     S
C833   O853    1.293   .     A
C833   C844    1.429   .     S
C833   O851    1.295   .     A
C834   O854    1.293   .     A
C834   C843    1.430   .     S
C834   O852    1.296   .     A
C835   O855    1.280   .     A
C835   C837    1.413   .     S
C835   O857    1.297   .     A
C836   O858    1.298   .     A
C836   O856    1.280   .     A
C836   C838    1.413   .     S
C838   C901    1.356   .     S
C838   C929    1.493   .     S
C839   C844    1.409   .     A
C839   C869    1.475   .     S
C840   C843    1.410   .     A
C840   C873    1.475   .     S
C840   C1034   1.381   .     S
C841   N877    1.441   .     S
C841   C843    1.409   .     A
C841   C1031   1.382   .     S
C842   C844    1.408   .     A
C842   N880    1.442   .     S
C845   N850    1.373   .     A
C845   C883    1.477   .     S
C846   N849    1.378   .     A
C846   C887    1.476   .     S
C846   C1424   1.433   .     S
C847   N849    1.374   .     A
C847   N891    1.424   .     S
C847   C1421   1.421   .     S
C848   N894    1.427   .     S
C848   N850    1.367   .     A
N849   Zn859   2.035   .     S
N850   Zn860   2.035   .     S
O851   Zn859   2.000   .     S
O852   Zn860   2.000   .     S
O853   Zn860   2.021   .     S
O854   Zn859   2.021   .     S
O855   Zn859   1.970   .     S
O856   Zn860   1.970   .     S
O857   Zn860   1.982   .     S
O858   Zn859   1.982   .     S
C861   O862    1.220   .     D
C861   O863    1.398   .     S
C861   C901    1.493   .     S
O863   H864    1.014   .     S
C865   O866    1.220   .     D
C865   O867    1.398   .     S
O867   H868    1.014   .     S
C869   O870    1.222   .     D
C869   O871    1.397   .     S
O871   H872    1.013   .     S
C873   O874    1.223   .     D
C873   O875    1.396   .     S
O875   H876    1.014   .     S
N877   H878    1.045   .     S
N877   H879    1.045   .     S
N880   H882    1.045   .     S
N880   H881    1.045   .     S
C883   O884    1.222   .     D
C883   O885    1.395   .     S
O885   H886    1.014   .     S
C887   O888    1.222   .     D
C887   O889    1.395   .     S
O889   H890    1.014   .     S
N891   H892    1.038   .     S
N891   H893    1.044   .     S
N894   H895    1.045   .     S
N894   H896    1.043   .     S
C897   O917    1.293   .     A
C897   C908    1.429   .     S
C897   O915    1.295   .     A
C898   O918    1.293   .     A
C898   C907    1.430   .     S
C898   O916    1.296   .     A
C899   O919    1.280   .     A
C899   C901    1.413   .     S
C899   O921    1.297   .     A
C900   O922    1.298   .     A
C900   O920    1.280   .     A
C900   C902    1.413   .     S
C902   C773    1.356   1_655 S
C902   C801    1.493   1_655 S
C903   C908    1.409   .     A
C903   C933    1.475   .     S
C904   C907    1.410   .     A
C904   C937    1.475   .     S
C904   C1098   1.381   .     S
C905   N941    1.441   .     S
C905   C907    1.409   .     A
C905   C1095   1.382   .     S
C906   C908    1.408   .     A
C906   N944    1.442   .     S
C909   N914    1.373   .     A
C909   C947    1.477   .     S
C910   N913    1.378   .     A
C910   C951    1.476   .     S
C910   C1488   1.433   .     S
C911   N913    1.374   .     A
C911   N955    1.424   .     S
C911   C1485   1.421   .     S
C912   N958    1.427   .     S
C912   N914    1.367   .     A
N913   Zn923   2.035   .     S
N914   Zn924   2.035   .     S
O915   Zn923   2.000   .     S
O916   Zn924   2.000   .     S
O917   Zn924   2.021   .     S
O918   Zn923   2.021   .     S
O919   Zn923   1.970   .     S
O920   Zn924   1.970   .     S
O921   Zn924   1.982   .     S
O922   Zn923   1.982   .     S
C925   O926    1.220   .     D
C925   O927    1.398   .     S
C925   C773    1.493   1_655 S
O927   H928    1.014   .     S
C929   O930    1.220   .     D
C929   O931    1.398   .     S
O931   H932    1.014   .     S
C933   O934    1.222   .     D
C933   O935    1.397   .     S
O935   H936    1.013   .     S
C937   O938    1.223   .     D
C937   O939    1.396   .     S
O939   H940    1.014   .     S
N941   H942    1.045   .     S
N941   H943    1.045   .     S
N944   H946    1.045   .     S
N944   H945    1.045   .     S
C947   O948    1.222   .     D
C947   O949    1.395   .     S
O949   H950    1.014   .     S
C951   O952    1.222   .     D
C951   O953    1.395   .     S
O953   H954    1.014   .     S
N955   H956    1.038   .     S
N955   H957    1.044   .     S
N958   H959    1.045   .     S
N958   H960    1.043   .     S
C961   O981    1.293   .     A
C961   C972    1.429   .     S
C961   O979    1.295   .     A
C962   O982    1.293   .     A
C962   C971    1.430   .     S
C962   O980    1.296   .     A
C963   O983    1.280   .     A
C963   C965    1.413   .     S
C963   O985    1.297   .     A
C964   O986    1.298   .     A
C964   O984    1.280   .     A
C964   C966    1.413   .     S
C965   C1094   1.356   1_455 S
C965   C1117   1.493   1_455 S
C966   C1029   1.356   .     S
C966   C1057   1.493   .     S
C967   C972    1.409   .     A
C967   C997    1.475   .     S
C968   C971    1.410   .     A
C968   C1001   1.475   .     S
C968   C586    1.381   1_565 S
C969   N1005   1.441   .     S
C969   C971    1.409   .     A
C969   C583    1.382   1_565 S
C970   C972    1.408   .     A
C970   N1008   1.442   .     S
C973   N978    1.373   .     A
C973   C1011   1.477   .     S
C974   N977    1.378   .     A
C974   C1015   1.476   .     S
C974   C1552   1.433   .     S
C975   N977    1.374   .     A
C975   N1019   1.424   .     S
C975   C1549   1.421   .     S
C976   N1022   1.427   .     S
C976   N978    1.367   .     A
N977   Zn987   2.035   .     S
N978   Zn988   2.035   .     S
O979   Zn987   2.000   .     S
O980   Zn988   2.000   .     S
O981   Zn988   2.021   .     S
O982   Zn987   2.021   .     S
O983   Zn987   1.970   .     S
O984   Zn988   1.970   .     S
O985   Zn988   1.982   .     S
O986   Zn987   1.982   .     S
C989   O990    1.220   .     D
C989   O991    1.398   .     S
C989   C1029   1.493   .     S
O991   H992    1.014   .     S
C993   O994    1.220   .     D
C993   O995    1.398   .     S
C993   C1094   1.493   1_455 S
O995   H996    1.014   .     S
C997   O998    1.222   .     D
C997   O999    1.397   .     S
O999   H1000   1.013   .     S
C1001  O1002   1.223   .     D
C1001  O1003   1.396   .     S
O1003  H1004   1.014   .     S
N1005  H1006   1.045   .     S
N1005  H1007   1.045   .     S
N1008  H1010   1.045   .     S
N1008  H1009   1.045   .     S
C1011  O1012   1.222   .     D
C1011  O1013   1.395   .     S
O1013  H1014   1.014   .     S
C1015  O1016   1.222   .     D
C1015  O1017   1.395   .     S
O1017  H1018   1.014   .     S
N1019  H1020   1.038   .     S
N1019  H1021   1.044   .     S
N1022  H1023   1.045   .     S
N1022  H1024   1.043   .     S
C1025  O1045   1.293   .     A
C1025  C1036   1.429   .     S
C1025  O1043   1.295   .     A
C1026  O1046   1.293   .     A
C1026  C1035   1.430   .     S
C1026  O1044   1.296   .     A
C1027  O1047   1.280   .     A
C1027  C1029   1.413   .     S
C1027  O1049   1.297   .     A
C1028  O1050   1.298   .     A
C1028  O1048   1.280   .     A
C1028  C1030   1.413   .     S
C1030  C1093   1.356   .     S
C1030  C1121   1.493   .     S
C1031  C1036   1.409   .     A
C1031  C1061   1.475   .     S
C1032  C1035   1.410   .     A
C1032  C1065   1.475   .     S
C1032  C650    1.381   1_565 S
C1033  N1069   1.441   .     S
C1033  C1035   1.409   .     A
C1033  C647    1.382   1_565 S
C1034  C1036   1.408   .     A
C1034  N1072   1.442   .     S
C1037  N1042   1.373   .     A
C1037  C1075   1.477   .     S
C1038  N1041   1.378   .     A
C1038  C1079   1.476   .     S
C1038  C1616   1.433   .     S
C1039  N1041   1.374   .     A
C1039  N1083   1.424   .     S
C1039  C1613   1.421   .     S
C1040  N1086   1.427   .     S
C1040  N1042   1.367   .     A
N1041  Zn1051  2.035   .     S
N1042  Zn1052  2.035   .     S
O1043  Zn1051  2.000   .     S
O1044  Zn1052  2.000   .     S
O1045  Zn1052  2.021   .     S
O1046  Zn1051  2.021   .     S
O1047  Zn1051  1.970   .     S
O1048  Zn1052  1.970   .     S
O1049  Zn1052  1.982   .     S
O1050  Zn1051  1.982   .     S
C1053  O1054   1.220   .     D
C1053  O1055   1.398   .     S
C1053  C1093   1.493   .     S
O1055  H1056   1.014   .     S
C1057  O1058   1.220   .     D
C1057  O1059   1.398   .     S
O1059  H1060   1.014   .     S
C1061  O1062   1.222   .     D
C1061  O1063   1.397   .     S
O1063  H1064   1.013   .     S
C1065  O1066   1.223   .     D
C1065  O1067   1.396   .     S
O1067  H1068   1.014   .     S
N1069  H1070   1.045   .     S
N1069  H1071   1.045   .     S
N1072  H1074   1.045   .     S
N1072  H1073   1.045   .     S
C1075  O1076   1.222   .     D
C1075  O1077   1.395   .     S
O1077  H1078   1.014   .     S
C1079  O1080   1.222   .     D
C1079  O1081   1.395   .     S
O1081  H1082   1.014   .     S
N1083  H1084   1.038   .     S
N1083  H1085   1.044   .     S
N1086  H1087   1.045   .     S
N1086  H1088   1.043   .     S
C1089  O1109   1.293   .     A
C1089  C1100   1.429   .     S
C1089  O1107   1.295   .     A
C1090  O1110   1.293   .     A
C1090  C1099   1.430   .     S
C1090  O1108   1.296   .     A
C1091  O1111   1.280   .     A
C1091  C1093   1.413   .     S
C1091  O1113   1.297   .     A
C1092  O1114   1.298   .     A
C1092  O1112   1.280   .     A
C1092  C1094   1.413   .     S
C1094  C965    1.356   1_655 S
C1094  C993    1.493   1_655 S
C1095  C1100   1.409   .     A
C1095  C1125   1.475   .     S
C1096  C1099   1.410   .     A
C1096  C1129   1.475   .     S
C1096  C714    1.381   1_565 S
C1097  N1133   1.441   .     S
C1097  C1099   1.409   .     A
C1097  C711    1.382   1_565 S
C1098  C1100   1.408   .     A
C1098  N1136   1.442   .     S
C1101  N1106   1.373   .     A
C1101  C1139   1.477   .     S
C1102  N1105   1.378   .     A
C1102  C1143   1.476   .     S
C1102  C1680   1.433   .     S
C1103  N1105   1.374   .     A
C1103  N1147   1.424   .     S
C1103  C1677   1.421   .     S
C1104  N1150   1.427   .     S
C1104  N1106   1.367   .     A
N1105  Zn1115  2.035   .     S
N1106  Zn1116  2.035   .     S
O1107  Zn1115  2.000   .     S
O1108  Zn1116  2.000   .     S
O1109  Zn1116  2.021   .     S
O1110  Zn1115  2.021   .     S
O1111  Zn1115  1.970   .     S
O1112  Zn1116  1.970   .     S
O1113  Zn1116  1.982   .     S
O1114  Zn1115  1.982   .     S
C1117  O1118   1.220   .     D
C1117  O1119   1.398   .     S
C1117  C965    1.493   1_655 S
O1119  H1120   1.014   .     S
C1121  O1122   1.220   .     D
C1121  O1123   1.398   .     S
O1123  H1124   1.014   .     S
C1125  O1126   1.222   .     D
C1125  O1127   1.397   .     S
O1127  H1128   1.013   .     S
C1129  O1130   1.223   .     D
C1129  O1131   1.396   .     S
O1131  H1132   1.014   .     S
N1133  H1134   1.045   .     S
N1133  H1135   1.045   .     S
N1136  H1138   1.045   .     S
N1136  H1137   1.045   .     S
C1139  O1140   1.222   .     D
C1139  O1141   1.395   .     S
O1141  H1142   1.014   .     S
C1143  O1144   1.222   .     D
C1143  O1145   1.395   .     S
O1145  H1146   1.014   .     S
N1147  H1148   1.038   .     S
N1147  H1149   1.044   .     S
N1150  H1151   1.045   .     S
N1150  H1152   1.043   .     S
C1153  O1173   1.293   .     A
C1153  C1164   1.429   .     S
C1153  O1171   1.295   .     A
C1154  O1174   1.293   .     A
C1154  C1163   1.430   .     S
C1154  O1172   1.296   .     A
C1155  O1175   1.280   .     A
C1155  C1157   1.413   .     S
C1155  O1177   1.297   .     A
C1156  O1178   1.298   .     A
C1156  O1176   1.280   .     A
C1156  C1158   1.413   .     S
C1157  C1286   1.356   1_455 S
C1157  C1309   1.493   1_455 S
C1158  C1221   1.356   .     S
C1158  C1249   1.493   .     S
C1159  C1164   1.409   .     A
C1159  C1189   1.475   .     S
C1159  C1545   1.382   1_545 S
C1160  C1163   1.410   .     A
C1160  C1193   1.475   .     S
C1160  C1354   1.381   .     S
C1161  N1197   1.441   .     S
C1161  C1163   1.409   .     A
C1161  C1351   1.382   .     S
C1162  C1164   1.408   .     A
C1162  N1200   1.442   .     S
C1162  C1544   1.381   1_545 S
C1165  N1170   1.373   .     A
C1165  C1203   1.477   .     S
C1166  N1169   1.378   .     A
C1166  C1207   1.476   .     S
C1166  C16     1.433   1_556 S
C1167  N1169   1.374   .     A
C1167  N1211   1.424   .     S
C1167  C13     1.421   1_556 S
C1168  N1214   1.427   .     S
C1168  N1170   1.367   .     A
N1169  Zn1179  2.035   .     S
N1170  Zn1180  2.035   .     S
O1171  Zn1179  2.000   .     S
O1172  Zn1180  2.000   .     S
O1173  Zn1180  2.021   .     S
O1174  Zn1179  2.021   .     S
O1175  Zn1179  1.970   .     S
O1176  Zn1180  1.970   .     S
O1177  Zn1180  1.982   .     S
O1178  Zn1179  1.982   .     S
C1181  O1182   1.220   .     D
C1181  O1183   1.398   .     S
C1181  C1221   1.493   .     S
O1183  H1184   1.014   .     S
C1185  O1186   1.220   .     D
C1185  O1187   1.398   .     S
C1185  C1286   1.493   1_455 S
O1187  H1188   1.014   .     S
C1189  O1190   1.222   .     D
C1189  O1191   1.397   .     S
O1191  H1192   1.013   .     S
C1193  O1194   1.223   .     D
C1193  O1195   1.396   .     S
O1195  H1196   1.014   .     S
N1197  H1198   1.045   .     S
N1197  H1199   1.045   .     S
N1200  H1202   1.045   .     S
N1200  H1201   1.045   .     S
C1203  O1204   1.222   .     D
C1203  O1205   1.395   .     S
O1205  H1206   1.014   .     S
C1207  O1208   1.222   .     D
C1207  O1209   1.395   .     S
O1209  H1210   1.014   .     S
N1211  H1212   1.038   .     S
N1211  H1213   1.044   .     S
N1214  H1215   1.045   .     S
N1214  H1216   1.043   .     S
C1217  O1237   1.293   .     A
C1217  C1228   1.429   .     S
C1217  O1235   1.295   .     A
C1218  O1238   1.293   .     A
C1218  C1227   1.430   .     S
C1218  O1236   1.296   .     A
C1219  O1239   1.280   .     A
C1219  C1221   1.413   .     S
C1219  O1241   1.297   .     A
C1220  O1242   1.298   .     A
C1220  O1240   1.280   .     A
C1220  C1222   1.413   .     S
C1222  C1285   1.356   .     S
C1222  C1313   1.493   .     S
C1223  C1228   1.409   .     A
C1223  C1253   1.475   .     S
C1223  C1609   1.382   1_545 S
C1224  C1227   1.410   .     A
C1224  C1257   1.475   .     S
C1224  C1418   1.381   .     S
C1225  N1261   1.441   .     S
C1225  C1227   1.409   .     A
C1225  C1415   1.382   .     S
C1226  C1228   1.408   .     A
C1226  N1264   1.442   .     S
C1226  C1608   1.381   1_545 S
C1229  N1234   1.373   .     A
C1229  C1267   1.477   .     S
C1230  N1233   1.378   .     A
C1230  C1271   1.476   .     S
C1230  C80     1.433   1_556 S
C1231  N1233   1.374   .     A
C1231  N1275   1.424   .     S
C1231  C77     1.421   1_556 S
C1232  N1278   1.427   .     S
C1232  N1234   1.367   .     A
N1233  Zn1243  2.035   .     S
N1234  Zn1244  2.035   .     S
O1235  Zn1243  2.000   .     S
O1236  Zn1244  2.000   .     S
O1237  Zn1244  2.021   .     S
O1238  Zn1243  2.021   .     S
O1239  Zn1243  1.970   .     S
O1240  Zn1244  1.970   .     S
O1241  Zn1244  1.982   .     S
O1242  Zn1243  1.982   .     S
C1245  O1246   1.220   .     D
C1245  O1247   1.398   .     S
C1245  C1285   1.493   .     S
O1247  H1248   1.014   .     S
C1249  O1250   1.220   .     D
C1249  O1251   1.398   .     S
O1251  H1252   1.014   .     S
C1253  O1254   1.222   .     D
C1253  O1255   1.397   .     S
O1255  H1256   1.013   .     S
C1257  O1258   1.223   .     D
C1257  O1259   1.396   .     S
O1259  H1260   1.014   .     S
N1261  H1262   1.045   .     S
N1261  H1263   1.045   .     S
N1264  H1266   1.045   .     S
N1264  H1265   1.045   .     S
C1267  O1268   1.222   .     D
C1267  O1269   1.395   .     S
O1269  H1270   1.014   .     S
C1271  O1272   1.222   .     D
C1271  O1273   1.395   .     S
O1273  H1274   1.014   .     S
N1275  H1276   1.038   .     S
N1275  H1277   1.044   .     S
N1278  H1279   1.045   .     S
N1278  H1280   1.043   .     S
C1281  O1301   1.293   .     A
C1281  C1292   1.429   .     S
C1281  O1299   1.295   .     A
C1282  O1302   1.293   .     A
C1282  C1291   1.430   .     S
C1282  O1300   1.296   .     A
C1283  O1303   1.280   .     A
C1283  C1285   1.413   .     S
C1283  O1305   1.297   .     A
C1284  O1306   1.298   .     A
C1284  O1304   1.280   .     A
C1284  C1286   1.413   .     S
C1286  C1157   1.356   1_655 S
C1286  C1185   1.493   1_655 S
C1287  C1292   1.409   .     A
C1287  C1317   1.475   .     S
C1287  C1673   1.382   1_545 S
C1288  C1291   1.410   .     A
C1288  C1321   1.475   .     S
C1288  C1482   1.381   .     S
C1289  N1325   1.441   .     S
C1289  C1291   1.409   .     A
C1289  C1479   1.382   .     S
C1290  C1292   1.408   .     A
C1290  N1328   1.442   .     S
C1290  C1672   1.381   1_545 S
C1293  N1298   1.373   .     A
C1293  C1331   1.477   .     S
C1294  N1297   1.378   .     A
C1294  C1335   1.476   .     S
C1294  C144    1.433   1_556 S
C1295  N1297   1.374   .     A
C1295  N1339   1.424   .     S
C1295  C141    1.421   1_556 S
C1296  N1342   1.427   .     S
C1296  N1298   1.367   .     A
N1297  Zn1307  2.035   .     S
N1298  Zn1308  2.035   .     S
O1299  Zn1307  2.000   .     S
O1300  Zn1308  2.000   .     S
O1301  Zn1308  2.021   .     S
O1302  Zn1307  2.021   .     S
O1303  Zn1307  1.970   .     S
O1304  Zn1308  1.970   .     S
O1305  Zn1308  1.982   .     S
O1306  Zn1307  1.982   .     S
C1309  O1310   1.220   .     D
C1309  O1311   1.398   .     S
C1309  C1157   1.493   1_655 S
O1311  H1312   1.014   .     S
C1313  O1314   1.220   .     D
C1313  O1315   1.398   .     S
O1315  H1316   1.014   .     S
C1317  O1318   1.222   .     D
C1317  O1319   1.397   .     S
O1319  H1320   1.013   .     S
C1321  O1322   1.223   .     D
C1321  O1323   1.396   .     S
O1323  H1324   1.014   .     S
N1325  H1326   1.045   .     S
N1325  H1327   1.045   .     S
N1328  H1330   1.045   .     S
N1328  H1329   1.045   .     S
C1331  O1332   1.222   .     D
C1331  O1333   1.395   .     S
O1333  H1334   1.014   .     S
C1335  O1336   1.222   .     D
C1335  O1337   1.395   .     S
O1337  H1338   1.014   .     S
N1339  H1340   1.038   .     S
N1339  H1341   1.044   .     S
N1342  H1343   1.045   .     S
N1342  H1344   1.043   .     S
C1345  O1365   1.293   .     A
C1345  C1356   1.429   .     S
C1345  O1363   1.295   .     A
C1346  O1366   1.293   .     A
C1346  C1355   1.430   .     S
C1346  O1364   1.296   .     A
C1347  O1367   1.280   .     A
C1347  C1349   1.413   .     S
C1347  O1369   1.297   .     A
C1348  O1370   1.298   .     A
C1348  O1368   1.280   .     A
C1348  C1350   1.413   .     S
C1349  C1478   1.356   1_455 S
C1349  C1501   1.493   1_455 S
C1350  C1413   1.356   .     S
C1350  C1441   1.493   .     S
C1351  C1356   1.409   .     A
C1351  C1381   1.475   .     S
C1352  C1355   1.410   .     A
C1352  C1385   1.475   .     S
C1352  C1546   1.381   .     S
C1353  N1389   1.441   .     S
C1353  C1355   1.409   .     A
C1353  C1543   1.382   .     S
C1354  C1356   1.408   .     A
C1354  N1392   1.442   .     S
C1357  N1362   1.373   .     A
C1357  C1395   1.477   .     S
C1358  N1361   1.378   .     A
C1358  C1399   1.476   .     S
C1358  C208    1.433   1_556 S
C1359  N1361   1.374   .     A
C1359  N1403   1.424   .     S
C1359  C205    1.421   1_556 S
C1360  N1406   1.427   .     S
C1360  N1362   1.367   .     A
N1361  Zn1371  2.035   .     S
N1362  Zn1372  2.035   .     S
O1363  Zn1371  2.000   .     S
O1364  Zn1372  2.000   .     S
O1365  Zn1372  2.021   .     S
O1366  Zn1371  2.021   .     S
O1367  Zn1371  1.970   .     S
O1368  Zn1372  1.970   .     S
O1369  Zn1372  1.982   .     S
O1370  Zn1371  1.982   .     S
C1373  O1374   1.220   .     D
C1373  O1375   1.398   .     S
C1373  C1413   1.493   .     S
O1375  H1376   1.014   .     S
C1377  O1378   1.220   .     D
C1377  O1379   1.398   .     S
C1377  C1478   1.493   1_455 S
O1379  H1380   1.014   .     S
C1381  O1382   1.222   .     D
C1381  O1383   1.397   .     S
O1383  H1384   1.013   .     S
C1385  O1386   1.223   .     D
C1385  O1387   1.396   .     S
O1387  H1388   1.014   .     S
N1389  H1390   1.045   .     S
N1389  H1391   1.045   .     S
N1392  H1394   1.045   .     S
N1392  H1393   1.045   .     S
C1395  O1396   1.222   .     D
C1395  O1397   1.395   .     S
O1397  H1398   1.014   .     S
C1399  O1400   1.222   .     D
C1399  O1401   1.395   .     S
O1401  H1402   1.014   .     S
N1403  H1404   1.038   .     S
N1403  H1405   1.044   .     S
N1406  H1407   1.045   .     S
N1406  H1408   1.043   .     S
C1409  O1429   1.293   .     A
C1409  C1420   1.429   .     S
C1409  O1427   1.295   .     A
C1410  O1430   1.293   .     A
C1410  C1419   1.430   .     S
C1410  O1428   1.296   .     A
C1411  O1431   1.280   .     A
C1411  C1413   1.413   .     S
C1411  O1433   1.297   .     A
C1412  O1434   1.298   .     A
C1412  O1432   1.280   .     A
C1412  C1414   1.413   .     S
C1414  C1477   1.356   .     S
C1414  C1505   1.493   .     S
C1415  C1420   1.409   .     A
C1415  C1445   1.475   .     S
C1416  C1419   1.410   .     A
C1416  C1449   1.475   .     S
C1416  C1610   1.381   .     S
C1417  N1453   1.441   .     S
C1417  C1419   1.409   .     A
C1417  C1607   1.382   .     S
C1418  C1420   1.408   .     A
C1418  N1456   1.442   .     S
C1421  N1426   1.373   .     A
C1421  C1459   1.477   .     S
C1422  N1425   1.378   .     A
C1422  C1463   1.476   .     S
C1422  C272    1.433   1_556 S
C1423  N1425   1.374   .     A
C1423  N1467   1.424   .     S
C1423  C269    1.421   1_556 S
C1424  N1470   1.427   .     S
C1424  N1426   1.367   .     A
N1425  Zn1435  2.035   .     S
N1426  Zn1436  2.035   .     S
O1427  Zn1435  2.000   .     S
O1428  Zn1436  2.000   .     S
O1429  Zn1436  2.021   .     S
O1430  Zn1435  2.021   .     S
O1431  Zn1435  1.970   .     S
O1432  Zn1436  1.970   .     S
O1433  Zn1436  1.982   .     S
O1434  Zn1435  1.982   .     S
C1437  O1438   1.220   .     D
C1437  O1439   1.398   .     S
C1437  C1477   1.493   .     S
O1439  H1440   1.014   .     S
C1441  O1442   1.220   .     D
C1441  O1443   1.398   .     S
O1443  H1444   1.014   .     S
C1445  O1446   1.222   .     D
C1445  O1447   1.397   .     S
O1447  H1448   1.013   .     S
C1449  O1450   1.223   .     D
C1449  O1451   1.396   .     S
O1451  H1452   1.014   .     S
N1453  H1454   1.045   .     S
N1453  H1455   1.045   .     S
N1456  H1458   1.045   .     S
N1456  H1457   1.045   .     S
C1459  O1460   1.222   .     D
C1459  O1461   1.395   .     S
O1461  H1462   1.014   .     S
C1463  O1464   1.222   .     D
C1463  O1465   1.395   .     S
O1465  H1466   1.014   .     S
N1467  H1468   1.038   .     S
N1467  H1469   1.044   .     S
N1470  H1471   1.045   .     S
N1470  H1472   1.043   .     S
C1473  O1493   1.293   .     A
C1473  C1484   1.429   .     S
C1473  O1491   1.295   .     A
C1474  O1494   1.293   .     A
C1474  C1483   1.430   .     S
C1474  O1492   1.296   .     A
C1475  O1495   1.280   .     A
C1475  C1477   1.413   .     S
C1475  O1497   1.297   .     A
C1476  O1498   1.298   .     A
C1476  O1496   1.280   .     A
C1476  C1478   1.413   .     S
C1478  C1349   1.356   1_655 S
C1478  C1377   1.493   1_655 S
C1479  C1484   1.409   .     A
C1479  C1509   1.475   .     S
C1480  C1483   1.410   .     A
C1480  C1513   1.475   .     S
C1480  C1674   1.381   .     S
C1481  N1517   1.441   .     S
C1481  C1483   1.409   .     A
C1481  C1671   1.382   .     S
C1482  C1484   1.408   .     A
C1482  N1520   1.442   .     S
C1485  N1490   1.373   .     A
C1485  C1523   1.477   .     S
C1486  N1489   1.378   .     A
C1486  C1527   1.476   .     S
C1486  C336    1.433   1_556 S
C1487  N1489   1.374   .     A
C1487  N1531   1.424   .     S
C1487  C333    1.421   1_556 S
C1488  N1534   1.427   .     S
C1488  N1490   1.367   .     A
N1489  Zn1499  2.035   .     S
N1490  Zn1500  2.035   .     S
O1491  Zn1499  2.000   .     S
O1492  Zn1500  2.000   .     S
O1493  Zn1500  2.021   .     S
O1494  Zn1499  2.021   .     S
O1495  Zn1499  1.970   .     S
O1496  Zn1500  1.970   .     S
O1497  Zn1500  1.982   .     S
O1498  Zn1499  1.982   .     S
C1501  O1502   1.220   .     D
C1501  O1503   1.398   .     S
C1501  C1349   1.493   1_655 S
O1503  H1504   1.014   .     S
C1505  O1506   1.220   .     D
C1505  O1507   1.398   .     S
O1507  H1508   1.014   .     S
C1509  O1510   1.222   .     D
C1509  O1511   1.397   .     S
O1511  H1512   1.013   .     S
C1513  O1514   1.223   .     D
C1513  O1515   1.396   .     S
O1515  H1516   1.014   .     S
N1517  H1518   1.045   .     S
N1517  H1519   1.045   .     S
N1520  H1522   1.045   .     S
N1520  H1521   1.045   .     S
C1523  O1524   1.222   .     D
C1523  O1525   1.395   .     S
O1525  H1526   1.014   .     S
C1527  O1528   1.222   .     D
C1527  O1529   1.395   .     S
O1529  H1530   1.014   .     S
N1531  H1532   1.038   .     S
N1531  H1533   1.044   .     S
N1534  H1535   1.045   .     S
N1534  H1536   1.043   .     S
C1537  O1557   1.293   .     A
C1537  C1548   1.429   .     S
C1537  O1555   1.295   .     A
C1538  O1558   1.293   .     A
C1538  C1547   1.430   .     S
C1538  O1556   1.296   .     A
C1539  O1559   1.280   .     A
C1539  C1541   1.413   .     S
C1539  O1561   1.297   .     A
C1540  O1562   1.298   .     A
C1540  O1560   1.280   .     A
C1540  C1542   1.413   .     S
C1541  C1670   1.356   1_455 S
C1541  C1693   1.493   1_455 S
C1542  C1605   1.356   .     S
C1542  C1633   1.493   .     S
C1543  C1548   1.409   .     A
C1543  C1573   1.475   .     S
C1544  C1547   1.410   .     A
C1544  C1577   1.475   .     S
C1544  C1162   1.381   1_565 S
C1545  N1581   1.441   .     S
C1545  C1547   1.409   .     A
C1545  C1159   1.382   1_565 S
C1546  C1548   1.408   .     A
C1546  N1584   1.442   .     S
C1549  N1554   1.373   .     A
C1549  C1587   1.477   .     S
C1550  N1553   1.378   .     A
C1550  C1591   1.476   .     S
C1550  C400    1.433   1_556 S
C1551  N1553   1.374   .     A
C1551  N1595   1.424   .     S
C1551  C397    1.421   1_556 S
C1552  N1598   1.427   .     S
C1552  N1554   1.367   .     A
N1553  Zn1563  2.035   .     S
N1554  Zn1564  2.035   .     S
O1555  Zn1563  2.000   .     S
O1556  Zn1564  2.000   .     S
O1557  Zn1564  2.021   .     S
O1558  Zn1563  2.021   .     S
O1559  Zn1563  1.970   .     S
O1560  Zn1564  1.970   .     S
O1561  Zn1564  1.982   .     S
O1562  Zn1563  1.982   .     S
C1565  O1566   1.220   .     D
C1565  O1567   1.398   .     S
C1565  C1605   1.493   .     S
O1567  H1568   1.014   .     S
C1569  O1570   1.220   .     D
C1569  O1571   1.398   .     S
C1569  C1670   1.493   1_455 S
O1571  H1572   1.014   .     S
C1573  O1574   1.222   .     D
C1573  O1575   1.397   .     S
O1575  H1576   1.013   .     S
C1577  O1578   1.223   .     D
C1577  O1579   1.396   .     S
O1579  H1580   1.014   .     S
N1581  H1582   1.045   .     S
N1581  H1583   1.045   .     S
N1584  H1586   1.045   .     S
N1584  H1585   1.045   .     S
C1587  O1588   1.222   .     D
C1587  O1589   1.395   .     S
O1589  H1590   1.014   .     S
C1591  O1592   1.222   .     D
C1591  O1593   1.395   .     S
O1593  H1594   1.014   .     S
N1595  H1596   1.038   .     S
N1595  H1597   1.044   .     S
N1598  H1599   1.045   .     S
N1598  H1600   1.043   .     S
C1601  O1621   1.293   .     A
C1601  C1612   1.429   .     S
C1601  O1619   1.295   .     A
C1602  O1622   1.293   .     A
C1602  C1611   1.430   .     S
C1602  O1620   1.296   .     A
C1603  O1623   1.280   .     A
C1603  C1605   1.413   .     S
C1603  O1625   1.297   .     A
C1604  O1626   1.298   .     A
C1604  O1624   1.280   .     A
C1604  C1606   1.413   .     S
C1606  C1669   1.356   .     S
C1606  C1697   1.493   .     S
C1607  C1612   1.409   .     A
C1607  C1637   1.475   .     S
C1608  C1611   1.410   .     A
C1608  C1641   1.475   .     S
C1608  C1226   1.381   1_565 S
C1609  N1645   1.441   .     S
C1609  C1611   1.409   .     A
C1609  C1223   1.382   1_565 S
C1610  C1612   1.408   .     A
C1610  N1648   1.442   .     S
C1613  N1618   1.373   .     A
C1613  C1651   1.477   .     S
C1614  N1617   1.378   .     A
C1614  C1655   1.476   .     S
C1614  C464    1.433   1_556 S
C1615  N1617   1.374   .     A
C1615  N1659   1.424   .     S
C1615  C461    1.421   1_556 S
C1616  N1662   1.427   .     S
C1616  N1618   1.367   .     A
N1617  Zn1627  2.035   .     S
N1618  Zn1628  2.035   .     S
O1619  Zn1627  2.000   .     S
O1620  Zn1628  2.000   .     S
O1621  Zn1628  2.021   .     S
O1622  Zn1627  2.021   .     S
O1623  Zn1627  1.970   .     S
O1624  Zn1628  1.970   .     S
O1625  Zn1628  1.982   .     S
O1626  Zn1627  1.982   .     S
C1629  O1630   1.220   .     D
C1629  O1631   1.398   .     S
C1629  C1669   1.493   .     S
O1631  H1632   1.014   .     S
C1633  O1634   1.220   .     D
C1633  O1635   1.398   .     S
O1635  H1636   1.014   .     S
C1637  O1638   1.222   .     D
C1637  O1639   1.397   .     S
O1639  H1640   1.013   .     S
C1641  O1642   1.223   .     D
C1641  O1643   1.396   .     S
O1643  H1644   1.014   .     S
N1645  H1646   1.045   .     S
N1645  H1647   1.045   .     S
N1648  H1650   1.045   .     S
N1648  H1649   1.045   .     S
C1651  O1652   1.222   .     D
C1651  O1653   1.395   .     S
O1653  H1654   1.014   .     S
C1655  O1656   1.222   .     D
C1655  O1657   1.395   .     S
O1657  H1658   1.014   .     S
N1659  H1660   1.038   .     S
N1659  H1661   1.044   .     S
N1662  H1663   1.045   .     S
N1662  H1664   1.043   .     S
C1665  O1685   1.293   .     A
C1665  C1676   1.429   .     S
C1665  O1683   1.295   .     A
C1666  O1686   1.293   .     A
C1666  C1675   1.430   .     S
C1666  O1684   1.296   .     A
C1667  O1687   1.280   .     A
C1667  C1669   1.413   .     S
C1667  O1689   1.297   .     A
C1668  O1690   1.298   .     A
C1668  O1688   1.280   .     A
C1668  C1670   1.413   .     S
C1670  C1541   1.356   1_655 S
C1670  C1569   1.493   1_655 S
C1671  C1676   1.409   .     A
C1671  C1701   1.475   .     S
C1672  C1675   1.410   .     A
C1672  C1705   1.475   .     S
C1672  C1290   1.381   1_565 S
C1673  N1709   1.441   .     S
C1673  C1675   1.409   .     A
C1673  C1287   1.382   1_565 S
C1674  C1676   1.408   .     A
C1674  N1712   1.442   .     S
C1677  N1682   1.373   .     A
C1677  C1715   1.477   .     S
C1678  N1681   1.378   .     A
C1678  C1719   1.476   .     S
C1678  C528    1.433   1_556 S
C1679  N1681   1.374   .     A
C1679  N1723   1.424   .     S
C1679  C525    1.421   1_556 S
C1680  N1726   1.427   .     S
C1680  N1682   1.367   .     A
N1681  Zn1691  2.035   .     S
N1682  Zn1692  2.035   .     S
O1683  Zn1691  2.000   .     S
O1684  Zn1692  2.000   .     S
O1685  Zn1692  2.021   .     S
O1686  Zn1691  2.021   .     S
O1687  Zn1691  1.970   .     S
O1688  Zn1692  1.970   .     S
O1689  Zn1692  1.982   .     S
O1690  Zn1691  1.982   .     S
C1693  O1694   1.220   .     D
C1693  O1695   1.398   .     S
C1693  C1541   1.493   1_655 S
O1695  H1696   1.014   .     S
C1697  O1698   1.220   .     D
C1697  O1699   1.398   .     S
O1699  H1700   1.014   .     S
C1701  O1702   1.222   .     D
C1701  O1703   1.397   .     S
O1703  H1704   1.013   .     S
C1705  O1706   1.223   .     D
C1705  O1707   1.396   .     S
O1707  H1708   1.014   .     S
N1709  H1710   1.045   .     S
N1709  H1711   1.045   .     S
N1712  H1714   1.045   .     S
N1712  H1713   1.045   .     S
C1715  O1716   1.222   .     D
C1715  O1717   1.395   .     S
O1717  H1718   1.014   .     S
C1719  O1720   1.222   .     D
C1719  O1721   1.395   .     S
O1721  H1722   1.014   .     S
N1723  H1724   1.038   .     S
N1723  H1725   1.044   .     S
N1726  H1727   1.045   .     S
N1726  H1728   1.043   .     S
