data_str_m3_o1_o17_pcu_sym.198
_audit_creation_date              2020-01-03
_audit_creation_method            'Materials Studio'
_symmetry_space_group_name_H-M    'P1'
_symmetry_Int_Tables_number       1
_symmetry_cell_setting            triclinic
loop_
_symmetry_equiv_pos_as_xyz
  x,y,z
_cell_length_a                    32.0865
_cell_length_b                    29.5212
_cell_length_c                    29.8022
_cell_angle_alpha                 90.5328
_cell_angle_beta                  89.7809
_cell_angle_gamma                 89.2863
loop_
_atom_site_label
_atom_site_type_symbol
_atom_site_fract_x
_atom_site_fract_y
_atom_site_fract_z
_atom_site_U_iso_or_equiv
_atom_site_adp_type
_atom_site_occupancy
C1     C     0.08670   0.16705   0.25037   0.00000  Uiso   1.00
C2     C     0.24664   0.16628   0.24956   0.00000  Uiso   1.00
C3     C     0.09401   0.19519   0.02209   0.00000  Uiso   1.00
C4     C     0.24127   0.14241   0.47790   0.00000  Uiso   1.00
C5     C     0.02193   0.13496   0.27615   0.00000  Uiso   1.00
C6     C     0.31140   0.19842   0.22376   0.00000  Uiso   1.00
C7     C     0.31238   0.13199   0.27289   0.00000  Uiso   1.00
C8     C     0.02096   0.20136   0.22700   0.00000  Uiso   1.00
C9     C     0.29080   0.16538   0.24865   0.00000  Uiso   1.00
C10    C     0.04253   0.16798   0.25125   0.00000  Uiso   1.00
C11    C     0.18555   0.02404   0.28369   0.00000  Uiso   1.00
C12    C     0.14779   0.30930   0.21631   0.00000  Uiso   1.00
C13    C     0.14770   0.02392   0.21636   0.00000  Uiso   1.00
C14    C     0.18563   0.30941   0.28364   0.00000  Uiso   1.00
C15    C     0.16621   0.16642   0.16356   0.00000  Uiso   1.00
C16    C     0.16719   0.16692   0.33644   0.00000  Uiso   1.00
C17    C     0.20560   0.15716   0.40631   0.00000  Uiso   1.00
C18    C     0.12850   0.17770   0.09361   0.00000  Uiso   1.00
C19    C     0.16851   0.16792   0.38404   0.00000  Uiso   1.00
C20    C     0.16515   0.16562   0.11598   0.00000  Uiso   1.00
C21    C     0.13266   0.18141   0.40667   0.00000  Uiso   1.00
C22    C     0.20108   0.15224   0.09341   0.00000  Uiso   1.00
C23    C     0.13209   0.18186   0.45291   0.00000  Uiso   1.00
C24    C     0.20220   0.15332   0.04716   0.00000  Uiso   1.00
C25    C     0.16812   0.16855   0.47664   0.00000  Uiso   1.00
C26    C     0.16655   0.16764   0.02345   0.00000  Uiso   1.00
C27    C     0.20545   0.15579   0.45346   0.00000  Uiso   1.00
C28    C     0.12920   0.18031   0.04659   0.00000  Uiso   1.00
C29    C     0.09562   0.19487   0.47543   0.00000  Uiso   1.00
C30    C     0.23872   0.14041   0.02471   0.00000  Uiso   1.00
H31    H     0.10510   0.19129   0.38801   0.00000  Uiso   1.00
H32    H     0.22834   0.14153   0.11214   0.00000  Uiso   1.00
H33    H     0.06805   0.20474   0.45678   0.00000  Uiso   1.00
H34    H     0.26522   0.12824   0.04374   0.00000  Uiso   1.00
H35    H     0.20062   0.04223   0.31065   0.00000  Uiso   1.00
H36    H     0.13272   0.29110   0.18934   0.00000  Uiso   1.00
H37    H     0.13245   0.04202   0.18949   0.00000  Uiso   1.00
H38    H     0.20088   0.29132   0.31050   0.00000  Uiso   1.00
N39    N     0.16667   0.28573   0.25000   0.00000  Uiso   1.00
N40    N     0.16667   0.04760   0.25000   0.00000  Uiso   1.00
O41    O     0.10559   0.20487   0.25000   0.00000  Uiso   1.00
O42    O     0.22774   0.12846   0.25001   0.00000  Uiso   1.00
O43    O     0.22774   0.20487   0.25001   0.00000  Uiso   1.00
O44    O     0.10559   0.12846   0.25000   0.00000  Uiso   1.00
O45    O     0.16666   0.20489   0.18393   0.00000  Uiso   1.00
O46    O     0.16667   0.12844   0.31608   0.00000  Uiso   1.00
O47    O     0.16667   0.20489   0.31608   0.00000  Uiso   1.00
O48    O     0.16666   0.12844   0.18393   0.00000  Uiso   1.00
Zn49   Zn    0.16667   0.21771   0.25000   0.00000  Uiso   1.00
Zn50   Zn    0.16667   0.11563   0.25000   0.00000  Uiso   1.00
O51    O     0.24126   0.14702   0.38166   0.00000  Uiso   1.00
C52    C     0.26217   0.18782   0.37276   0.00000  Uiso   1.00
H53    H     0.26778   0.20798   0.40387   0.00000  Uiso   1.00
H54    H     0.24474   0.20871   0.34815   0.00000  Uiso   1.00
H55    H     0.29304   0.17951   0.35781   0.00000  Uiso   1.00
O56    O     0.09277   0.18793   0.11810   0.00000  Uiso   1.00
C57    C     0.07096   0.14736   0.12532   0.00000  Uiso   1.00
H58    H     0.08859   0.12420   0.14772   0.00000  Uiso   1.00
H59    H     0.06357   0.12971   0.09319   0.00000  Uiso   1.00
H60    H     0.04093   0.15570   0.14212   0.00000  Uiso   1.00
O61    O     0.05697   0.20716   0.04320   0.00000  Uiso   1.00
C62    C     0.05359   0.25480   0.04471   0.00000  Uiso   1.00
H63    H     0.05052   0.26910   0.01046   0.00000  Uiso   1.00
H64    H     0.08053   0.27011   0.06248   0.00000  Uiso   1.00
H65    H     0.02499   0.26432   0.06378   0.00000  Uiso   1.00
O66    O     0.27695   0.12711   0.45560   0.00000  Uiso   1.00
C67    C     0.31255   0.15013   0.47115   0.00000  Uiso   1.00
H68    H     0.32504   0.13393   0.00186   0.00000  Uiso   1.00
H69    H     0.30643   0.18693   0.47728   0.00000  Uiso   1.00
H70    H     0.00384   0.14742   0.44501   0.00000  Uiso   1.00
O71    O     0.04405   0.10509   0.30295   0.00000  Uiso   1.00
C72    C     0.04156   0.12037   0.34788   0.00000  Uiso   1.00
H73    H     0.04775   0.15729   0.35124   0.00000  Uiso   1.00
H74    H     0.06557   0.10215   0.36768   0.00000  Uiso   1.00
H75    H     0.01065   0.11252   0.36261   0.00000  Uiso   1.00
O76    O     0.28928   0.22834   0.19703   0.00000  Uiso   1.00
C77    C     0.29161   0.21305   0.15208   0.00000  Uiso   1.00
H78    H     0.26753   0.23129   0.13239   0.00000  Uiso   1.00
H79    H     0.28539   0.17614   0.14875   0.00000  Uiso   1.00
H80    H     0.32246   0.22090   0.13721   0.00000  Uiso   1.00
O81    O     0.29128   0.09939   0.29689   0.00000  Uiso   1.00
C82    C     0.29551   0.05736   0.27419   0.00000  Uiso   1.00
H83    H     0.28252   0.05905   0.23965   0.00000  Uiso   1.00
H84    H     0.27769   0.03165   0.29286   0.00000  Uiso   1.00
H85    H     0.32846   0.04536   0.27288   0.00000  Uiso   1.00
O86    O     0.04207   0.23389   0.20291   0.00000  Uiso   1.00
C87    C     0.03788   0.27598   0.22551   0.00000  Uiso   1.00
H88    H     0.05566   0.30164   0.20672   0.00000  Uiso   1.00
H89    H     0.05094   0.27439   0.26002   0.00000  Uiso   1.00
H90    H     0.00493   0.28799   0.22686   0.00000  Uiso   1.00
C91    C     0.42003   0.16705   0.25037   0.00000  Uiso   1.00
C92    C     0.57997   0.16628   0.24956   0.00000  Uiso   1.00
C93    C     0.42734   0.19519   0.02209   0.00000  Uiso   1.00
C94    C     0.57461   0.14241   0.47790   0.00000  Uiso   1.00
C95    C     0.35526   0.13496   0.27615   0.00000  Uiso   1.00
C96    C     0.64474   0.19842   0.22376   0.00000  Uiso   1.00
C97    C     0.64571   0.13199   0.27289   0.00000  Uiso   1.00
C98    C     0.35429   0.20136   0.22700   0.00000  Uiso   1.00
C99    C     0.62413   0.16538   0.24865   0.00000  Uiso   1.00
C100   C     0.37587   0.16798   0.25125   0.00000  Uiso   1.00
C101   C     0.51888   0.02404   0.28369   0.00000  Uiso   1.00
C102   C     0.48112   0.30930   0.21631   0.00000  Uiso   1.00
C103   C     0.48104   0.02392   0.21636   0.00000  Uiso   1.00
C104   C     0.51897   0.30941   0.28364   0.00000  Uiso   1.00
C105   C     0.49955   0.16642   0.16356   0.00000  Uiso   1.00
C106   C     0.50053   0.16692   0.33644   0.00000  Uiso   1.00
C107   C     0.53894   0.15716   0.40631   0.00000  Uiso   1.00
C108   C     0.46183   0.17770   0.09361   0.00000  Uiso   1.00
C109   C     0.50185   0.16792   0.38404   0.00000  Uiso   1.00
C110   C     0.49849   0.16562   0.11598   0.00000  Uiso   1.00
C111   C     0.46599   0.18141   0.40667   0.00000  Uiso   1.00
C112   C     0.53442   0.15224   0.09341   0.00000  Uiso   1.00
C113   C     0.46542   0.18186   0.45291   0.00000  Uiso   1.00
C114   C     0.53553   0.15332   0.04716   0.00000  Uiso   1.00
C115   C     0.50146   0.16855   0.47664   0.00000  Uiso   1.00
C116   C     0.49988   0.16764   0.02345   0.00000  Uiso   1.00
C117   C     0.53879   0.15579   0.45346   0.00000  Uiso   1.00
C118   C     0.46253   0.18031   0.04659   0.00000  Uiso   1.00
C119   C     0.42895   0.19487   0.47543   0.00000  Uiso   1.00
C120   C     0.57205   0.14041   0.02471   0.00000  Uiso   1.00
H121   H     0.43843   0.19129   0.38801   0.00000  Uiso   1.00
H122   H     0.56167   0.14153   0.11214   0.00000  Uiso   1.00
H123   H     0.40138   0.20474   0.45678   0.00000  Uiso   1.00
H124   H     0.59855   0.12824   0.04374   0.00000  Uiso   1.00
H125   H     0.53395   0.04223   0.31065   0.00000  Uiso   1.00
H126   H     0.46606   0.29110   0.18934   0.00000  Uiso   1.00
H127   H     0.46579   0.04202   0.18949   0.00000  Uiso   1.00
H128   H     0.53422   0.29132   0.31050   0.00000  Uiso   1.00
N129   N     0.50000   0.28573   0.25000   0.00000  Uiso   1.00
N130   N     0.50000   0.04760   0.25000   0.00000  Uiso   1.00
O131   O     0.43892   0.20487   0.25000   0.00000  Uiso   1.00
O132   O     0.56108   0.12846   0.25001   0.00000  Uiso   1.00
O133   O     0.56108   0.20487   0.25001   0.00000  Uiso   1.00
O134   O     0.43892   0.12846   0.25000   0.00000  Uiso   1.00
O135   O     0.49999   0.20489   0.18393   0.00000  Uiso   1.00
O136   O     0.50001   0.12844   0.31608   0.00000  Uiso   1.00
O137   O     0.50001   0.20489   0.31608   0.00000  Uiso   1.00
O138   O     0.49999   0.12844   0.18393   0.00000  Uiso   1.00
Zn139  Zn    0.50000   0.21771   0.25000   0.00000  Uiso   1.00
Zn140  Zn    0.50000   0.11563   0.25000   0.00000  Uiso   1.00
O141   O     0.57460   0.14702   0.38166   0.00000  Uiso   1.00
C142   C     0.59550   0.18782   0.37276   0.00000  Uiso   1.00
H143   H     0.60112   0.20798   0.40387   0.00000  Uiso   1.00
H144   H     0.57808   0.20871   0.34815   0.00000  Uiso   1.00
H145   H     0.62637   0.17951   0.35781   0.00000  Uiso   1.00
O146   O     0.42610   0.18793   0.11810   0.00000  Uiso   1.00
C147   C     0.40429   0.14736   0.12532   0.00000  Uiso   1.00
H148   H     0.42193   0.12420   0.14772   0.00000  Uiso   1.00
H149   H     0.39691   0.12971   0.09319   0.00000  Uiso   1.00
H150   H     0.37427   0.15570   0.14212   0.00000  Uiso   1.00
O151   O     0.39030   0.20716   0.04320   0.00000  Uiso   1.00
C152   C     0.38692   0.25480   0.04471   0.00000  Uiso   1.00
H153   H     0.38386   0.26910   0.01046   0.00000  Uiso   1.00
H154   H     0.41386   0.27011   0.06248   0.00000  Uiso   1.00
H155   H     0.35832   0.26432   0.06378   0.00000  Uiso   1.00
O156   O     0.61029   0.12711   0.45560   0.00000  Uiso   1.00
C157   C     0.64588   0.15013   0.47115   0.00000  Uiso   1.00
H158   H     0.65838   0.13393   0.00186   0.00000  Uiso   1.00
H159   H     0.63977   0.18693   0.47728   0.00000  Uiso   1.00
H160   H     0.33717   0.14742   0.44501   0.00000  Uiso   1.00
O161   O     0.37738   0.10509   0.30295   0.00000  Uiso   1.00
C162   C     0.37489   0.12037   0.34788   0.00000  Uiso   1.00
H163   H     0.38108   0.15729   0.35124   0.00000  Uiso   1.00
H164   H     0.39891   0.10215   0.36768   0.00000  Uiso   1.00
H165   H     0.34398   0.11252   0.36261   0.00000  Uiso   1.00
O166   O     0.62261   0.22834   0.19703   0.00000  Uiso   1.00
C167   C     0.62495   0.21305   0.15208   0.00000  Uiso   1.00
H168   H     0.60086   0.23129   0.13239   0.00000  Uiso   1.00
H169   H     0.61873   0.17614   0.14875   0.00000  Uiso   1.00
H170   H     0.65579   0.22090   0.13721   0.00000  Uiso   1.00
O171   O     0.62462   0.09939   0.29689   0.00000  Uiso   1.00
C172   C     0.62884   0.05736   0.27419   0.00000  Uiso   1.00
H173   H     0.61585   0.05905   0.23965   0.00000  Uiso   1.00
H174   H     0.61103   0.03165   0.29286   0.00000  Uiso   1.00
H175   H     0.66180   0.04536   0.27288   0.00000  Uiso   1.00
O176   O     0.37540   0.23389   0.20291   0.00000  Uiso   1.00
C177   C     0.37122   0.27598   0.22551   0.00000  Uiso   1.00
H178   H     0.38899   0.30164   0.20672   0.00000  Uiso   1.00
H179   H     0.38427   0.27439   0.26002   0.00000  Uiso   1.00
H180   H     0.33827   0.28799   0.22686   0.00000  Uiso   1.00
C181   C     0.75336   0.16705   0.25037   0.00000  Uiso   1.00
C182   C     0.91330   0.16628   0.24956   0.00000  Uiso   1.00
C183   C     0.76067   0.19519   0.02209   0.00000  Uiso   1.00
C184   C     0.90794   0.14241   0.47790   0.00000  Uiso   1.00
C185   C     0.68860   0.13496   0.27615   0.00000  Uiso   1.00
C186   C     0.97807   0.19842   0.22376   0.00000  Uiso   1.00
C187   C     0.97905   0.13199   0.27289   0.00000  Uiso   1.00
C188   C     0.68763   0.20136   0.22700   0.00000  Uiso   1.00
C189   C     0.95747   0.16538   0.24865   0.00000  Uiso   1.00
C190   C     0.70920   0.16798   0.25125   0.00000  Uiso   1.00
C191   C     0.85222   0.02404   0.28369   0.00000  Uiso   1.00
C192   C     0.81445   0.30930   0.21631   0.00000  Uiso   1.00
C193   C     0.81437   0.02392   0.21636   0.00000  Uiso   1.00
C194   C     0.85230   0.30941   0.28364   0.00000  Uiso   1.00
C195   C     0.83288   0.16642   0.16356   0.00000  Uiso   1.00
C196   C     0.83386   0.16692   0.33644   0.00000  Uiso   1.00
C197   C     0.87227   0.15716   0.40631   0.00000  Uiso   1.00
C198   C     0.79517   0.17770   0.09361   0.00000  Uiso   1.00
C199   C     0.83518   0.16792   0.38404   0.00000  Uiso   1.00
C200   C     0.83182   0.16562   0.11598   0.00000  Uiso   1.00
C201   C     0.79932   0.18141   0.40667   0.00000  Uiso   1.00
C202   C     0.86775   0.15224   0.09341   0.00000  Uiso   1.00
C203   C     0.79875   0.18186   0.45291   0.00000  Uiso   1.00
C204   C     0.86887   0.15332   0.04716   0.00000  Uiso   1.00
C205   C     0.83479   0.16855   0.47664   0.00000  Uiso   1.00
C206   C     0.83321   0.16764   0.02345   0.00000  Uiso   1.00
C207   C     0.87212   0.15579   0.45346   0.00000  Uiso   1.00
C208   C     0.79587   0.18031   0.04659   0.00000  Uiso   1.00
C209   C     0.76228   0.19487   0.47543   0.00000  Uiso   1.00
C210   C     0.90538   0.14041   0.02471   0.00000  Uiso   1.00
H211   H     0.77177   0.19129   0.38801   0.00000  Uiso   1.00
H212   H     0.89501   0.14153   0.11214   0.00000  Uiso   1.00
H213   H     0.73471   0.20474   0.45678   0.00000  Uiso   1.00
H214   H     0.93188   0.12824   0.04374   0.00000  Uiso   1.00
H215   H     0.86729   0.04223   0.31065   0.00000  Uiso   1.00
H216   H     0.79939   0.29110   0.18934   0.00000  Uiso   1.00
H217   H     0.79912   0.04202   0.18949   0.00000  Uiso   1.00
H218   H     0.86755   0.29132   0.31050   0.00000  Uiso   1.00
N219   N     0.83333   0.28573   0.25000   0.00000  Uiso   1.00
N220   N     0.83333   0.04760   0.25000   0.00000  Uiso   1.00
O221   O     0.77226   0.20487   0.25000   0.00000  Uiso   1.00
O222   O     0.89441   0.12846   0.25001   0.00000  Uiso   1.00
O223   O     0.89441   0.20487   0.25001   0.00000  Uiso   1.00
O224   O     0.77226   0.12846   0.25000   0.00000  Uiso   1.00
O225   O     0.83333   0.20489   0.18393   0.00000  Uiso   1.00
O226   O     0.83334   0.12844   0.31608   0.00000  Uiso   1.00
O227   O     0.83334   0.20489   0.31608   0.00000  Uiso   1.00
O228   O     0.83333   0.12844   0.18393   0.00000  Uiso   1.00
Zn229  Zn    0.83333   0.21771   0.25000   0.00000  Uiso   1.00
Zn230  Zn    0.83333   0.11563   0.25000   0.00000  Uiso   1.00
O231   O     0.90793   0.14702   0.38166   0.00000  Uiso   1.00
C232   C     0.92884   0.18782   0.37276   0.00000  Uiso   1.00
H233   H     0.93445   0.20798   0.40387   0.00000  Uiso   1.00
H234   H     0.91141   0.20871   0.34815   0.00000  Uiso   1.00
H235   H     0.95970   0.17951   0.35781   0.00000  Uiso   1.00
O236   O     0.75944   0.18793   0.11810   0.00000  Uiso   1.00
C237   C     0.73762   0.14736   0.12532   0.00000  Uiso   1.00
H238   H     0.75526   0.12420   0.14772   0.00000  Uiso   1.00
H239   H     0.73024   0.12971   0.09319   0.00000  Uiso   1.00
H240   H     0.70760   0.15570   0.14212   0.00000  Uiso   1.00
O241   O     0.72364   0.20716   0.04320   0.00000  Uiso   1.00
C242   C     0.72026   0.25480   0.04471   0.00000  Uiso   1.00
H243   H     0.71719   0.26910   0.01046   0.00000  Uiso   1.00
H244   H     0.74720   0.27011   0.06248   0.00000  Uiso   1.00
H245   H     0.69165   0.26432   0.06378   0.00000  Uiso   1.00
O246   O     0.94362   0.12711   0.45560   0.00000  Uiso   1.00
C247   C     0.97922   0.15013   0.47115   0.00000  Uiso   1.00
H248   H     0.99171   0.13393   0.00186   0.00000  Uiso   1.00
H249   H     0.97310   0.18693   0.47728   0.00000  Uiso   1.00
H250   H     0.67051   0.14742   0.44501   0.00000  Uiso   1.00
O251   O     0.71071   0.10509   0.30295   0.00000  Uiso   1.00
C252   C     0.70822   0.12037   0.34788   0.00000  Uiso   1.00
H253   H     0.71442   0.15729   0.35124   0.00000  Uiso   1.00
H254   H     0.73224   0.10215   0.36768   0.00000  Uiso   1.00
H255   H     0.67732   0.11252   0.36261   0.00000  Uiso   1.00
O256   O     0.95594   0.22834   0.19703   0.00000  Uiso   1.00
C257   C     0.95828   0.21305   0.15208   0.00000  Uiso   1.00
H258   H     0.93419   0.23129   0.13239   0.00000  Uiso   1.00
H259   H     0.95206   0.17614   0.14875   0.00000  Uiso   1.00
H260   H     0.98913   0.22090   0.13721   0.00000  Uiso   1.00
O261   O     0.95795   0.09939   0.29689   0.00000  Uiso   1.00
C262   C     0.96217   0.05736   0.27419   0.00000  Uiso   1.00
H263   H     0.94919   0.05905   0.23965   0.00000  Uiso   1.00
H264   H     0.94436   0.03165   0.29286   0.00000  Uiso   1.00
H265   H     0.99513   0.04536   0.27288   0.00000  Uiso   1.00
O266   O     0.70874   0.23389   0.20291   0.00000  Uiso   1.00
C267   C     0.70455   0.27598   0.22551   0.00000  Uiso   1.00
H268   H     0.72233   0.30164   0.20672   0.00000  Uiso   1.00
H269   H     0.71761   0.27439   0.26002   0.00000  Uiso   1.00
H270   H     0.67160   0.28799   0.22686   0.00000  Uiso   1.00
C271   C     0.08670   0.50039   0.25037   0.00000  Uiso   1.00
C272   C     0.24664   0.49962   0.24956   0.00000  Uiso   1.00
C273   C     0.09401   0.52853   0.02209   0.00000  Uiso   1.00
C274   C     0.24127   0.47574   0.47790   0.00000  Uiso   1.00
C275   C     0.02193   0.46829   0.27615   0.00000  Uiso   1.00
C276   C     0.31140   0.53175   0.22376   0.00000  Uiso   1.00
C277   C     0.31238   0.46532   0.27289   0.00000  Uiso   1.00
C278   C     0.02096   0.53470   0.22700   0.00000  Uiso   1.00
C279   C     0.29080   0.49871   0.24865   0.00000  Uiso   1.00
C280   C     0.04253   0.50131   0.25125   0.00000  Uiso   1.00
C281   C     0.18555   0.35737   0.28369   0.00000  Uiso   1.00
C282   C     0.14779   0.64263   0.21631   0.00000  Uiso   1.00
C283   C     0.14770   0.35725   0.21636   0.00000  Uiso   1.00
C284   C     0.18563   0.64275   0.28364   0.00000  Uiso   1.00
C285   C     0.16621   0.49975   0.16356   0.00000  Uiso   1.00
C286   C     0.16719   0.50026   0.33644   0.00000  Uiso   1.00
C287   C     0.20560   0.49050   0.40631   0.00000  Uiso   1.00
C288   C     0.12850   0.51103   0.09361   0.00000  Uiso   1.00
C289   C     0.16851   0.50125   0.38404   0.00000  Uiso   1.00
C290   C     0.16515   0.49895   0.11598   0.00000  Uiso   1.00
C291   C     0.13266   0.51475   0.40667   0.00000  Uiso   1.00
C292   C     0.20108   0.48557   0.09341   0.00000  Uiso   1.00
C293   C     0.13209   0.51520   0.45291   0.00000  Uiso   1.00
C294   C     0.20220   0.48665   0.04716   0.00000  Uiso   1.00
C295   C     0.16812   0.50188   0.47664   0.00000  Uiso   1.00
C296   C     0.16655   0.50097   0.02345   0.00000  Uiso   1.00
C297   C     0.20545   0.48912   0.45346   0.00000  Uiso   1.00
C298   C     0.12920   0.51364   0.04659   0.00000  Uiso   1.00
C299   C     0.09562   0.52821   0.47543   0.00000  Uiso   1.00
C300   C     0.23872   0.47374   0.02471   0.00000  Uiso   1.00
H301   H     0.10510   0.52462   0.38801   0.00000  Uiso   1.00
H302   H     0.22834   0.47487   0.11214   0.00000  Uiso   1.00
H303   H     0.06805   0.53807   0.45678   0.00000  Uiso   1.00
H304   H     0.26522   0.46157   0.04374   0.00000  Uiso   1.00
H305   H     0.20062   0.37557   0.31065   0.00000  Uiso   1.00
H306   H     0.13272   0.62443   0.18934   0.00000  Uiso   1.00
H307   H     0.13245   0.37535   0.18949   0.00000  Uiso   1.00
H308   H     0.20088   0.62465   0.31050   0.00000  Uiso   1.00
N309   N     0.16667   0.61907   0.25000   0.00000  Uiso   1.00
N310   N     0.16667   0.38093   0.25000   0.00000  Uiso   1.00
O311   O     0.10559   0.53821   0.25000   0.00000  Uiso   1.00
O312   O     0.22774   0.46179   0.25001   0.00000  Uiso   1.00
O313   O     0.22774   0.53821   0.25001   0.00000  Uiso   1.00
O314   O     0.10559   0.46179   0.25000   0.00000  Uiso   1.00
O315   O     0.16666   0.53823   0.18393   0.00000  Uiso   1.00
O316   O     0.16667   0.46177   0.31608   0.00000  Uiso   1.00
O317   O     0.16667   0.53823   0.31608   0.00000  Uiso   1.00
O318   O     0.16666   0.46177   0.18393   0.00000  Uiso   1.00
Zn319  Zn    0.16667   0.55104   0.25000   0.00000  Uiso   1.00
Zn320  Zn    0.16667   0.44896   0.25000   0.00000  Uiso   1.00
O321   O     0.24126   0.48035   0.38166   0.00000  Uiso   1.00
C322   C     0.26217   0.52116   0.37276   0.00000  Uiso   1.00
H323   H     0.26778   0.54131   0.40387   0.00000  Uiso   1.00
H324   H     0.24474   0.54205   0.34815   0.00000  Uiso   1.00
H325   H     0.29304   0.51284   0.35781   0.00000  Uiso   1.00
O326   O     0.09277   0.52127   0.11810   0.00000  Uiso   1.00
C327   C     0.07096   0.48070   0.12532   0.00000  Uiso   1.00
H328   H     0.08859   0.45753   0.14772   0.00000  Uiso   1.00
H329   H     0.06357   0.46305   0.09319   0.00000  Uiso   1.00
H330   H     0.04093   0.48903   0.14212   0.00000  Uiso   1.00
O331   O     0.05697   0.54049   0.04320   0.00000  Uiso   1.00
C332   C     0.05359   0.58814   0.04471   0.00000  Uiso   1.00
H333   H     0.05052   0.60243   0.01046   0.00000  Uiso   1.00
H334   H     0.08053   0.60345   0.06248   0.00000  Uiso   1.00
H335   H     0.02499   0.59766   0.06378   0.00000  Uiso   1.00
O336   O     0.27695   0.46045   0.45560   0.00000  Uiso   1.00
C337   C     0.31255   0.48347   0.47115   0.00000  Uiso   1.00
H338   H     0.32504   0.46727   0.00186   0.00000  Uiso   1.00
H339   H     0.30643   0.52027   0.47728   0.00000  Uiso   1.00
H340   H     0.00384   0.48075   0.44501   0.00000  Uiso   1.00
O341   O     0.04405   0.43842   0.30295   0.00000  Uiso   1.00
C342   C     0.04156   0.45371   0.34788   0.00000  Uiso   1.00
H343   H     0.04775   0.49062   0.35124   0.00000  Uiso   1.00
H344   H     0.06557   0.43548   0.36768   0.00000  Uiso   1.00
H345   H     0.01065   0.44585   0.36261   0.00000  Uiso   1.00
O346   O     0.28928   0.56167   0.19703   0.00000  Uiso   1.00
C347   C     0.29161   0.54639   0.15208   0.00000  Uiso   1.00
H348   H     0.26753   0.56462   0.13239   0.00000  Uiso   1.00
H349   H     0.28539   0.50948   0.14875   0.00000  Uiso   1.00
H350   H     0.32246   0.55423   0.13721   0.00000  Uiso   1.00
O351   O     0.29128   0.43272   0.29689   0.00000  Uiso   1.00
C352   C     0.29551   0.39069   0.27419   0.00000  Uiso   1.00
H353   H     0.28252   0.39238   0.23965   0.00000  Uiso   1.00
H354   H     0.27769   0.36498   0.29286   0.00000  Uiso   1.00
H355   H     0.32846   0.37869   0.27288   0.00000  Uiso   1.00
O356   O     0.04207   0.56723   0.20291   0.00000  Uiso   1.00
C357   C     0.03788   0.60932   0.22551   0.00000  Uiso   1.00
H358   H     0.05566   0.63498   0.20672   0.00000  Uiso   1.00
H359   H     0.05094   0.60772   0.26002   0.00000  Uiso   1.00
H360   H     0.00493   0.62132   0.22686   0.00000  Uiso   1.00
C361   C     0.42003   0.50039   0.25037   0.00000  Uiso   1.00
C362   C     0.57997   0.49962   0.24956   0.00000  Uiso   1.00
C363   C     0.42734   0.52853   0.02209   0.00000  Uiso   1.00
C364   C     0.57461   0.47574   0.47790   0.00000  Uiso   1.00
C365   C     0.35526   0.46829   0.27615   0.00000  Uiso   1.00
C366   C     0.64474   0.53175   0.22376   0.00000  Uiso   1.00
C367   C     0.64571   0.46532   0.27289   0.00000  Uiso   1.00
C368   C     0.35429   0.53470   0.22700   0.00000  Uiso   1.00
C369   C     0.62413   0.49871   0.24865   0.00000  Uiso   1.00
C370   C     0.37587   0.50131   0.25125   0.00000  Uiso   1.00
C371   C     0.51888   0.35737   0.28369   0.00000  Uiso   1.00
C372   C     0.48112   0.64263   0.21631   0.00000  Uiso   1.00
C373   C     0.48104   0.35725   0.21636   0.00000  Uiso   1.00
C374   C     0.51897   0.64275   0.28364   0.00000  Uiso   1.00
C375   C     0.49955   0.49975   0.16356   0.00000  Uiso   1.00
C376   C     0.50053   0.50026   0.33644   0.00000  Uiso   1.00
C377   C     0.53894   0.49050   0.40631   0.00000  Uiso   1.00
C378   C     0.46183   0.51103   0.09361   0.00000  Uiso   1.00
C379   C     0.50185   0.50125   0.38404   0.00000  Uiso   1.00
C380   C     0.49849   0.49895   0.11598   0.00000  Uiso   1.00
C381   C     0.46599   0.51475   0.40667   0.00000  Uiso   1.00
C382   C     0.53442   0.48557   0.09341   0.00000  Uiso   1.00
C383   C     0.46542   0.51520   0.45291   0.00000  Uiso   1.00
C384   C     0.53553   0.48665   0.04716   0.00000  Uiso   1.00
C385   C     0.50146   0.50188   0.47664   0.00000  Uiso   1.00
C386   C     0.49988   0.50097   0.02345   0.00000  Uiso   1.00
C387   C     0.53879   0.48912   0.45346   0.00000  Uiso   1.00
C388   C     0.46253   0.51364   0.04659   0.00000  Uiso   1.00
C389   C     0.42895   0.52821   0.47543   0.00000  Uiso   1.00
C390   C     0.57205   0.47374   0.02471   0.00000  Uiso   1.00
H391   H     0.43843   0.52462   0.38801   0.00000  Uiso   1.00
H392   H     0.56167   0.47487   0.11214   0.00000  Uiso   1.00
H393   H     0.40138   0.53807   0.45678   0.00000  Uiso   1.00
H394   H     0.59855   0.46157   0.04374   0.00000  Uiso   1.00
H395   H     0.53395   0.37557   0.31065   0.00000  Uiso   1.00
H396   H     0.46606   0.62443   0.18934   0.00000  Uiso   1.00
H397   H     0.46579   0.37535   0.18949   0.00000  Uiso   1.00
H398   H     0.53422   0.62465   0.31050   0.00000  Uiso   1.00
N399   N     0.50000   0.61907   0.25000   0.00000  Uiso   1.00
N400   N     0.50000   0.38093   0.25000   0.00000  Uiso   1.00
O401   O     0.43892   0.53821   0.25000   0.00000  Uiso   1.00
O402   O     0.56108   0.46179   0.25001   0.00000  Uiso   1.00
O403   O     0.56108   0.53821   0.25001   0.00000  Uiso   1.00
O404   O     0.43892   0.46179   0.25000   0.00000  Uiso   1.00
O405   O     0.49999   0.53823   0.18393   0.00000  Uiso   1.00
O406   O     0.50001   0.46177   0.31608   0.00000  Uiso   1.00
O407   O     0.50001   0.53823   0.31608   0.00000  Uiso   1.00
O408   O     0.49999   0.46177   0.18393   0.00000  Uiso   1.00
Zn409  Zn    0.50000   0.55104   0.25000   0.00000  Uiso   1.00
Zn410  Zn    0.50000   0.44896   0.25000   0.00000  Uiso   1.00
O411   O     0.57460   0.48035   0.38166   0.00000  Uiso   1.00
C412   C     0.59550   0.52116   0.37276   0.00000  Uiso   1.00
H413   H     0.60112   0.54131   0.40387   0.00000  Uiso   1.00
H414   H     0.57808   0.54205   0.34815   0.00000  Uiso   1.00
H415   H     0.62637   0.51284   0.35781   0.00000  Uiso   1.00
O416   O     0.42610   0.52127   0.11810   0.00000  Uiso   1.00
C417   C     0.40429   0.48070   0.12532   0.00000  Uiso   1.00
H418   H     0.42193   0.45753   0.14772   0.00000  Uiso   1.00
H419   H     0.39691   0.46305   0.09319   0.00000  Uiso   1.00
H420   H     0.37427   0.48903   0.14212   0.00000  Uiso   1.00
O421   O     0.39030   0.54049   0.04320   0.00000  Uiso   1.00
C422   C     0.38692   0.58814   0.04471   0.00000  Uiso   1.00
H423   H     0.38386   0.60243   0.01046   0.00000  Uiso   1.00
H424   H     0.41386   0.60345   0.06248   0.00000  Uiso   1.00
H425   H     0.35832   0.59766   0.06378   0.00000  Uiso   1.00
O426   O     0.61029   0.46045   0.45560   0.00000  Uiso   1.00
C427   C     0.64588   0.48347   0.47115   0.00000  Uiso   1.00
H428   H     0.65838   0.46727   0.00186   0.00000  Uiso   1.00
H429   H     0.63977   0.52027   0.47728   0.00000  Uiso   1.00
H430   H     0.33717   0.48075   0.44501   0.00000  Uiso   1.00
O431   O     0.37738   0.43842   0.30295   0.00000  Uiso   1.00
C432   C     0.37489   0.45371   0.34788   0.00000  Uiso   1.00
H433   H     0.38108   0.49062   0.35124   0.00000  Uiso   1.00
H434   H     0.39891   0.43548   0.36768   0.00000  Uiso   1.00
H435   H     0.34398   0.44585   0.36261   0.00000  Uiso   1.00
O436   O     0.62261   0.56167   0.19703   0.00000  Uiso   1.00
C437   C     0.62495   0.54639   0.15208   0.00000  Uiso   1.00
H438   H     0.60086   0.56462   0.13239   0.00000  Uiso   1.00
H439   H     0.61873   0.50948   0.14875   0.00000  Uiso   1.00
H440   H     0.65579   0.55423   0.13721   0.00000  Uiso   1.00
O441   O     0.62462   0.43272   0.29689   0.00000  Uiso   1.00
C442   C     0.62884   0.39069   0.27419   0.00000  Uiso   1.00
H443   H     0.61585   0.39238   0.23965   0.00000  Uiso   1.00
H444   H     0.61103   0.36498   0.29286   0.00000  Uiso   1.00
H445   H     0.66180   0.37869   0.27288   0.00000  Uiso   1.00
O446   O     0.37540   0.56723   0.20291   0.00000  Uiso   1.00
C447   C     0.37122   0.60932   0.22551   0.00000  Uiso   1.00
H448   H     0.38899   0.63498   0.20672   0.00000  Uiso   1.00
H449   H     0.38427   0.60772   0.26002   0.00000  Uiso   1.00
H450   H     0.33827   0.62132   0.22686   0.00000  Uiso   1.00
C451   C     0.75336   0.50039   0.25037   0.00000  Uiso   1.00
C452   C     0.91330   0.49962   0.24956   0.00000  Uiso   1.00
C453   C     0.76067   0.52853   0.02209   0.00000  Uiso   1.00
C454   C     0.90794   0.47574   0.47790   0.00000  Uiso   1.00
C455   C     0.68860   0.46829   0.27615   0.00000  Uiso   1.00
C456   C     0.97807   0.53175   0.22376   0.00000  Uiso   1.00
C457   C     0.97905   0.46532   0.27289   0.00000  Uiso   1.00
C458   C     0.68763   0.53470   0.22700   0.00000  Uiso   1.00
C459   C     0.95747   0.49871   0.24865   0.00000  Uiso   1.00
C460   C     0.70920   0.50131   0.25125   0.00000  Uiso   1.00
C461   C     0.85222   0.35737   0.28369   0.00000  Uiso   1.00
C462   C     0.81445   0.64263   0.21631   0.00000  Uiso   1.00
C463   C     0.81437   0.35725   0.21636   0.00000  Uiso   1.00
C464   C     0.85230   0.64275   0.28364   0.00000  Uiso   1.00
C465   C     0.83288   0.49975   0.16356   0.00000  Uiso   1.00
C466   C     0.83386   0.50026   0.33644   0.00000  Uiso   1.00
C467   C     0.87227   0.49050   0.40631   0.00000  Uiso   1.00
C468   C     0.79517   0.51103   0.09361   0.00000  Uiso   1.00
C469   C     0.83518   0.50125   0.38404   0.00000  Uiso   1.00
C470   C     0.83182   0.49895   0.11598   0.00000  Uiso   1.00
C471   C     0.79932   0.51475   0.40667   0.00000  Uiso   1.00
C472   C     0.86775   0.48557   0.09341   0.00000  Uiso   1.00
C473   C     0.79875   0.51520   0.45291   0.00000  Uiso   1.00
C474   C     0.86887   0.48665   0.04716   0.00000  Uiso   1.00
C475   C     0.83479   0.50188   0.47664   0.00000  Uiso   1.00
C476   C     0.83321   0.50097   0.02345   0.00000  Uiso   1.00
C477   C     0.87212   0.48912   0.45346   0.00000  Uiso   1.00
C478   C     0.79587   0.51364   0.04659   0.00000  Uiso   1.00
C479   C     0.76228   0.52821   0.47543   0.00000  Uiso   1.00
C480   C     0.90538   0.47374   0.02471   0.00000  Uiso   1.00
H481   H     0.77177   0.52462   0.38801   0.00000  Uiso   1.00
H482   H     0.89501   0.47487   0.11214   0.00000  Uiso   1.00
H483   H     0.73471   0.53807   0.45678   0.00000  Uiso   1.00
H484   H     0.93188   0.46157   0.04374   0.00000  Uiso   1.00
H485   H     0.86729   0.37557   0.31065   0.00000  Uiso   1.00
H486   H     0.79939   0.62443   0.18934   0.00000  Uiso   1.00
H487   H     0.79912   0.37535   0.18949   0.00000  Uiso   1.00
H488   H     0.86755   0.62465   0.31050   0.00000  Uiso   1.00
N489   N     0.83333   0.61907   0.25000   0.00000  Uiso   1.00
N490   N     0.83333   0.38093   0.25000   0.00000  Uiso   1.00
O491   O     0.77226   0.53821   0.25000   0.00000  Uiso   1.00
O492   O     0.89441   0.46179   0.25001   0.00000  Uiso   1.00
O493   O     0.89441   0.53821   0.25001   0.00000  Uiso   1.00
O494   O     0.77226   0.46179   0.25000   0.00000  Uiso   1.00
O495   O     0.83333   0.53823   0.18393   0.00000  Uiso   1.00
O496   O     0.83334   0.46177   0.31608   0.00000  Uiso   1.00
O497   O     0.83334   0.53823   0.31608   0.00000  Uiso   1.00
O498   O     0.83333   0.46177   0.18393   0.00000  Uiso   1.00
Zn499  Zn    0.83333   0.55104   0.25000   0.00000  Uiso   1.00
Zn500  Zn    0.83333   0.44896   0.25000   0.00000  Uiso   1.00
O501   O     0.90793   0.48035   0.38166   0.00000  Uiso   1.00
C502   C     0.92884   0.52116   0.37276   0.00000  Uiso   1.00
H503   H     0.93445   0.54131   0.40387   0.00000  Uiso   1.00
H504   H     0.91141   0.54205   0.34815   0.00000  Uiso   1.00
H505   H     0.95970   0.51284   0.35781   0.00000  Uiso   1.00
O506   O     0.75944   0.52127   0.11810   0.00000  Uiso   1.00
C507   C     0.73762   0.48070   0.12532   0.00000  Uiso   1.00
H508   H     0.75526   0.45753   0.14772   0.00000  Uiso   1.00
H509   H     0.73024   0.46305   0.09319   0.00000  Uiso   1.00
H510   H     0.70760   0.48903   0.14212   0.00000  Uiso   1.00
O511   O     0.72364   0.54049   0.04320   0.00000  Uiso   1.00
C512   C     0.72026   0.58814   0.04471   0.00000  Uiso   1.00
H513   H     0.71719   0.60243   0.01046   0.00000  Uiso   1.00
H514   H     0.74720   0.60345   0.06248   0.00000  Uiso   1.00
H515   H     0.69165   0.59766   0.06378   0.00000  Uiso   1.00
O516   O     0.94362   0.46045   0.45560   0.00000  Uiso   1.00
C517   C     0.97922   0.48347   0.47115   0.00000  Uiso   1.00
H518   H     0.99171   0.46727   0.00186   0.00000  Uiso   1.00
H519   H     0.97310   0.52027   0.47728   0.00000  Uiso   1.00
H520   H     0.67051   0.48075   0.44501   0.00000  Uiso   1.00
O521   O     0.71071   0.43842   0.30295   0.00000  Uiso   1.00
C522   C     0.70822   0.45371   0.34788   0.00000  Uiso   1.00
H523   H     0.71442   0.49062   0.35124   0.00000  Uiso   1.00
H524   H     0.73224   0.43548   0.36768   0.00000  Uiso   1.00
H525   H     0.67732   0.44585   0.36261   0.00000  Uiso   1.00
O526   O     0.95594   0.56167   0.19703   0.00000  Uiso   1.00
C527   C     0.95828   0.54639   0.15208   0.00000  Uiso   1.00
H528   H     0.93419   0.56462   0.13239   0.00000  Uiso   1.00
H529   H     0.95206   0.50948   0.14875   0.00000  Uiso   1.00
H530   H     0.98913   0.55423   0.13721   0.00000  Uiso   1.00
O531   O     0.95795   0.43272   0.29689   0.00000  Uiso   1.00
C532   C     0.96217   0.39069   0.27419   0.00000  Uiso   1.00
H533   H     0.94919   0.39238   0.23965   0.00000  Uiso   1.00
H534   H     0.94436   0.36498   0.29286   0.00000  Uiso   1.00
H535   H     0.99513   0.37869   0.27288   0.00000  Uiso   1.00
O536   O     0.70874   0.56723   0.20291   0.00000  Uiso   1.00
C537   C     0.70455   0.60932   0.22551   0.00000  Uiso   1.00
H538   H     0.72233   0.63498   0.20672   0.00000  Uiso   1.00
H539   H     0.71761   0.60772   0.26002   0.00000  Uiso   1.00
H540   H     0.67160   0.62132   0.22686   0.00000  Uiso   1.00
C541   C     0.08670   0.83372   0.25037   0.00000  Uiso   1.00
C542   C     0.24664   0.83295   0.24956   0.00000  Uiso   1.00
C543   C     0.09401   0.86186   0.02209   0.00000  Uiso   1.00
C544   C     0.24127   0.80907   0.47790   0.00000  Uiso   1.00
C545   C     0.02193   0.80163   0.27615   0.00000  Uiso   1.00
C546   C     0.31140   0.86508   0.22376   0.00000  Uiso   1.00
C547   C     0.31238   0.79865   0.27289   0.00000  Uiso   1.00
C548   C     0.02096   0.86803   0.22700   0.00000  Uiso   1.00
C549   C     0.29080   0.83204   0.24865   0.00000  Uiso   1.00
C550   C     0.04253   0.83464   0.25125   0.00000  Uiso   1.00
C551   C     0.18555   0.69070   0.28369   0.00000  Uiso   1.00
C552   C     0.14779   0.97596   0.21631   0.00000  Uiso   1.00
C553   C     0.14770   0.69059   0.21636   0.00000  Uiso   1.00
C554   C     0.18563   0.97608   0.28364   0.00000  Uiso   1.00
C555   C     0.16621   0.83309   0.16356   0.00000  Uiso   1.00
C556   C     0.16719   0.83359   0.33644   0.00000  Uiso   1.00
C557   C     0.20560   0.82383   0.40631   0.00000  Uiso   1.00
C558   C     0.12850   0.84436   0.09361   0.00000  Uiso   1.00
C559   C     0.16851   0.83459   0.38404   0.00000  Uiso   1.00
C560   C     0.16515   0.83229   0.11598   0.00000  Uiso   1.00
C561   C     0.13266   0.84808   0.40667   0.00000  Uiso   1.00
C562   C     0.20108   0.81890   0.09341   0.00000  Uiso   1.00
C563   C     0.13209   0.84853   0.45291   0.00000  Uiso   1.00
C564   C     0.20220   0.81998   0.04716   0.00000  Uiso   1.00
C565   C     0.16812   0.83522   0.47664   0.00000  Uiso   1.00
C566   C     0.16655   0.83430   0.02345   0.00000  Uiso   1.00
C567   C     0.20545   0.82245   0.45346   0.00000  Uiso   1.00
C568   C     0.12920   0.84698   0.04659   0.00000  Uiso   1.00
C569   C     0.09562   0.86154   0.47543   0.00000  Uiso   1.00
C570   C     0.23872   0.80708   0.02471   0.00000  Uiso   1.00
H571   H     0.10510   0.85795   0.38801   0.00000  Uiso   1.00
H572   H     0.22834   0.80820   0.11214   0.00000  Uiso   1.00
H573   H     0.06805   0.87141   0.45678   0.00000  Uiso   1.00
H574   H     0.26522   0.79491   0.04374   0.00000  Uiso   1.00
H575   H     0.20062   0.70890   0.31065   0.00000  Uiso   1.00
H576   H     0.13272   0.95777   0.18934   0.00000  Uiso   1.00
H577   H     0.13245   0.70868   0.18949   0.00000  Uiso   1.00
H578   H     0.20088   0.95798   0.31050   0.00000  Uiso   1.00
N579   N     0.16667   0.95240   0.25000   0.00000  Uiso   1.00
N580   N     0.16667   0.71427   0.25000   0.00000  Uiso   1.00
O581   O     0.10559   0.87154   0.25000   0.00000  Uiso   1.00
O582   O     0.22774   0.79513   0.25001   0.00000  Uiso   1.00
O583   O     0.22774   0.87154   0.25001   0.00000  Uiso   1.00
O584   O     0.10559   0.79513   0.25000   0.00000  Uiso   1.00
O585   O     0.16666   0.87156   0.18393   0.00000  Uiso   1.00
O586   O     0.16667   0.79511   0.31608   0.00000  Uiso   1.00
O587   O     0.16667   0.87156   0.31608   0.00000  Uiso   1.00
O588   O     0.16666   0.79511   0.18393   0.00000  Uiso   1.00
Zn589  Zn    0.16667   0.88437   0.25000   0.00000  Uiso   1.00
Zn590  Zn    0.16667   0.78229   0.25000   0.00000  Uiso   1.00
O591   O     0.24126   0.81369   0.38166   0.00000  Uiso   1.00
C592   C     0.26217   0.85449   0.37276   0.00000  Uiso   1.00
H593   H     0.26778   0.87465   0.40387   0.00000  Uiso   1.00
H594   H     0.24474   0.87538   0.34815   0.00000  Uiso   1.00
H595   H     0.29304   0.84618   0.35781   0.00000  Uiso   1.00
O596   O     0.09277   0.85460   0.11810   0.00000  Uiso   1.00
C597   C     0.07096   0.81403   0.12532   0.00000  Uiso   1.00
H598   H     0.08859   0.79087   0.14772   0.00000  Uiso   1.00
H599   H     0.06357   0.79638   0.09319   0.00000  Uiso   1.00
H600   H     0.04093   0.82237   0.14212   0.00000  Uiso   1.00
O601   O     0.05697   0.87383   0.04320   0.00000  Uiso   1.00
C602   C     0.05359   0.92147   0.04471   0.00000  Uiso   1.00
H603   H     0.05052   0.93577   0.01046   0.00000  Uiso   1.00
H604   H     0.08053   0.93678   0.06248   0.00000  Uiso   1.00
H605   H     0.02499   0.93099   0.06378   0.00000  Uiso   1.00
O606   O     0.27695   0.79378   0.45560   0.00000  Uiso   1.00
C607   C     0.31255   0.81680   0.47115   0.00000  Uiso   1.00
H608   H     0.32504   0.80060   0.00186   0.00000  Uiso   1.00
H609   H     0.30643   0.85360   0.47728   0.00000  Uiso   1.00
H610   H     0.00384   0.81409   0.44501   0.00000  Uiso   1.00
O611   O     0.04405   0.77175   0.30295   0.00000  Uiso   1.00
C612   C     0.04156   0.78704   0.34788   0.00000  Uiso   1.00
H613   H     0.04775   0.82396   0.35124   0.00000  Uiso   1.00
H614   H     0.06557   0.76881   0.36768   0.00000  Uiso   1.00
H615   H     0.01065   0.77919   0.36261   0.00000  Uiso   1.00
O616   O     0.28928   0.89501   0.19703   0.00000  Uiso   1.00
C617   C     0.29161   0.87972   0.15208   0.00000  Uiso   1.00
H618   H     0.26753   0.89796   0.13239   0.00000  Uiso   1.00
H619   H     0.28539   0.84281   0.14875   0.00000  Uiso   1.00
H620   H     0.32246   0.88757   0.13721   0.00000  Uiso   1.00
O621   O     0.29128   0.76606   0.29689   0.00000  Uiso   1.00
C622   C     0.29551   0.72403   0.27419   0.00000  Uiso   1.00
H623   H     0.28252   0.72571   0.23965   0.00000  Uiso   1.00
H624   H     0.27769   0.69831   0.29286   0.00000  Uiso   1.00
H625   H     0.32846   0.71203   0.27288   0.00000  Uiso   1.00
O626   O     0.04207   0.90056   0.20291   0.00000  Uiso   1.00
C627   C     0.03788   0.94265   0.22551   0.00000  Uiso   1.00
H628   H     0.05566   0.96831   0.20672   0.00000  Uiso   1.00
H629   H     0.05094   0.94105   0.26002   0.00000  Uiso   1.00
H630   H     0.00493   0.95466   0.22686   0.00000  Uiso   1.00
C631   C     0.42003   0.83372   0.25037   0.00000  Uiso   1.00
C632   C     0.57997   0.83295   0.24956   0.00000  Uiso   1.00
C633   C     0.42734   0.86186   0.02209   0.00000  Uiso   1.00
C634   C     0.57461   0.80907   0.47790   0.00000  Uiso   1.00
C635   C     0.35526   0.80163   0.27615   0.00000  Uiso   1.00
C636   C     0.64474   0.86508   0.22376   0.00000  Uiso   1.00
C637   C     0.64571   0.79865   0.27289   0.00000  Uiso   1.00
C638   C     0.35429   0.86803   0.22700   0.00000  Uiso   1.00
C639   C     0.62413   0.83204   0.24865   0.00000  Uiso   1.00
C640   C     0.37587   0.83464   0.25125   0.00000  Uiso   1.00
C641   C     0.51888   0.69070   0.28369   0.00000  Uiso   1.00
C642   C     0.48112   0.97596   0.21631   0.00000  Uiso   1.00
C643   C     0.48104   0.69059   0.21636   0.00000  Uiso   1.00
C644   C     0.51897   0.97608   0.28364   0.00000  Uiso   1.00
C645   C     0.49955   0.83309   0.16356   0.00000  Uiso   1.00
C646   C     0.50053   0.83359   0.33644   0.00000  Uiso   1.00
C647   C     0.53894   0.82383   0.40631   0.00000  Uiso   1.00
C648   C     0.46183   0.84436   0.09361   0.00000  Uiso   1.00
C649   C     0.50185   0.83459   0.38404   0.00000  Uiso   1.00
C650   C     0.49849   0.83229   0.11598   0.00000  Uiso   1.00
C651   C     0.46599   0.84808   0.40667   0.00000  Uiso   1.00
C652   C     0.53442   0.81890   0.09341   0.00000  Uiso   1.00
C653   C     0.46542   0.84853   0.45291   0.00000  Uiso   1.00
C654   C     0.53553   0.81998   0.04716   0.00000  Uiso   1.00
C655   C     0.50146   0.83522   0.47664   0.00000  Uiso   1.00
C656   C     0.49988   0.83430   0.02345   0.00000  Uiso   1.00
C657   C     0.53879   0.82245   0.45346   0.00000  Uiso   1.00
C658   C     0.46253   0.84698   0.04659   0.00000  Uiso   1.00
C659   C     0.42895   0.86154   0.47543   0.00000  Uiso   1.00
C660   C     0.57205   0.80708   0.02471   0.00000  Uiso   1.00
H661   H     0.43843   0.85795   0.38801   0.00000  Uiso   1.00
H662   H     0.56167   0.80820   0.11214   0.00000  Uiso   1.00
H663   H     0.40138   0.87141   0.45678   0.00000  Uiso   1.00
H664   H     0.59855   0.79491   0.04374   0.00000  Uiso   1.00
H665   H     0.53395   0.70890   0.31065   0.00000  Uiso   1.00
H666   H     0.46606   0.95777   0.18934   0.00000  Uiso   1.00
H667   H     0.46579   0.70868   0.18949   0.00000  Uiso   1.00
H668   H     0.53422   0.95798   0.31050   0.00000  Uiso   1.00
N669   N     0.50000   0.95240   0.25000   0.00000  Uiso   1.00
N670   N     0.50000   0.71427   0.25000   0.00000  Uiso   1.00
O671   O     0.43892   0.87154   0.25000   0.00000  Uiso   1.00
O672   O     0.56108   0.79513   0.25001   0.00000  Uiso   1.00
O673   O     0.56108   0.87154   0.25001   0.00000  Uiso   1.00
O674   O     0.43892   0.79513   0.25000   0.00000  Uiso   1.00
O675   O     0.49999   0.87156   0.18393   0.00000  Uiso   1.00
O676   O     0.50001   0.79511   0.31608   0.00000  Uiso   1.00
O677   O     0.50001   0.87156   0.31608   0.00000  Uiso   1.00
O678   O     0.49999   0.79511   0.18393   0.00000  Uiso   1.00
Zn679  Zn    0.50000   0.88437   0.25000   0.00000  Uiso   1.00
Zn680  Zn    0.50000   0.78229   0.25000   0.00000  Uiso   1.00
O681   O     0.57460   0.81369   0.38166   0.00000  Uiso   1.00
C682   C     0.59550   0.85449   0.37276   0.00000  Uiso   1.00
H683   H     0.60112   0.87465   0.40387   0.00000  Uiso   1.00
H684   H     0.57808   0.87538   0.34815   0.00000  Uiso   1.00
H685   H     0.62637   0.84618   0.35781   0.00000  Uiso   1.00
O686   O     0.42610   0.85460   0.11810   0.00000  Uiso   1.00
C687   C     0.40429   0.81403   0.12532   0.00000  Uiso   1.00
H688   H     0.42193   0.79087   0.14772   0.00000  Uiso   1.00
H689   H     0.39691   0.79638   0.09319   0.00000  Uiso   1.00
H690   H     0.37427   0.82237   0.14212   0.00000  Uiso   1.00
O691   O     0.39030   0.87383   0.04320   0.00000  Uiso   1.00
C692   C     0.38692   0.92147   0.04471   0.00000  Uiso   1.00
H693   H     0.38386   0.93577   0.01046   0.00000  Uiso   1.00
H694   H     0.41386   0.93678   0.06248   0.00000  Uiso   1.00
H695   H     0.35832   0.93099   0.06378   0.00000  Uiso   1.00
O696   O     0.61029   0.79378   0.45560   0.00000  Uiso   1.00
C697   C     0.64588   0.81680   0.47115   0.00000  Uiso   1.00
H698   H     0.65838   0.80060   0.00186   0.00000  Uiso   1.00
H699   H     0.63977   0.85360   0.47728   0.00000  Uiso   1.00
H700   H     0.33717   0.81409   0.44501   0.00000  Uiso   1.00
O701   O     0.37738   0.77175   0.30295   0.00000  Uiso   1.00
C702   C     0.37489   0.78704   0.34788   0.00000  Uiso   1.00
H703   H     0.38108   0.82396   0.35124   0.00000  Uiso   1.00
H704   H     0.39891   0.76881   0.36768   0.00000  Uiso   1.00
H705   H     0.34398   0.77919   0.36261   0.00000  Uiso   1.00
O706   O     0.62261   0.89501   0.19703   0.00000  Uiso   1.00
C707   C     0.62495   0.87972   0.15208   0.00000  Uiso   1.00
H708   H     0.60086   0.89796   0.13239   0.00000  Uiso   1.00
H709   H     0.61873   0.84281   0.14875   0.00000  Uiso   1.00
H710   H     0.65579   0.88757   0.13721   0.00000  Uiso   1.00
O711   O     0.62462   0.76606   0.29689   0.00000  Uiso   1.00
C712   C     0.62884   0.72403   0.27419   0.00000  Uiso   1.00
H713   H     0.61585   0.72571   0.23965   0.00000  Uiso   1.00
H714   H     0.61103   0.69831   0.29286   0.00000  Uiso   1.00
H715   H     0.66180   0.71203   0.27288   0.00000  Uiso   1.00
O716   O     0.37540   0.90056   0.20291   0.00000  Uiso   1.00
C717   C     0.37122   0.94265   0.22551   0.00000  Uiso   1.00
H718   H     0.38899   0.96831   0.20672   0.00000  Uiso   1.00
H719   H     0.38427   0.94105   0.26002   0.00000  Uiso   1.00
H720   H     0.33827   0.95466   0.22686   0.00000  Uiso   1.00
C721   C     0.75336   0.83372   0.25037   0.00000  Uiso   1.00
C722   C     0.91330   0.83295   0.24956   0.00000  Uiso   1.00
C723   C     0.76067   0.86186   0.02209   0.00000  Uiso   1.00
C724   C     0.90794   0.80907   0.47790   0.00000  Uiso   1.00
C725   C     0.68860   0.80163   0.27615   0.00000  Uiso   1.00
C726   C     0.97807   0.86508   0.22376   0.00000  Uiso   1.00
C727   C     0.97905   0.79865   0.27289   0.00000  Uiso   1.00
C728   C     0.68763   0.86803   0.22700   0.00000  Uiso   1.00
C729   C     0.95747   0.83204   0.24865   0.00000  Uiso   1.00
C730   C     0.70920   0.83464   0.25125   0.00000  Uiso   1.00
C731   C     0.85222   0.69070   0.28369   0.00000  Uiso   1.00
C732   C     0.81445   0.97596   0.21631   0.00000  Uiso   1.00
C733   C     0.81437   0.69059   0.21636   0.00000  Uiso   1.00
C734   C     0.85230   0.97608   0.28364   0.00000  Uiso   1.00
C735   C     0.83288   0.83309   0.16356   0.00000  Uiso   1.00
C736   C     0.83386   0.83359   0.33644   0.00000  Uiso   1.00
C737   C     0.87227   0.82383   0.40631   0.00000  Uiso   1.00
C738   C     0.79517   0.84436   0.09361   0.00000  Uiso   1.00
C739   C     0.83518   0.83459   0.38404   0.00000  Uiso   1.00
C740   C     0.83182   0.83229   0.11598   0.00000  Uiso   1.00
C741   C     0.79932   0.84808   0.40667   0.00000  Uiso   1.00
C742   C     0.86775   0.81890   0.09341   0.00000  Uiso   1.00
C743   C     0.79875   0.84853   0.45291   0.00000  Uiso   1.00
C744   C     0.86887   0.81998   0.04716   0.00000  Uiso   1.00
C745   C     0.83479   0.83522   0.47664   0.00000  Uiso   1.00
C746   C     0.83321   0.83430   0.02345   0.00000  Uiso   1.00
C747   C     0.87212   0.82245   0.45346   0.00000  Uiso   1.00
C748   C     0.79587   0.84698   0.04659   0.00000  Uiso   1.00
C749   C     0.76228   0.86154   0.47543   0.00000  Uiso   1.00
C750   C     0.90538   0.80708   0.02471   0.00000  Uiso   1.00
H751   H     0.77177   0.85795   0.38801   0.00000  Uiso   1.00
H752   H     0.89501   0.80820   0.11214   0.00000  Uiso   1.00
H753   H     0.73471   0.87141   0.45678   0.00000  Uiso   1.00
H754   H     0.93188   0.79491   0.04374   0.00000  Uiso   1.00
H755   H     0.86729   0.70890   0.31065   0.00000  Uiso   1.00
H756   H     0.79939   0.95777   0.18934   0.00000  Uiso   1.00
H757   H     0.79912   0.70868   0.18949   0.00000  Uiso   1.00
H758   H     0.86755   0.95798   0.31050   0.00000  Uiso   1.00
N759   N     0.83333   0.95240   0.25000   0.00000  Uiso   1.00
N760   N     0.83333   0.71427   0.25000   0.00000  Uiso   1.00
O761   O     0.77226   0.87154   0.25000   0.00000  Uiso   1.00
O762   O     0.89441   0.79513   0.25001   0.00000  Uiso   1.00
O763   O     0.89441   0.87154   0.25001   0.00000  Uiso   1.00
O764   O     0.77226   0.79513   0.25000   0.00000  Uiso   1.00
O765   O     0.83333   0.87156   0.18393   0.00000  Uiso   1.00
O766   O     0.83334   0.79511   0.31608   0.00000  Uiso   1.00
O767   O     0.83334   0.87156   0.31608   0.00000  Uiso   1.00
O768   O     0.83333   0.79511   0.18393   0.00000  Uiso   1.00
Zn769  Zn    0.83333   0.88437   0.25000   0.00000  Uiso   1.00
Zn770  Zn    0.83333   0.78229   0.25000   0.00000  Uiso   1.00
O771   O     0.90793   0.81369   0.38166   0.00000  Uiso   1.00
C772   C     0.92884   0.85449   0.37276   0.00000  Uiso   1.00
H773   H     0.93445   0.87465   0.40387   0.00000  Uiso   1.00
H774   H     0.91141   0.87538   0.34815   0.00000  Uiso   1.00
H775   H     0.95970   0.84618   0.35781   0.00000  Uiso   1.00
O776   O     0.75944   0.85460   0.11810   0.00000  Uiso   1.00
C777   C     0.73762   0.81403   0.12532   0.00000  Uiso   1.00
H778   H     0.75526   0.79087   0.14772   0.00000  Uiso   1.00
H779   H     0.73024   0.79638   0.09319   0.00000  Uiso   1.00
H780   H     0.70760   0.82237   0.14212   0.00000  Uiso   1.00
O781   O     0.72364   0.87383   0.04320   0.00000  Uiso   1.00
C782   C     0.72026   0.92147   0.04471   0.00000  Uiso   1.00
H783   H     0.71719   0.93577   0.01046   0.00000  Uiso   1.00
H784   H     0.74720   0.93678   0.06248   0.00000  Uiso   1.00
H785   H     0.69165   0.93099   0.06378   0.00000  Uiso   1.00
O786   O     0.94362   0.79378   0.45560   0.00000  Uiso   1.00
C787   C     0.97922   0.81680   0.47115   0.00000  Uiso   1.00
H788   H     0.99171   0.80060   0.00186   0.00000  Uiso   1.00
H789   H     0.97310   0.85360   0.47728   0.00000  Uiso   1.00
H790   H     0.67051   0.81409   0.44501   0.00000  Uiso   1.00
O791   O     0.71071   0.77175   0.30295   0.00000  Uiso   1.00
C792   C     0.70822   0.78704   0.34788   0.00000  Uiso   1.00
H793   H     0.71442   0.82396   0.35124   0.00000  Uiso   1.00
H794   H     0.73224   0.76881   0.36768   0.00000  Uiso   1.00
H795   H     0.67732   0.77919   0.36261   0.00000  Uiso   1.00
O796   O     0.95594   0.89501   0.19703   0.00000  Uiso   1.00
C797   C     0.95828   0.87972   0.15208   0.00000  Uiso   1.00
H798   H     0.93419   0.89796   0.13239   0.00000  Uiso   1.00
H799   H     0.95206   0.84281   0.14875   0.00000  Uiso   1.00
H800   H     0.98913   0.88757   0.13721   0.00000  Uiso   1.00
O801   O     0.95795   0.76606   0.29689   0.00000  Uiso   1.00
C802   C     0.96217   0.72403   0.27419   0.00000  Uiso   1.00
H803   H     0.94919   0.72571   0.23965   0.00000  Uiso   1.00
H804   H     0.94436   0.69831   0.29286   0.00000  Uiso   1.00
H805   H     0.99513   0.71203   0.27288   0.00000  Uiso   1.00
O806   O     0.70874   0.90056   0.20291   0.00000  Uiso   1.00
C807   C     0.70455   0.94265   0.22551   0.00000  Uiso   1.00
H808   H     0.72233   0.96831   0.20672   0.00000  Uiso   1.00
H809   H     0.71761   0.94105   0.26002   0.00000  Uiso   1.00
H810   H     0.67160   0.95466   0.22686   0.00000  Uiso   1.00
C811   C     0.08670   0.16705   0.75037   0.00000  Uiso   1.00
C812   C     0.24664   0.16628   0.74956   0.00000  Uiso   1.00
C813   C     0.09401   0.19519   0.52209   0.00000  Uiso   1.00
C814   C     0.24127   0.14241   0.97790   0.00000  Uiso   1.00
C815   C     0.02193   0.13496   0.77615   0.00000  Uiso   1.00
C816   C     0.31140   0.19842   0.72376   0.00000  Uiso   1.00
C817   C     0.31238   0.13199   0.77289   0.00000  Uiso   1.00
C818   C     0.02096   0.20136   0.72700   0.00000  Uiso   1.00
C819   C     0.29080   0.16538   0.74865   0.00000  Uiso   1.00
C820   C     0.04253   0.16798   0.75125   0.00000  Uiso   1.00
C821   C     0.18555   0.02404   0.78369   0.00000  Uiso   1.00
C822   C     0.14779   0.30930   0.71631   0.00000  Uiso   1.00
C823   C     0.14770   0.02392   0.71636   0.00000  Uiso   1.00
C824   C     0.18563   0.30941   0.78364   0.00000  Uiso   1.00
C825   C     0.16621   0.16642   0.66356   0.00000  Uiso   1.00
C826   C     0.16719   0.16692   0.83644   0.00000  Uiso   1.00
C827   C     0.20560   0.15716   0.90631   0.00000  Uiso   1.00
C828   C     0.12850   0.17770   0.59361   0.00000  Uiso   1.00
C829   C     0.16851   0.16792   0.88404   0.00000  Uiso   1.00
C830   C     0.16515   0.16562   0.61598   0.00000  Uiso   1.00
C831   C     0.13266   0.18141   0.90667   0.00000  Uiso   1.00
C832   C     0.20108   0.15224   0.59341   0.00000  Uiso   1.00
C833   C     0.13209   0.18186   0.95291   0.00000  Uiso   1.00
C834   C     0.20220   0.15332   0.54716   0.00000  Uiso   1.00
C835   C     0.16812   0.16855   0.97664   0.00000  Uiso   1.00
C836   C     0.16655   0.16764   0.52345   0.00000  Uiso   1.00
C837   C     0.20545   0.15579   0.95346   0.00000  Uiso   1.00
C838   C     0.12920   0.18031   0.54659   0.00000  Uiso   1.00
C839   C     0.09562   0.19487   0.97543   0.00000  Uiso   1.00
C840   C     0.23872   0.14041   0.52471   0.00000  Uiso   1.00
H841   H     0.10510   0.19129   0.88801   0.00000  Uiso   1.00
H842   H     0.22834   0.14153   0.61214   0.00000  Uiso   1.00
H843   H     0.06805   0.20474   0.95678   0.00000  Uiso   1.00
H844   H     0.26522   0.12824   0.54374   0.00000  Uiso   1.00
H845   H     0.20062   0.04223   0.81065   0.00000  Uiso   1.00
H846   H     0.13272   0.29110   0.68934   0.00000  Uiso   1.00
H847   H     0.13245   0.04202   0.68949   0.00000  Uiso   1.00
H848   H     0.20088   0.29132   0.81050   0.00000  Uiso   1.00
N849   N     0.16667   0.28573   0.75000   0.00000  Uiso   1.00
N850   N     0.16667   0.04760   0.75000   0.00000  Uiso   1.00
O851   O     0.10559   0.20487   0.75000   0.00000  Uiso   1.00
O852   O     0.22774   0.12846   0.75001   0.00000  Uiso   1.00
O853   O     0.22774   0.20487   0.75001   0.00000  Uiso   1.00
O854   O     0.10559   0.12846   0.75000   0.00000  Uiso   1.00
O855   O     0.16666   0.20489   0.68393   0.00000  Uiso   1.00
O856   O     0.16667   0.12844   0.81608   0.00000  Uiso   1.00
O857   O     0.16667   0.20489   0.81608   0.00000  Uiso   1.00
O858   O     0.16666   0.12844   0.68393   0.00000  Uiso   1.00
Zn859  Zn    0.16667   0.21771   0.75000   0.00000  Uiso   1.00
Zn860  Zn    0.16667   0.11563   0.75000   0.00000  Uiso   1.00
O861   O     0.24126   0.14702   0.88166   0.00000  Uiso   1.00
C862   C     0.26217   0.18782   0.87276   0.00000  Uiso   1.00
H863   H     0.26778   0.20798   0.90387   0.00000  Uiso   1.00
H864   H     0.24474   0.20871   0.84815   0.00000  Uiso   1.00
H865   H     0.29304   0.17951   0.85781   0.00000  Uiso   1.00
O866   O     0.09277   0.18793   0.61810   0.00000  Uiso   1.00
C867   C     0.07096   0.14736   0.62532   0.00000  Uiso   1.00
H868   H     0.08859   0.12420   0.64772   0.00000  Uiso   1.00
H869   H     0.06357   0.12971   0.59319   0.00000  Uiso   1.00
H870   H     0.04093   0.15570   0.64212   0.00000  Uiso   1.00
O871   O     0.05697   0.20716   0.54320   0.00000  Uiso   1.00
C872   C     0.05359   0.25480   0.54471   0.00000  Uiso   1.00
H873   H     0.05052   0.26910   0.51046   0.00000  Uiso   1.00
H874   H     0.08053   0.27011   0.56248   0.00000  Uiso   1.00
H875   H     0.02499   0.26432   0.56378   0.00000  Uiso   1.00
O876   O     0.27695   0.12711   0.95560   0.00000  Uiso   1.00
C877   C     0.31255   0.15013   0.97115   0.00000  Uiso   1.00
H878   H     0.32504   0.13393   0.50186   0.00000  Uiso   1.00
H879   H     0.30643   0.18693   0.97728   0.00000  Uiso   1.00
H880   H     0.00384   0.14742   0.94501   0.00000  Uiso   1.00
O881   O     0.04405   0.10509   0.80295   0.00000  Uiso   1.00
C882   C     0.04156   0.12037   0.84788   0.00000  Uiso   1.00
H883   H     0.04775   0.15729   0.85124   0.00000  Uiso   1.00
H884   H     0.06557   0.10215   0.86768   0.00000  Uiso   1.00
H885   H     0.01065   0.11252   0.86261   0.00000  Uiso   1.00
O886   O     0.28928   0.22834   0.69703   0.00000  Uiso   1.00
C887   C     0.29161   0.21305   0.65208   0.00000  Uiso   1.00
H888   H     0.26753   0.23129   0.63239   0.00000  Uiso   1.00
H889   H     0.28539   0.17614   0.64875   0.00000  Uiso   1.00
H890   H     0.32246   0.22090   0.63721   0.00000  Uiso   1.00
O891   O     0.29128   0.09939   0.79689   0.00000  Uiso   1.00
C892   C     0.29551   0.05736   0.77419   0.00000  Uiso   1.00
H893   H     0.28252   0.05905   0.73965   0.00000  Uiso   1.00
H894   H     0.27769   0.03165   0.79286   0.00000  Uiso   1.00
H895   H     0.32846   0.04536   0.77288   0.00000  Uiso   1.00
O896   O     0.04207   0.23389   0.70291   0.00000  Uiso   1.00
C897   C     0.03788   0.27598   0.72551   0.00000  Uiso   1.00
H898   H     0.05566   0.30164   0.70672   0.00000  Uiso   1.00
H899   H     0.05094   0.27439   0.76002   0.00000  Uiso   1.00
H900   H     0.00493   0.28799   0.72686   0.00000  Uiso   1.00
C901   C     0.42003   0.16705   0.75037   0.00000  Uiso   1.00
C902   C     0.57997   0.16628   0.74956   0.00000  Uiso   1.00
C903   C     0.42734   0.19519   0.52209   0.00000  Uiso   1.00
C904   C     0.57461   0.14241   0.97790   0.00000  Uiso   1.00
C905   C     0.35526   0.13496   0.77615   0.00000  Uiso   1.00
C906   C     0.64474   0.19842   0.72376   0.00000  Uiso   1.00
C907   C     0.64571   0.13199   0.77289   0.00000  Uiso   1.00
C908   C     0.35429   0.20136   0.72700   0.00000  Uiso   1.00
C909   C     0.62413   0.16538   0.74865   0.00000  Uiso   1.00
C910   C     0.37587   0.16798   0.75125   0.00000  Uiso   1.00
C911   C     0.51888   0.02404   0.78369   0.00000  Uiso   1.00
C912   C     0.48112   0.30930   0.71631   0.00000  Uiso   1.00
C913   C     0.48104   0.02392   0.71636   0.00000  Uiso   1.00
C914   C     0.51897   0.30941   0.78364   0.00000  Uiso   1.00
C915   C     0.49955   0.16642   0.66356   0.00000  Uiso   1.00
C916   C     0.50053   0.16692   0.83644   0.00000  Uiso   1.00
C917   C     0.53894   0.15716   0.90631   0.00000  Uiso   1.00
C918   C     0.46183   0.17770   0.59361   0.00000  Uiso   1.00
C919   C     0.50185   0.16792   0.88404   0.00000  Uiso   1.00
C920   C     0.49849   0.16562   0.61598   0.00000  Uiso   1.00
C921   C     0.46599   0.18141   0.90667   0.00000  Uiso   1.00
C922   C     0.53442   0.15224   0.59341   0.00000  Uiso   1.00
C923   C     0.46542   0.18186   0.95291   0.00000  Uiso   1.00
C924   C     0.53553   0.15332   0.54716   0.00000  Uiso   1.00
C925   C     0.50146   0.16855   0.97664   0.00000  Uiso   1.00
C926   C     0.49988   0.16764   0.52345   0.00000  Uiso   1.00
C927   C     0.53879   0.15579   0.95346   0.00000  Uiso   1.00
C928   C     0.46253   0.18031   0.54659   0.00000  Uiso   1.00
C929   C     0.42895   0.19487   0.97543   0.00000  Uiso   1.00
C930   C     0.57205   0.14041   0.52471   0.00000  Uiso   1.00
H931   H     0.43843   0.19129   0.88801   0.00000  Uiso   1.00
H932   H     0.56167   0.14153   0.61214   0.00000  Uiso   1.00
H933   H     0.40138   0.20474   0.95678   0.00000  Uiso   1.00
H934   H     0.59855   0.12824   0.54374   0.00000  Uiso   1.00
H935   H     0.53395   0.04223   0.81065   0.00000  Uiso   1.00
H936   H     0.46606   0.29110   0.68934   0.00000  Uiso   1.00
H937   H     0.46579   0.04202   0.68949   0.00000  Uiso   1.00
H938   H     0.53422   0.29132   0.81050   0.00000  Uiso   1.00
N939   N     0.50000   0.28573   0.75000   0.00000  Uiso   1.00
N940   N     0.50000   0.04760   0.75000   0.00000  Uiso   1.00
O941   O     0.43892   0.20487   0.75000   0.00000  Uiso   1.00
O942   O     0.56108   0.12846   0.75001   0.00000  Uiso   1.00
O943   O     0.56108   0.20487   0.75001   0.00000  Uiso   1.00
O944   O     0.43892   0.12846   0.75000   0.00000  Uiso   1.00
O945   O     0.49999   0.20489   0.68393   0.00000  Uiso   1.00
O946   O     0.50001   0.12844   0.81608   0.00000  Uiso   1.00
O947   O     0.50001   0.20489   0.81608   0.00000  Uiso   1.00
O948   O     0.49999   0.12844   0.68393   0.00000  Uiso   1.00
Zn949  Zn    0.50000   0.21771   0.75000   0.00000  Uiso   1.00
Zn950  Zn    0.50000   0.11563   0.75000   0.00000  Uiso   1.00
O951   O     0.57460   0.14702   0.88166   0.00000  Uiso   1.00
C952   C     0.59550   0.18782   0.87276   0.00000  Uiso   1.00
H953   H     0.60112   0.20798   0.90387   0.00000  Uiso   1.00
H954   H     0.57808   0.20871   0.84815   0.00000  Uiso   1.00
H955   H     0.62637   0.17951   0.85781   0.00000  Uiso   1.00
O956   O     0.42610   0.18793   0.61810   0.00000  Uiso   1.00
C957   C     0.40429   0.14736   0.62532   0.00000  Uiso   1.00
H958   H     0.42193   0.12420   0.64772   0.00000  Uiso   1.00
H959   H     0.39691   0.12971   0.59319   0.00000  Uiso   1.00
H960   H     0.37427   0.15570   0.64212   0.00000  Uiso   1.00
O961   O     0.39030   0.20716   0.54320   0.00000  Uiso   1.00
C962   C     0.38692   0.25480   0.54471   0.00000  Uiso   1.00
H963   H     0.38386   0.26910   0.51046   0.00000  Uiso   1.00
H964   H     0.41386   0.27011   0.56248   0.00000  Uiso   1.00
H965   H     0.35832   0.26432   0.56378   0.00000  Uiso   1.00
O966   O     0.61029   0.12711   0.95560   0.00000  Uiso   1.00
C967   C     0.64588   0.15013   0.97115   0.00000  Uiso   1.00
H968   H     0.65838   0.13393   0.50186   0.00000  Uiso   1.00
H969   H     0.63977   0.18693   0.97728   0.00000  Uiso   1.00
H970   H     0.33717   0.14742   0.94501   0.00000  Uiso   1.00
O971   O     0.37738   0.10509   0.80295   0.00000  Uiso   1.00
C972   C     0.37489   0.12037   0.84788   0.00000  Uiso   1.00
H973   H     0.38108   0.15729   0.85124   0.00000  Uiso   1.00
H974   H     0.39891   0.10215   0.86768   0.00000  Uiso   1.00
H975   H     0.34398   0.11252   0.86261   0.00000  Uiso   1.00
O976   O     0.62261   0.22834   0.69703   0.00000  Uiso   1.00
C977   C     0.62495   0.21305   0.65208   0.00000  Uiso   1.00
H978   H     0.60086   0.23129   0.63239   0.00000  Uiso   1.00
H979   H     0.61873   0.17614   0.64875   0.00000  Uiso   1.00
H980   H     0.65579   0.22090   0.63721   0.00000  Uiso   1.00
O981   O     0.62462   0.09939   0.79689   0.00000  Uiso   1.00
C982   C     0.62884   0.05736   0.77419   0.00000  Uiso   1.00
H983   H     0.61585   0.05905   0.73965   0.00000  Uiso   1.00
H984   H     0.61103   0.03165   0.79286   0.00000  Uiso   1.00
H985   H     0.66180   0.04536   0.77288   0.00000  Uiso   1.00
O986   O     0.37540   0.23389   0.70291   0.00000  Uiso   1.00
C987   C     0.37122   0.27598   0.72551   0.00000  Uiso   1.00
H988   H     0.38899   0.30164   0.70672   0.00000  Uiso   1.00
H989   H     0.38427   0.27439   0.76002   0.00000  Uiso   1.00
H990   H     0.33827   0.28799   0.72686   0.00000  Uiso   1.00
C991   C     0.75336   0.16705   0.75037   0.00000  Uiso   1.00
C992   C     0.91330   0.16628   0.74956   0.00000  Uiso   1.00
C993   C     0.76067   0.19519   0.52209   0.00000  Uiso   1.00
C994   C     0.90794   0.14241   0.97790   0.00000  Uiso   1.00
C995   C     0.68860   0.13496   0.77615   0.00000  Uiso   1.00
C996   C     0.97807   0.19842   0.72376   0.00000  Uiso   1.00
C997   C     0.97905   0.13199   0.77289   0.00000  Uiso   1.00
C998   C     0.68763   0.20136   0.72700   0.00000  Uiso   1.00
C999   C     0.95747   0.16538   0.74865   0.00000  Uiso   1.00
C1000  C     0.70920   0.16798   0.75125   0.00000  Uiso   1.00
C1001  C     0.85222   0.02404   0.78369   0.00000  Uiso   1.00
C1002  C     0.81445   0.30930   0.71631   0.00000  Uiso   1.00
C1003  C     0.81437   0.02392   0.71636   0.00000  Uiso   1.00
C1004  C     0.85230   0.30941   0.78364   0.00000  Uiso   1.00
C1005  C     0.83288   0.16642   0.66356   0.00000  Uiso   1.00
C1006  C     0.83386   0.16692   0.83644   0.00000  Uiso   1.00
C1007  C     0.87227   0.15716   0.90631   0.00000  Uiso   1.00
C1008  C     0.79517   0.17770   0.59361   0.00000  Uiso   1.00
C1009  C     0.83518   0.16792   0.88404   0.00000  Uiso   1.00
C1010  C     0.83182   0.16562   0.61598   0.00000  Uiso   1.00
C1011  C     0.79932   0.18141   0.90667   0.00000  Uiso   1.00
C1012  C     0.86775   0.15224   0.59341   0.00000  Uiso   1.00
C1013  C     0.79875   0.18186   0.95291   0.00000  Uiso   1.00
C1014  C     0.86887   0.15332   0.54716   0.00000  Uiso   1.00
C1015  C     0.83479   0.16855   0.97664   0.00000  Uiso   1.00
C1016  C     0.83321   0.16764   0.52345   0.00000  Uiso   1.00
C1017  C     0.87212   0.15579   0.95346   0.00000  Uiso   1.00
C1018  C     0.79587   0.18031   0.54659   0.00000  Uiso   1.00
C1019  C     0.76228   0.19487   0.97543   0.00000  Uiso   1.00
C1020  C     0.90538   0.14041   0.52471   0.00000  Uiso   1.00
H1021  H     0.77177   0.19129   0.88801   0.00000  Uiso   1.00
H1022  H     0.89501   0.14153   0.61214   0.00000  Uiso   1.00
H1023  H     0.73471   0.20474   0.95678   0.00000  Uiso   1.00
H1024  H     0.93188   0.12824   0.54374   0.00000  Uiso   1.00
H1025  H     0.86729   0.04223   0.81065   0.00000  Uiso   1.00
H1026  H     0.79939   0.29110   0.68934   0.00000  Uiso   1.00
H1027  H     0.79912   0.04202   0.68949   0.00000  Uiso   1.00
H1028  H     0.86755   0.29132   0.81050   0.00000  Uiso   1.00
N1029  N     0.83333   0.28573   0.75000   0.00000  Uiso   1.00
N1030  N     0.83333   0.04760   0.75000   0.00000  Uiso   1.00
O1031  O     0.77226   0.20487   0.75000   0.00000  Uiso   1.00
O1032  O     0.89441   0.12846   0.75001   0.00000  Uiso   1.00
O1033  O     0.89441   0.20487   0.75001   0.00000  Uiso   1.00
O1034  O     0.77226   0.12846   0.75000   0.00000  Uiso   1.00
O1035  O     0.83333   0.20489   0.68393   0.00000  Uiso   1.00
O1036  O     0.83334   0.12844   0.81608   0.00000  Uiso   1.00
O1037  O     0.83334   0.20489   0.81608   0.00000  Uiso   1.00
O1038  O     0.83333   0.12844   0.68393   0.00000  Uiso   1.00
Zn1039 Zn    0.83333   0.21771   0.75000   0.00000  Uiso   1.00
Zn1040 Zn    0.83333   0.11563   0.75000   0.00000  Uiso   1.00
O1041  O     0.90793   0.14702   0.88166   0.00000  Uiso   1.00
C1042  C     0.92884   0.18782   0.87276   0.00000  Uiso   1.00
H1043  H     0.93445   0.20798   0.90387   0.00000  Uiso   1.00
H1044  H     0.91141   0.20871   0.84815   0.00000  Uiso   1.00
H1045  H     0.95970   0.17951   0.85781   0.00000  Uiso   1.00
O1046  O     0.75944   0.18793   0.61810   0.00000  Uiso   1.00
C1047  C     0.73762   0.14736   0.62532   0.00000  Uiso   1.00
H1048  H     0.75526   0.12420   0.64772   0.00000  Uiso   1.00
H1049  H     0.73024   0.12971   0.59319   0.00000  Uiso   1.00
H1050  H     0.70760   0.15570   0.64212   0.00000  Uiso   1.00
O1051  O     0.72364   0.20716   0.54320   0.00000  Uiso   1.00
C1052  C     0.72026   0.25480   0.54471   0.00000  Uiso   1.00
H1053  H     0.71719   0.26910   0.51046   0.00000  Uiso   1.00
H1054  H     0.74720   0.27011   0.56248   0.00000  Uiso   1.00
H1055  H     0.69165   0.26432   0.56378   0.00000  Uiso   1.00
O1056  O     0.94362   0.12711   0.95560   0.00000  Uiso   1.00
C1057  C     0.97922   0.15013   0.97115   0.00000  Uiso   1.00
H1058  H     0.99171   0.13393   0.50186   0.00000  Uiso   1.00
H1059  H     0.97310   0.18693   0.97728   0.00000  Uiso   1.00
H1060  H     0.67051   0.14742   0.94501   0.00000  Uiso   1.00
O1061  O     0.71071   0.10509   0.80295   0.00000  Uiso   1.00
C1062  C     0.70822   0.12037   0.84788   0.00000  Uiso   1.00
H1063  H     0.71442   0.15729   0.85124   0.00000  Uiso   1.00
H1064  H     0.73224   0.10215   0.86768   0.00000  Uiso   1.00
H1065  H     0.67732   0.11252   0.86261   0.00000  Uiso   1.00
O1066  O     0.95594   0.22834   0.69703   0.00000  Uiso   1.00
C1067  C     0.95828   0.21305   0.65208   0.00000  Uiso   1.00
H1068  H     0.93419   0.23129   0.63239   0.00000  Uiso   1.00
H1069  H     0.95206   0.17614   0.64875   0.00000  Uiso   1.00
H1070  H     0.98913   0.22090   0.63721   0.00000  Uiso   1.00
O1071  O     0.95795   0.09939   0.79689   0.00000  Uiso   1.00
C1072  C     0.96217   0.05736   0.77419   0.00000  Uiso   1.00
H1073  H     0.94919   0.05905   0.73965   0.00000  Uiso   1.00
H1074  H     0.94436   0.03165   0.79286   0.00000  Uiso   1.00
H1075  H     0.99513   0.04536   0.77288   0.00000  Uiso   1.00
O1076  O     0.70874   0.23389   0.70291   0.00000  Uiso   1.00
C1077  C     0.70455   0.27598   0.72551   0.00000  Uiso   1.00
H1078  H     0.72233   0.30164   0.70672   0.00000  Uiso   1.00
H1079  H     0.71761   0.27439   0.76002   0.00000  Uiso   1.00
H1080  H     0.67160   0.28799   0.72686   0.00000  Uiso   1.00
C1081  C     0.08670   0.50039   0.75037   0.00000  Uiso   1.00
C1082  C     0.24664   0.49962   0.74956   0.00000  Uiso   1.00
C1083  C     0.09401   0.52853   0.52209   0.00000  Uiso   1.00
C1084  C     0.24127   0.47574   0.97790   0.00000  Uiso   1.00
C1085  C     0.02193   0.46829   0.77615   0.00000  Uiso   1.00
C1086  C     0.31140   0.53175   0.72376   0.00000  Uiso   1.00
C1087  C     0.31238   0.46532   0.77289   0.00000  Uiso   1.00
C1088  C     0.02096   0.53470   0.72700   0.00000  Uiso   1.00
C1089  C     0.29080   0.49871   0.74865   0.00000  Uiso   1.00
C1090  C     0.04253   0.50131   0.75125   0.00000  Uiso   1.00
C1091  C     0.18555   0.35737   0.78369   0.00000  Uiso   1.00
C1092  C     0.14779   0.64263   0.71631   0.00000  Uiso   1.00
C1093  C     0.14770   0.35725   0.71636   0.00000  Uiso   1.00
C1094  C     0.18563   0.64275   0.78364   0.00000  Uiso   1.00
C1095  C     0.16621   0.49975   0.66356   0.00000  Uiso   1.00
C1096  C     0.16719   0.50026   0.83644   0.00000  Uiso   1.00
C1097  C     0.20560   0.49050   0.90631   0.00000  Uiso   1.00
C1098  C     0.12850   0.51103   0.59361   0.00000  Uiso   1.00
C1099  C     0.16851   0.50125   0.88404   0.00000  Uiso   1.00
C1100  C     0.16515   0.49895   0.61598   0.00000  Uiso   1.00
C1101  C     0.13266   0.51475   0.90667   0.00000  Uiso   1.00
C1102  C     0.20108   0.48557   0.59341   0.00000  Uiso   1.00
C1103  C     0.13209   0.51520   0.95291   0.00000  Uiso   1.00
C1104  C     0.20220   0.48665   0.54716   0.00000  Uiso   1.00
C1105  C     0.16812   0.50188   0.97664   0.00000  Uiso   1.00
C1106  C     0.16655   0.50097   0.52345   0.00000  Uiso   1.00
C1107  C     0.20545   0.48912   0.95346   0.00000  Uiso   1.00
C1108  C     0.12920   0.51364   0.54659   0.00000  Uiso   1.00
C1109  C     0.09562   0.52821   0.97543   0.00000  Uiso   1.00
C1110  C     0.23872   0.47374   0.52471   0.00000  Uiso   1.00
H1111  H     0.10510   0.52462   0.88801   0.00000  Uiso   1.00
H1112  H     0.22834   0.47487   0.61214   0.00000  Uiso   1.00
H1113  H     0.06805   0.53807   0.95678   0.00000  Uiso   1.00
H1114  H     0.26522   0.46157   0.54374   0.00000  Uiso   1.00
H1115  H     0.20062   0.37557   0.81065   0.00000  Uiso   1.00
H1116  H     0.13272   0.62443   0.68934   0.00000  Uiso   1.00
H1117  H     0.13245   0.37535   0.68949   0.00000  Uiso   1.00
H1118  H     0.20088   0.62465   0.81050   0.00000  Uiso   1.00
N1119  N     0.16667   0.61907   0.75000   0.00000  Uiso   1.00
N1120  N     0.16667   0.38093   0.75000   0.00000  Uiso   1.00
O1121  O     0.10559   0.53821   0.75000   0.00000  Uiso   1.00
O1122  O     0.22774   0.46179   0.75001   0.00000  Uiso   1.00
O1123  O     0.22774   0.53821   0.75001   0.00000  Uiso   1.00
O1124  O     0.10559   0.46179   0.75000   0.00000  Uiso   1.00
O1125  O     0.16666   0.53823   0.68393   0.00000  Uiso   1.00
O1126  O     0.16667   0.46177   0.81608   0.00000  Uiso   1.00
O1127  O     0.16667   0.53823   0.81608   0.00000  Uiso   1.00
O1128  O     0.16666   0.46177   0.68393   0.00000  Uiso   1.00
Zn1129 Zn    0.16667   0.55104   0.75000   0.00000  Uiso   1.00
Zn1130 Zn    0.16667   0.44896   0.75000   0.00000  Uiso   1.00
O1131  O     0.24126   0.48035   0.88166   0.00000  Uiso   1.00
C1132  C     0.26217   0.52116   0.87276   0.00000  Uiso   1.00
H1133  H     0.26778   0.54131   0.90387   0.00000  Uiso   1.00
H1134  H     0.24474   0.54205   0.84815   0.00000  Uiso   1.00
H1135  H     0.29304   0.51284   0.85781   0.00000  Uiso   1.00
O1136  O     0.09277   0.52127   0.61810   0.00000  Uiso   1.00
C1137  C     0.07096   0.48070   0.62532   0.00000  Uiso   1.00
H1138  H     0.08859   0.45753   0.64772   0.00000  Uiso   1.00
H1139  H     0.06357   0.46305   0.59319   0.00000  Uiso   1.00
H1140  H     0.04093   0.48903   0.64212   0.00000  Uiso   1.00
O1141  O     0.05697   0.54049   0.54320   0.00000  Uiso   1.00
C1142  C     0.05359   0.58814   0.54471   0.00000  Uiso   1.00
H1143  H     0.05052   0.60243   0.51046   0.00000  Uiso   1.00
H1144  H     0.08053   0.60345   0.56248   0.00000  Uiso   1.00
H1145  H     0.02499   0.59766   0.56378   0.00000  Uiso   1.00
O1146  O     0.27695   0.46045   0.95560   0.00000  Uiso   1.00
C1147  C     0.31255   0.48347   0.97115   0.00000  Uiso   1.00
H1148  H     0.32504   0.46727   0.50186   0.00000  Uiso   1.00
H1149  H     0.30643   0.52027   0.97728   0.00000  Uiso   1.00
H1150  H     0.00384   0.48075   0.94501   0.00000  Uiso   1.00
O1151  O     0.04405   0.43842   0.80295   0.00000  Uiso   1.00
C1152  C     0.04156   0.45371   0.84788   0.00000  Uiso   1.00
H1153  H     0.04775   0.49062   0.85124   0.00000  Uiso   1.00
H1154  H     0.06557   0.43548   0.86768   0.00000  Uiso   1.00
H1155  H     0.01065   0.44585   0.86261   0.00000  Uiso   1.00
O1156  O     0.28928   0.56167   0.69703   0.00000  Uiso   1.00
C1157  C     0.29161   0.54639   0.65208   0.00000  Uiso   1.00
H1158  H     0.26753   0.56462   0.63239   0.00000  Uiso   1.00
H1159  H     0.28539   0.50948   0.64875   0.00000  Uiso   1.00
H1160  H     0.32246   0.55423   0.63721   0.00000  Uiso   1.00
O1161  O     0.29128   0.43272   0.79689   0.00000  Uiso   1.00
C1162  C     0.29551   0.39069   0.77419   0.00000  Uiso   1.00
H1163  H     0.28252   0.39238   0.73965   0.00000  Uiso   1.00
H1164  H     0.27769   0.36498   0.79286   0.00000  Uiso   1.00
H1165  H     0.32846   0.37869   0.77288   0.00000  Uiso   1.00
O1166  O     0.04207   0.56723   0.70291   0.00000  Uiso   1.00
C1167  C     0.03788   0.60932   0.72551   0.00000  Uiso   1.00
H1168  H     0.05566   0.63498   0.70672   0.00000  Uiso   1.00
H1169  H     0.05094   0.60772   0.76002   0.00000  Uiso   1.00
H1170  H     0.00493   0.62132   0.72686   0.00000  Uiso   1.00
C1171  C     0.42003   0.50039   0.75037   0.00000  Uiso   1.00
C1172  C     0.57997   0.49962   0.74956   0.00000  Uiso   1.00
C1173  C     0.42734   0.52853   0.52209   0.00000  Uiso   1.00
C1174  C     0.57461   0.47574   0.97790   0.00000  Uiso   1.00
C1175  C     0.35526   0.46829   0.77615   0.00000  Uiso   1.00
C1176  C     0.64474   0.53175   0.72376   0.00000  Uiso   1.00
C1177  C     0.64571   0.46532   0.77289   0.00000  Uiso   1.00
C1178  C     0.35429   0.53470   0.72700   0.00000  Uiso   1.00
C1179  C     0.62413   0.49871   0.74865   0.00000  Uiso   1.00
C1180  C     0.37587   0.50131   0.75125   0.00000  Uiso   1.00
C1181  C     0.51888   0.35737   0.78369   0.00000  Uiso   1.00
C1182  C     0.48112   0.64263   0.71631   0.00000  Uiso   1.00
C1183  C     0.48104   0.35725   0.71636   0.00000  Uiso   1.00
C1184  C     0.51897   0.64275   0.78364   0.00000  Uiso   1.00
C1185  C     0.49955   0.49975   0.66356   0.00000  Uiso   1.00
C1186  C     0.50053   0.50026   0.83644   0.00000  Uiso   1.00
C1187  C     0.53894   0.49050   0.90631   0.00000  Uiso   1.00
C1188  C     0.46183   0.51103   0.59361   0.00000  Uiso   1.00
C1189  C     0.50185   0.50125   0.88404   0.00000  Uiso   1.00
C1190  C     0.49849   0.49895   0.61598   0.00000  Uiso   1.00
C1191  C     0.46599   0.51475   0.90667   0.00000  Uiso   1.00
C1192  C     0.53442   0.48557   0.59341   0.00000  Uiso   1.00
C1193  C     0.46542   0.51520   0.95291   0.00000  Uiso   1.00
C1194  C     0.53553   0.48665   0.54716   0.00000  Uiso   1.00
C1195  C     0.50146   0.50188   0.97664   0.00000  Uiso   1.00
C1196  C     0.49988   0.50097   0.52345   0.00000  Uiso   1.00
C1197  C     0.53879   0.48912   0.95346   0.00000  Uiso   1.00
C1198  C     0.46253   0.51364   0.54659   0.00000  Uiso   1.00
C1199  C     0.42895   0.52821   0.97543   0.00000  Uiso   1.00
C1200  C     0.57205   0.47374   0.52471   0.00000  Uiso   1.00
H1201  H     0.43843   0.52462   0.88801   0.00000  Uiso   1.00
H1202  H     0.56167   0.47487   0.61214   0.00000  Uiso   1.00
H1203  H     0.40138   0.53807   0.95678   0.00000  Uiso   1.00
H1204  H     0.59855   0.46157   0.54374   0.00000  Uiso   1.00
H1205  H     0.53395   0.37557   0.81065   0.00000  Uiso   1.00
H1206  H     0.46606   0.62443   0.68934   0.00000  Uiso   1.00
H1207  H     0.46579   0.37535   0.68949   0.00000  Uiso   1.00
H1208  H     0.53422   0.62465   0.81050   0.00000  Uiso   1.00
N1209  N     0.50000   0.61907   0.75000   0.00000  Uiso   1.00
N1210  N     0.50000   0.38093   0.75000   0.00000  Uiso   1.00
O1211  O     0.43892   0.53821   0.75000   0.00000  Uiso   1.00
O1212  O     0.56108   0.46179   0.75001   0.00000  Uiso   1.00
O1213  O     0.56108   0.53821   0.75001   0.00000  Uiso   1.00
O1214  O     0.43892   0.46179   0.75000   0.00000  Uiso   1.00
O1215  O     0.49999   0.53823   0.68393   0.00000  Uiso   1.00
O1216  O     0.50001   0.46177   0.81608   0.00000  Uiso   1.00
O1217  O     0.50001   0.53823   0.81608   0.00000  Uiso   1.00
O1218  O     0.49999   0.46177   0.68393   0.00000  Uiso   1.00
Zn1219 Zn    0.50000   0.55104   0.75000   0.00000  Uiso   1.00
Zn1220 Zn    0.50000   0.44896   0.75000   0.00000  Uiso   1.00
O1221  O     0.57460   0.48035   0.88166   0.00000  Uiso   1.00
C1222  C     0.59550   0.52116   0.87276   0.00000  Uiso   1.00
H1223  H     0.60112   0.54131   0.90387   0.00000  Uiso   1.00
H1224  H     0.57808   0.54205   0.84815   0.00000  Uiso   1.00
H1225  H     0.62637   0.51284   0.85781   0.00000  Uiso   1.00
O1226  O     0.42610   0.52127   0.61810   0.00000  Uiso   1.00
C1227  C     0.40429   0.48070   0.62532   0.00000  Uiso   1.00
H1228  H     0.42193   0.45753   0.64772   0.00000  Uiso   1.00
H1229  H     0.39691   0.46305   0.59319   0.00000  Uiso   1.00
H1230  H     0.37427   0.48903   0.64212   0.00000  Uiso   1.00
O1231  O     0.39030   0.54049   0.54320   0.00000  Uiso   1.00
C1232  C     0.38692   0.58814   0.54471   0.00000  Uiso   1.00
H1233  H     0.38386   0.60243   0.51046   0.00000  Uiso   1.00
H1234  H     0.41386   0.60345   0.56248   0.00000  Uiso   1.00
H1235  H     0.35832   0.59766   0.56378   0.00000  Uiso   1.00
O1236  O     0.61029   0.46045   0.95560   0.00000  Uiso   1.00
C1237  C     0.64588   0.48347   0.97115   0.00000  Uiso   1.00
H1238  H     0.65838   0.46727   0.50186   0.00000  Uiso   1.00
H1239  H     0.63977   0.52027   0.97728   0.00000  Uiso   1.00
H1240  H     0.33717   0.48075   0.94501   0.00000  Uiso   1.00
O1241  O     0.37738   0.43842   0.80295   0.00000  Uiso   1.00
C1242  C     0.37489   0.45371   0.84788   0.00000  Uiso   1.00
H1243  H     0.38108   0.49062   0.85124   0.00000  Uiso   1.00
H1244  H     0.39891   0.43548   0.86768   0.00000  Uiso   1.00
H1245  H     0.34398   0.44585   0.86261   0.00000  Uiso   1.00
O1246  O     0.62261   0.56167   0.69703   0.00000  Uiso   1.00
C1247  C     0.62495   0.54639   0.65208   0.00000  Uiso   1.00
H1248  H     0.60086   0.56462   0.63239   0.00000  Uiso   1.00
H1249  H     0.61873   0.50948   0.64875   0.00000  Uiso   1.00
H1250  H     0.65579   0.55423   0.63721   0.00000  Uiso   1.00
O1251  O     0.62462   0.43272   0.79689   0.00000  Uiso   1.00
C1252  C     0.62884   0.39069   0.77419   0.00000  Uiso   1.00
H1253  H     0.61585   0.39238   0.73965   0.00000  Uiso   1.00
H1254  H     0.61103   0.36498   0.79286   0.00000  Uiso   1.00
H1255  H     0.66180   0.37869   0.77288   0.00000  Uiso   1.00
O1256  O     0.37540   0.56723   0.70291   0.00000  Uiso   1.00
C1257  C     0.37122   0.60932   0.72551   0.00000  Uiso   1.00
H1258  H     0.38899   0.63498   0.70672   0.00000  Uiso   1.00
H1259  H     0.38427   0.60772   0.76002   0.00000  Uiso   1.00
H1260  H     0.33827   0.62132   0.72686   0.00000  Uiso   1.00
C1261  C     0.75336   0.50039   0.75037   0.00000  Uiso   1.00
C1262  C     0.91330   0.49962   0.74956   0.00000  Uiso   1.00
C1263  C     0.76067   0.52853   0.52209   0.00000  Uiso   1.00
C1264  C     0.90794   0.47574   0.97790   0.00000  Uiso   1.00
C1265  C     0.68860   0.46829   0.77615   0.00000  Uiso   1.00
C1266  C     0.97807   0.53175   0.72376   0.00000  Uiso   1.00
C1267  C     0.97905   0.46532   0.77289   0.00000  Uiso   1.00
C1268  C     0.68763   0.53470   0.72700   0.00000  Uiso   1.00
C1269  C     0.95747   0.49871   0.74865   0.00000  Uiso   1.00
C1270  C     0.70920   0.50131   0.75125   0.00000  Uiso   1.00
C1271  C     0.85222   0.35737   0.78369   0.00000  Uiso   1.00
C1272  C     0.81445   0.64263   0.71631   0.00000  Uiso   1.00
C1273  C     0.81437   0.35725   0.71636   0.00000  Uiso   1.00
C1274  C     0.85230   0.64275   0.78364   0.00000  Uiso   1.00
C1275  C     0.83288   0.49975   0.66356   0.00000  Uiso   1.00
C1276  C     0.83386   0.50026   0.83644   0.00000  Uiso   1.00
C1277  C     0.87227   0.49050   0.90631   0.00000  Uiso   1.00
C1278  C     0.79517   0.51103   0.59361   0.00000  Uiso   1.00
C1279  C     0.83518   0.50125   0.88404   0.00000  Uiso   1.00
C1280  C     0.83182   0.49895   0.61598   0.00000  Uiso   1.00
C1281  C     0.79932   0.51475   0.90667   0.00000  Uiso   1.00
C1282  C     0.86775   0.48557   0.59341   0.00000  Uiso   1.00
C1283  C     0.79875   0.51520   0.95291   0.00000  Uiso   1.00
C1284  C     0.86887   0.48665   0.54716   0.00000  Uiso   1.00
C1285  C     0.83479   0.50188   0.97664   0.00000  Uiso   1.00
C1286  C     0.83321   0.50097   0.52345   0.00000  Uiso   1.00
C1287  C     0.87212   0.48912   0.95346   0.00000  Uiso   1.00
C1288  C     0.79587   0.51364   0.54659   0.00000  Uiso   1.00
C1289  C     0.76228   0.52821   0.97543   0.00000  Uiso   1.00
C1290  C     0.90538   0.47374   0.52471   0.00000  Uiso   1.00
H1291  H     0.77177   0.52462   0.88801   0.00000  Uiso   1.00
H1292  H     0.89501   0.47487   0.61214   0.00000  Uiso   1.00
H1293  H     0.73471   0.53807   0.95678   0.00000  Uiso   1.00
H1294  H     0.93188   0.46157   0.54374   0.00000  Uiso   1.00
H1295  H     0.86729   0.37557   0.81065   0.00000  Uiso   1.00
H1296  H     0.79939   0.62443   0.68934   0.00000  Uiso   1.00
H1297  H     0.79912   0.37535   0.68949   0.00000  Uiso   1.00
H1298  H     0.86755   0.62465   0.81050   0.00000  Uiso   1.00
N1299  N     0.83333   0.61907   0.75000   0.00000  Uiso   1.00
N1300  N     0.83333   0.38093   0.75000   0.00000  Uiso   1.00
O1301  O     0.77226   0.53821   0.75000   0.00000  Uiso   1.00
O1302  O     0.89441   0.46179   0.75001   0.00000  Uiso   1.00
O1303  O     0.89441   0.53821   0.75001   0.00000  Uiso   1.00
O1304  O     0.77226   0.46179   0.75000   0.00000  Uiso   1.00
O1305  O     0.83333   0.53823   0.68393   0.00000  Uiso   1.00
O1306  O     0.83334   0.46177   0.81608   0.00000  Uiso   1.00
O1307  O     0.83334   0.53823   0.81608   0.00000  Uiso   1.00
O1308  O     0.83333   0.46177   0.68393   0.00000  Uiso   1.00
Zn1309 Zn    0.83333   0.55104   0.75000   0.00000  Uiso   1.00
Zn1310 Zn    0.83333   0.44896   0.75000   0.00000  Uiso   1.00
O1311  O     0.90793   0.48035   0.88166   0.00000  Uiso   1.00
C1312  C     0.92884   0.52116   0.87276   0.00000  Uiso   1.00
H1313  H     0.93445   0.54131   0.90387   0.00000  Uiso   1.00
H1314  H     0.91141   0.54205   0.84815   0.00000  Uiso   1.00
H1315  H     0.95970   0.51284   0.85781   0.00000  Uiso   1.00
O1316  O     0.75944   0.52127   0.61810   0.00000  Uiso   1.00
C1317  C     0.73762   0.48070   0.62532   0.00000  Uiso   1.00
H1318  H     0.75526   0.45753   0.64772   0.00000  Uiso   1.00
H1319  H     0.73024   0.46305   0.59319   0.00000  Uiso   1.00
H1320  H     0.70760   0.48903   0.64212   0.00000  Uiso   1.00
O1321  O     0.72364   0.54049   0.54320   0.00000  Uiso   1.00
C1322  C     0.72026   0.58814   0.54471   0.00000  Uiso   1.00
H1323  H     0.71719   0.60243   0.51046   0.00000  Uiso   1.00
H1324  H     0.74720   0.60345   0.56248   0.00000  Uiso   1.00
H1325  H     0.69165   0.59766   0.56378   0.00000  Uiso   1.00
O1326  O     0.94362   0.46045   0.95560   0.00000  Uiso   1.00
C1327  C     0.97922   0.48347   0.97115   0.00000  Uiso   1.00
H1328  H     0.99171   0.46727   0.50186   0.00000  Uiso   1.00
H1329  H     0.97310   0.52027   0.97728   0.00000  Uiso   1.00
H1330  H     0.67051   0.48075   0.94501   0.00000  Uiso   1.00
O1331  O     0.71071   0.43842   0.80295   0.00000  Uiso   1.00
C1332  C     0.70822   0.45371   0.84788   0.00000  Uiso   1.00
H1333  H     0.71442   0.49062   0.85124   0.00000  Uiso   1.00
H1334  H     0.73224   0.43548   0.86768   0.00000  Uiso   1.00
H1335  H     0.67732   0.44585   0.86261   0.00000  Uiso   1.00
O1336  O     0.95594   0.56167   0.69703   0.00000  Uiso   1.00
C1337  C     0.95828   0.54639   0.65208   0.00000  Uiso   1.00
H1338  H     0.93419   0.56462   0.63239   0.00000  Uiso   1.00
H1339  H     0.95206   0.50948   0.64875   0.00000  Uiso   1.00
H1340  H     0.98913   0.55423   0.63721   0.00000  Uiso   1.00
O1341  O     0.95795   0.43272   0.79689   0.00000  Uiso   1.00
C1342  C     0.96217   0.39069   0.77419   0.00000  Uiso   1.00
H1343  H     0.94919   0.39238   0.73965   0.00000  Uiso   1.00
H1344  H     0.94436   0.36498   0.79286   0.00000  Uiso   1.00
H1345  H     0.99513   0.37869   0.77288   0.00000  Uiso   1.00
O1346  O     0.70874   0.56723   0.70291   0.00000  Uiso   1.00
C1347  C     0.70455   0.60932   0.72551   0.00000  Uiso   1.00
H1348  H     0.72233   0.63498   0.70672   0.00000  Uiso   1.00
H1349  H     0.71761   0.60772   0.76002   0.00000  Uiso   1.00
H1350  H     0.67160   0.62132   0.72686   0.00000  Uiso   1.00
C1351  C     0.08670   0.83372   0.75037   0.00000  Uiso   1.00
C1352  C     0.24664   0.83295   0.74956   0.00000  Uiso   1.00
C1353  C     0.09401   0.86186   0.52209   0.00000  Uiso   1.00
C1354  C     0.24127   0.80907   0.97790   0.00000  Uiso   1.00
C1355  C     0.02193   0.80163   0.77615   0.00000  Uiso   1.00
C1356  C     0.31140   0.86508   0.72376   0.00000  Uiso   1.00
C1357  C     0.31238   0.79865   0.77289   0.00000  Uiso   1.00
C1358  C     0.02096   0.86803   0.72700   0.00000  Uiso   1.00
C1359  C     0.29080   0.83204   0.74865   0.00000  Uiso   1.00
C1360  C     0.04253   0.83464   0.75125   0.00000  Uiso   1.00
C1361  C     0.18555   0.69070   0.78369   0.00000  Uiso   1.00
C1362  C     0.14779   0.97596   0.71631   0.00000  Uiso   1.00
C1363  C     0.14770   0.69059   0.71636   0.00000  Uiso   1.00
C1364  C     0.18563   0.97608   0.78364   0.00000  Uiso   1.00
C1365  C     0.16621   0.83309   0.66356   0.00000  Uiso   1.00
C1366  C     0.16719   0.83359   0.83644   0.00000  Uiso   1.00
C1367  C     0.20560   0.82383   0.90631   0.00000  Uiso   1.00
C1368  C     0.12850   0.84436   0.59361   0.00000  Uiso   1.00
C1369  C     0.16851   0.83459   0.88404   0.00000  Uiso   1.00
C1370  C     0.16515   0.83229   0.61598   0.00000  Uiso   1.00
C1371  C     0.13266   0.84808   0.90667   0.00000  Uiso   1.00
C1372  C     0.20108   0.81890   0.59341   0.00000  Uiso   1.00
C1373  C     0.13209   0.84853   0.95291   0.00000  Uiso   1.00
C1374  C     0.20220   0.81998   0.54716   0.00000  Uiso   1.00
C1375  C     0.16812   0.83522   0.97664   0.00000  Uiso   1.00
C1376  C     0.16655   0.83430   0.52345   0.00000  Uiso   1.00
C1377  C     0.20545   0.82245   0.95346   0.00000  Uiso   1.00
C1378  C     0.12920   0.84698   0.54659   0.00000  Uiso   1.00
C1379  C     0.09562   0.86154   0.97543   0.00000  Uiso   1.00
C1380  C     0.23872   0.80708   0.52471   0.00000  Uiso   1.00
H1381  H     0.10510   0.85795   0.88801   0.00000  Uiso   1.00
H1382  H     0.22834   0.80820   0.61214   0.00000  Uiso   1.00
H1383  H     0.06805   0.87141   0.95678   0.00000  Uiso   1.00
H1384  H     0.26522   0.79491   0.54374   0.00000  Uiso   1.00
H1385  H     0.20062   0.70890   0.81065   0.00000  Uiso   1.00
H1386  H     0.13272   0.95777   0.68934   0.00000  Uiso   1.00
H1387  H     0.13245   0.70868   0.68949   0.00000  Uiso   1.00
H1388  H     0.20088   0.95798   0.81050   0.00000  Uiso   1.00
N1389  N     0.16667   0.95240   0.75000   0.00000  Uiso   1.00
N1390  N     0.16667   0.71427   0.75000   0.00000  Uiso   1.00
O1391  O     0.10559   0.87154   0.75000   0.00000  Uiso   1.00
O1392  O     0.22774   0.79513   0.75001   0.00000  Uiso   1.00
O1393  O     0.22774   0.87154   0.75001   0.00000  Uiso   1.00
O1394  O     0.10559   0.79513   0.75000   0.00000  Uiso   1.00
O1395  O     0.16666   0.87156   0.68393   0.00000  Uiso   1.00
O1396  O     0.16667   0.79511   0.81608   0.00000  Uiso   1.00
O1397  O     0.16667   0.87156   0.81608   0.00000  Uiso   1.00
O1398  O     0.16666   0.79511   0.68393   0.00000  Uiso   1.00
Zn1399 Zn    0.16667   0.88437   0.75000   0.00000  Uiso   1.00
Zn1400 Zn    0.16667   0.78229   0.75000   0.00000  Uiso   1.00
O1401  O     0.24126   0.81369   0.88166   0.00000  Uiso   1.00
C1402  C     0.26217   0.85449   0.87276   0.00000  Uiso   1.00
H1403  H     0.26778   0.87465   0.90387   0.00000  Uiso   1.00
H1404  H     0.24474   0.87538   0.84815   0.00000  Uiso   1.00
H1405  H     0.29304   0.84618   0.85781   0.00000  Uiso   1.00
O1406  O     0.09277   0.85460   0.61810   0.00000  Uiso   1.00
C1407  C     0.07096   0.81403   0.62532   0.00000  Uiso   1.00
H1408  H     0.08859   0.79087   0.64772   0.00000  Uiso   1.00
H1409  H     0.06357   0.79638   0.59319   0.00000  Uiso   1.00
H1410  H     0.04093   0.82237   0.64212   0.00000  Uiso   1.00
O1411  O     0.05697   0.87383   0.54320   0.00000  Uiso   1.00
C1412  C     0.05359   0.92147   0.54471   0.00000  Uiso   1.00
H1413  H     0.05052   0.93577   0.51046   0.00000  Uiso   1.00
H1414  H     0.08053   0.93678   0.56248   0.00000  Uiso   1.00
H1415  H     0.02499   0.93099   0.56378   0.00000  Uiso   1.00
O1416  O     0.27695   0.79378   0.95560   0.00000  Uiso   1.00
C1417  C     0.31255   0.81680   0.97115   0.00000  Uiso   1.00
H1418  H     0.32504   0.80060   0.50186   0.00000  Uiso   1.00
H1419  H     0.30643   0.85360   0.97728   0.00000  Uiso   1.00
H1420  H     0.00384   0.81409   0.94501   0.00000  Uiso   1.00
O1421  O     0.04405   0.77175   0.80295   0.00000  Uiso   1.00
C1422  C     0.04156   0.78704   0.84788   0.00000  Uiso   1.00
H1423  H     0.04775   0.82396   0.85124   0.00000  Uiso   1.00
H1424  H     0.06557   0.76881   0.86768   0.00000  Uiso   1.00
H1425  H     0.01065   0.77919   0.86261   0.00000  Uiso   1.00
O1426  O     0.28928   0.89501   0.69703   0.00000  Uiso   1.00
C1427  C     0.29161   0.87972   0.65208   0.00000  Uiso   1.00
H1428  H     0.26753   0.89796   0.63239   0.00000  Uiso   1.00
H1429  H     0.28539   0.84281   0.64875   0.00000  Uiso   1.00
H1430  H     0.32246   0.88757   0.63721   0.00000  Uiso   1.00
O1431  O     0.29128   0.76606   0.79689   0.00000  Uiso   1.00
C1432  C     0.29551   0.72403   0.77419   0.00000  Uiso   1.00
H1433  H     0.28252   0.72571   0.73965   0.00000  Uiso   1.00
H1434  H     0.27769   0.69831   0.79286   0.00000  Uiso   1.00
H1435  H     0.32846   0.71203   0.77288   0.00000  Uiso   1.00
O1436  O     0.04207   0.90056   0.70291   0.00000  Uiso   1.00
C1437  C     0.03788   0.94265   0.72551   0.00000  Uiso   1.00
H1438  H     0.05566   0.96831   0.70672   0.00000  Uiso   1.00
H1439  H     0.05094   0.94105   0.76002   0.00000  Uiso   1.00
H1440  H     0.00493   0.95466   0.72686   0.00000  Uiso   1.00
C1441  C     0.42003   0.83372   0.75037   0.00000  Uiso   1.00
C1442  C     0.57997   0.83295   0.74956   0.00000  Uiso   1.00
C1443  C     0.42734   0.86186   0.52209   0.00000  Uiso   1.00
C1444  C     0.57461   0.80907   0.97790   0.00000  Uiso   1.00
C1445  C     0.35526   0.80163   0.77615   0.00000  Uiso   1.00
C1446  C     0.64474   0.86508   0.72376   0.00000  Uiso   1.00
C1447  C     0.64571   0.79865   0.77289   0.00000  Uiso   1.00
C1448  C     0.35429   0.86803   0.72700   0.00000  Uiso   1.00
C1449  C     0.62413   0.83204   0.74865   0.00000  Uiso   1.00
C1450  C     0.37587   0.83464   0.75125   0.00000  Uiso   1.00
C1451  C     0.51888   0.69070   0.78369   0.00000  Uiso   1.00
C1452  C     0.48112   0.97596   0.71631   0.00000  Uiso   1.00
C1453  C     0.48104   0.69059   0.71636   0.00000  Uiso   1.00
C1454  C     0.51897   0.97608   0.78364   0.00000  Uiso   1.00
C1455  C     0.49955   0.83309   0.66356   0.00000  Uiso   1.00
C1456  C     0.50053   0.83359   0.83644   0.00000  Uiso   1.00
C1457  C     0.53894   0.82383   0.90631   0.00000  Uiso   1.00
C1458  C     0.46183   0.84436   0.59361   0.00000  Uiso   1.00
C1459  C     0.50185   0.83459   0.88404   0.00000  Uiso   1.00
C1460  C     0.49849   0.83229   0.61598   0.00000  Uiso   1.00
C1461  C     0.46599   0.84808   0.90667   0.00000  Uiso   1.00
C1462  C     0.53442   0.81890   0.59341   0.00000  Uiso   1.00
C1463  C     0.46542   0.84853   0.95291   0.00000  Uiso   1.00
C1464  C     0.53553   0.81998   0.54716   0.00000  Uiso   1.00
C1465  C     0.50146   0.83522   0.97664   0.00000  Uiso   1.00
C1466  C     0.49988   0.83430   0.52345   0.00000  Uiso   1.00
C1467  C     0.53879   0.82245   0.95346   0.00000  Uiso   1.00
C1468  C     0.46253   0.84698   0.54659   0.00000  Uiso   1.00
C1469  C     0.42895   0.86154   0.97543   0.00000  Uiso   1.00
C1470  C     0.57205   0.80708   0.52471   0.00000  Uiso   1.00
H1471  H     0.43843   0.85795   0.88801   0.00000  Uiso   1.00
H1472  H     0.56167   0.80820   0.61214   0.00000  Uiso   1.00
H1473  H     0.40138   0.87141   0.95678   0.00000  Uiso   1.00
H1474  H     0.59855   0.79491   0.54374   0.00000  Uiso   1.00
H1475  H     0.53395   0.70890   0.81065   0.00000  Uiso   1.00
H1476  H     0.46606   0.95777   0.68934   0.00000  Uiso   1.00
H1477  H     0.46579   0.70868   0.68949   0.00000  Uiso   1.00
H1478  H     0.53422   0.95798   0.81050   0.00000  Uiso   1.00
N1479  N     0.50000   0.95240   0.75000   0.00000  Uiso   1.00
N1480  N     0.50000   0.71427   0.75000   0.00000  Uiso   1.00
O1481  O     0.43892   0.87154   0.75000   0.00000  Uiso   1.00
O1482  O     0.56108   0.79513   0.75001   0.00000  Uiso   1.00
O1483  O     0.56108   0.87154   0.75001   0.00000  Uiso   1.00
O1484  O     0.43892   0.79513   0.75000   0.00000  Uiso   1.00
O1485  O     0.49999   0.87156   0.68393   0.00000  Uiso   1.00
O1486  O     0.50001   0.79511   0.81608   0.00000  Uiso   1.00
O1487  O     0.50001   0.87156   0.81608   0.00000  Uiso   1.00
O1488  O     0.49999   0.79511   0.68393   0.00000  Uiso   1.00
Zn1489 Zn    0.50000   0.88437   0.75000   0.00000  Uiso   1.00
Zn1490 Zn    0.50000   0.78229   0.75000   0.00000  Uiso   1.00
O1491  O     0.57460   0.81369   0.88166   0.00000  Uiso   1.00
C1492  C     0.59550   0.85449   0.87276   0.00000  Uiso   1.00
H1493  H     0.60112   0.87465   0.90387   0.00000  Uiso   1.00
H1494  H     0.57808   0.87538   0.84815   0.00000  Uiso   1.00
H1495  H     0.62637   0.84618   0.85781   0.00000  Uiso   1.00
O1496  O     0.42610   0.85460   0.61810   0.00000  Uiso   1.00
C1497  C     0.40429   0.81403   0.62532   0.00000  Uiso   1.00
H1498  H     0.42193   0.79087   0.64772   0.00000  Uiso   1.00
H1499  H     0.39691   0.79638   0.59319   0.00000  Uiso   1.00
H1500  H     0.37427   0.82237   0.64212   0.00000  Uiso   1.00
O1501  O     0.39030   0.87383   0.54320   0.00000  Uiso   1.00
C1502  C     0.38692   0.92147   0.54471   0.00000  Uiso   1.00
H1503  H     0.38386   0.93577   0.51046   0.00000  Uiso   1.00
H1504  H     0.41386   0.93678   0.56248   0.00000  Uiso   1.00
H1505  H     0.35832   0.93099   0.56378   0.00000  Uiso   1.00
O1506  O     0.61029   0.79378   0.95560   0.00000  Uiso   1.00
C1507  C     0.64588   0.81680   0.97115   0.00000  Uiso   1.00
H1508  H     0.65838   0.80060   0.50186   0.00000  Uiso   1.00
H1509  H     0.63977   0.85360   0.97728   0.00000  Uiso   1.00
H1510  H     0.33717   0.81409   0.94501   0.00000  Uiso   1.00
O1511  O     0.37738   0.77175   0.80295   0.00000  Uiso   1.00
C1512  C     0.37489   0.78704   0.84788   0.00000  Uiso   1.00
H1513  H     0.38108   0.82396   0.85124   0.00000  Uiso   1.00
H1514  H     0.39891   0.76881   0.86768   0.00000  Uiso   1.00
H1515  H     0.34398   0.77919   0.86261   0.00000  Uiso   1.00
O1516  O     0.62261   0.89501   0.69703   0.00000  Uiso   1.00
C1517  C     0.62495   0.87972   0.65208   0.00000  Uiso   1.00
H1518  H     0.60086   0.89796   0.63239   0.00000  Uiso   1.00
H1519  H     0.61873   0.84281   0.64875   0.00000  Uiso   1.00
H1520  H     0.65579   0.88757   0.63721   0.00000  Uiso   1.00
O1521  O     0.62462   0.76606   0.79689   0.00000  Uiso   1.00
C1522  C     0.62884   0.72403   0.77419   0.00000  Uiso   1.00
H1523  H     0.61585   0.72571   0.73965   0.00000  Uiso   1.00
H1524  H     0.61103   0.69831   0.79286   0.00000  Uiso   1.00
H1525  H     0.66180   0.71203   0.77288   0.00000  Uiso   1.00
O1526  O     0.37540   0.90056   0.70291   0.00000  Uiso   1.00
C1527  C     0.37122   0.94265   0.72551   0.00000  Uiso   1.00
H1528  H     0.38899   0.96831   0.70672   0.00000  Uiso   1.00
H1529  H     0.38427   0.94105   0.76002   0.00000  Uiso   1.00
H1530  H     0.33827   0.95466   0.72686   0.00000  Uiso   1.00
C1531  C     0.75336   0.83372   0.75037   0.00000  Uiso   1.00
C1532  C     0.91330   0.83295   0.74956   0.00000  Uiso   1.00
C1533  C     0.76067   0.86186   0.52209   0.00000  Uiso   1.00
C1534  C     0.90794   0.80907   0.97790   0.00000  Uiso   1.00
C1535  C     0.68860   0.80163   0.77615   0.00000  Uiso   1.00
C1536  C     0.97807   0.86508   0.72376   0.00000  Uiso   1.00
C1537  C     0.97905   0.79865   0.77289   0.00000  Uiso   1.00
C1538  C     0.68763   0.86803   0.72700   0.00000  Uiso   1.00
C1539  C     0.95747   0.83204   0.74865   0.00000  Uiso   1.00
C1540  C     0.70920   0.83464   0.75125   0.00000  Uiso   1.00
C1541  C     0.85222   0.69070   0.78369   0.00000  Uiso   1.00
C1542  C     0.81445   0.97596   0.71631   0.00000  Uiso   1.00
C1543  C     0.81437   0.69059   0.71636   0.00000  Uiso   1.00
C1544  C     0.85230   0.97608   0.78364   0.00000  Uiso   1.00
C1545  C     0.83288   0.83309   0.66356   0.00000  Uiso   1.00
C1546  C     0.83386   0.83359   0.83644   0.00000  Uiso   1.00
C1547  C     0.87227   0.82383   0.90631   0.00000  Uiso   1.00
C1548  C     0.79517   0.84436   0.59361   0.00000  Uiso   1.00
C1549  C     0.83518   0.83459   0.88404   0.00000  Uiso   1.00
C1550  C     0.83182   0.83229   0.61598   0.00000  Uiso   1.00
C1551  C     0.79932   0.84808   0.90667   0.00000  Uiso   1.00
C1552  C     0.86775   0.81890   0.59341   0.00000  Uiso   1.00
C1553  C     0.79875   0.84853   0.95291   0.00000  Uiso   1.00
C1554  C     0.86887   0.81998   0.54716   0.00000  Uiso   1.00
C1555  C     0.83479   0.83522   0.97664   0.00000  Uiso   1.00
C1556  C     0.83321   0.83430   0.52345   0.00000  Uiso   1.00
C1557  C     0.87212   0.82245   0.95346   0.00000  Uiso   1.00
C1558  C     0.79587   0.84698   0.54659   0.00000  Uiso   1.00
C1559  C     0.76228   0.86154   0.97543   0.00000  Uiso   1.00
C1560  C     0.90538   0.80708   0.52471   0.00000  Uiso   1.00
H1561  H     0.77177   0.85795   0.88801   0.00000  Uiso   1.00
H1562  H     0.89501   0.80820   0.61214   0.00000  Uiso   1.00
H1563  H     0.73471   0.87141   0.95678   0.00000  Uiso   1.00
H1564  H     0.93188   0.79491   0.54374   0.00000  Uiso   1.00
H1565  H     0.86729   0.70890   0.81065   0.00000  Uiso   1.00
H1566  H     0.79939   0.95777   0.68934   0.00000  Uiso   1.00
H1567  H     0.79912   0.70868   0.68949   0.00000  Uiso   1.00
H1568  H     0.86755   0.95798   0.81050   0.00000  Uiso   1.00
N1569  N     0.83333   0.95240   0.75000   0.00000  Uiso   1.00
N1570  N     0.83333   0.71427   0.75000   0.00000  Uiso   1.00
O1571  O     0.77226   0.87154   0.75000   0.00000  Uiso   1.00
O1572  O     0.89441   0.79513   0.75001   0.00000  Uiso   1.00
O1573  O     0.89441   0.87154   0.75001   0.00000  Uiso   1.00
O1574  O     0.77226   0.79513   0.75000   0.00000  Uiso   1.00
O1575  O     0.83333   0.87156   0.68393   0.00000  Uiso   1.00
O1576  O     0.83334   0.79511   0.81608   0.00000  Uiso   1.00
O1577  O     0.83334   0.87156   0.81608   0.00000  Uiso   1.00
O1578  O     0.83333   0.79511   0.68393   0.00000  Uiso   1.00
Zn1579 Zn    0.83333   0.88437   0.75000   0.00000  Uiso   1.00
Zn1580 Zn    0.83333   0.78229   0.75000   0.00000  Uiso   1.00
O1581  O     0.90793   0.81369   0.88166   0.00000  Uiso   1.00
C1582  C     0.92884   0.85449   0.87276   0.00000  Uiso   1.00
H1583  H     0.93445   0.87465   0.90387   0.00000  Uiso   1.00
H1584  H     0.91141   0.87538   0.84815   0.00000  Uiso   1.00
H1585  H     0.95970   0.84618   0.85781   0.00000  Uiso   1.00
O1586  O     0.75944   0.85460   0.61810   0.00000  Uiso   1.00
C1587  C     0.73762   0.81403   0.62532   0.00000  Uiso   1.00
H1588  H     0.75526   0.79087   0.64772   0.00000  Uiso   1.00
H1589  H     0.73024   0.79638   0.59319   0.00000  Uiso   1.00
H1590  H     0.70760   0.82237   0.64212   0.00000  Uiso   1.00
O1591  O     0.72364   0.87383   0.54320   0.00000  Uiso   1.00
C1592  C     0.72026   0.92147   0.54471   0.00000  Uiso   1.00
H1593  H     0.71719   0.93577   0.51046   0.00000  Uiso   1.00
H1594  H     0.74720   0.93678   0.56248   0.00000  Uiso   1.00
H1595  H     0.69165   0.93099   0.56378   0.00000  Uiso   1.00
O1596  O     0.94362   0.79378   0.95560   0.00000  Uiso   1.00
C1597  C     0.97922   0.81680   0.97115   0.00000  Uiso   1.00
H1598  H     0.99171   0.80060   0.50186   0.00000  Uiso   1.00
H1599  H     0.97310   0.85360   0.97728   0.00000  Uiso   1.00
H1600  H     0.67051   0.81409   0.94501   0.00000  Uiso   1.00
O1601  O     0.71071   0.77175   0.80295   0.00000  Uiso   1.00
C1602  C     0.70822   0.78704   0.84788   0.00000  Uiso   1.00
H1603  H     0.71442   0.82396   0.85124   0.00000  Uiso   1.00
H1604  H     0.73224   0.76881   0.86768   0.00000  Uiso   1.00
H1605  H     0.67732   0.77919   0.86261   0.00000  Uiso   1.00
O1606  O     0.95594   0.89501   0.69703   0.00000  Uiso   1.00
C1607  C     0.95828   0.87972   0.65208   0.00000  Uiso   1.00
H1608  H     0.93419   0.89796   0.63239   0.00000  Uiso   1.00
H1609  H     0.95206   0.84281   0.64875   0.00000  Uiso   1.00
H1610  H     0.98913   0.88757   0.63721   0.00000  Uiso   1.00
O1611  O     0.95795   0.76606   0.79689   0.00000  Uiso   1.00
C1612  C     0.96217   0.72403   0.77419   0.00000  Uiso   1.00
H1613  H     0.94919   0.72571   0.73965   0.00000  Uiso   1.00
H1614  H     0.94436   0.69831   0.79286   0.00000  Uiso   1.00
H1615  H     0.99513   0.71203   0.77288   0.00000  Uiso   1.00
O1616  O     0.70874   0.90056   0.70291   0.00000  Uiso   1.00
C1617  C     0.70455   0.94265   0.72551   0.00000  Uiso   1.00
H1618  H     0.72233   0.96831   0.70672   0.00000  Uiso   1.00
H1619  H     0.71761   0.94105   0.76002   0.00000  Uiso   1.00
H1620  H     0.67160   0.95466   0.72686   0.00000  Uiso   1.00
loop_
_geom_bond_atom_site_label_1
_geom_bond_atom_site_label_2
_geom_bond_distance
_geom_bond_site_symmetry_2
_ccdc_geom_bond_type
C1     O44     1.284   .     A
C1     O41     1.277   .     A
C1     C10     1.417   .     S
C2     O43     1.284   .     A
C2     O42     1.277   .     A
C2     C9      1.417   .     S
C3     C28     1.415   .     A
C3     O61     1.383   .     S
C3     C839    1.391   1_554 S
C4     C27     1.417   .     A
C4     O66     1.390   .     S
C4     C840    1.399   .     S
C5     O71     1.386   .     S
C5     C10     1.401   .     A
C5     C187    1.384   1_455 S
C6     C9      1.402   .     A
C6     O76     1.386   .     S
C6     C98     1.384   .     S
C7     C9      1.404   .     A
C7     O81     1.386   .     S
C7     C95     1.384   .     S
C8     O86     1.386   .     S
C8     C10     1.405   .     A
C8     C186    1.384   1_455 S
C11    N40     1.366   .     A
C11    H35     1.082   .     S
C11    C554    1.416   1_545 S
C12    H36     1.082   .     S
C12    N39     1.366   .     A
C12    C283    1.416   .     S
C13    N40     1.366   .     A
C13    H37     1.082   .     S
C13    C552    1.416   1_545 S
C14    N39     1.366   .     A
C14    H38     1.082   .     S
C14    C281    1.416   .     S
C15    O48     1.280   .     A
C15    C20     1.419   .     S
C15    O45     1.283   .     A
C16    O47     1.280   .     A
C16    O46     1.283   .     A
C16    C19     1.419   .     S
C17    O51     1.386   .     S
C17    C27     1.406   .     A
C17    C19     1.399   .     A
C18    C20     1.398   .     A
C18    O56     1.385   .     S
C18    C28     1.404   .     A
C19    C21     1.384   .     A
C20    C22     1.384   .     A
C21    H31     1.085   .     S
C21    C23     1.378   .     A
C22    H32     1.085   .     S
C22    C24     1.379   .     A
C23    C29     1.395   .     A
C23    C25     1.411   .     A
C24    C26     1.410   .     A
C24    C30     1.394   .     A
C25    C27     1.425   .     A
C25    C836    1.396   .     S
C26    C28     1.425   .     A
C26    C835    1.396   1_554 S
C29    H33     1.085   .     S
C29    C813    1.391   .     S
C30    H34     1.083   .     S
C30    C814    1.399   1_554 S
N39    Zn49    2.008   .     S
N40    Zn50    2.008   .     S
O41    Zn49    2.001   .     S
O42    Zn50    2.001   .     S
O43    Zn49    1.991   .     S
O44    Zn50    1.991   .     S
O45    Zn49    2.002   .     S
O46    Zn50    2.002   .     S
O47    Zn49    2.009   .     S
O48    Zn50    2.009   .     S
O51    C52     1.413   .     S
C52    H55     1.108   .     S
C52    H54     1.111   .     S
C52    H53     1.114   .     S
O56    C57     1.413   .     S
C57    H59     1.114   .     S
C57    H60     1.108   .     S
C57    H58     1.111   .     S
O61    C62     1.410   .     S
C62    H64     1.114   .     S
C62    H63     1.112   .     S
C62    H65     1.109   .     S
O66    C67     1.414   .     S
C67    H69     1.115   .     S
C67    H878    1.110   .     S
C67    H160    1.109   .     S
H68    C877    1.110   1_554 S
H70    C247    1.109   1_455 S
O71    C72     1.411   .     S
C72    H75     1.111   .     S
C72    H74     1.109   .     S
C72    H73     1.114   .     S
O76    C77     1.411   .     S
C77    H78     1.109   .     S
C77    H79     1.114   .     S
C77    H80     1.111   .     S
O81    C82     1.412   .     S
C82    H84     1.108   .     S
C82    H85     1.111   .     S
C82    H83     1.113   .     S
O86    C87     1.412   .     S
C87    H88     1.109   .     S
C87    H90     1.111   .     S
C87    H89     1.113   .     S
C91    O134    1.284   .     A
C91    O131    1.277   .     A
C91    C100    1.417   .     S
C92    O133    1.284   .     A
C92    O132    1.277   .     A
C92    C99     1.417   .     S
C93    C118    1.415   .     A
C93    O151    1.383   .     S
C93    C929    1.391   1_554 S
C94    C117    1.417   .     A
C94    O156    1.390   .     S
C94    C930    1.399   .     S
C95    O161    1.386   .     S
C95    C100    1.401   .     A
C96    C99     1.402   .     A
C96    O166    1.386   .     S
C96    C188    1.384   .     S
C97    C99     1.404   .     A
C97    O171    1.386   .     S
C97    C185    1.384   .     S
C98    O176    1.386   .     S
C98    C100    1.405   .     A
C101   N130    1.366   .     A
C101   H125    1.082   .     S
C101   C644    1.416   1_545 S
C102   H126    1.082   .     S
C102   N129    1.366   .     A
C102   C373    1.416   .     S
C103   N130    1.366   .     A
C103   H127    1.082   .     S
C103   C642    1.416   1_545 S
C104   N129    1.366   .     A
C104   H128    1.082   .     S
C104   C371    1.416   .     S
C105   O138    1.280   .     A
C105   C110    1.419   .     S
C105   O135    1.283   .     A
C106   O137    1.280   .     A
C106   O136    1.283   .     A
C106   C109    1.419   .     S
C107   O141    1.386   .     S
C107   C117    1.406   .     A
C107   C109    1.399   .     A
C108   C110    1.398   .     A
C108   O146    1.385   .     S
C108   C118    1.404   .     A
C109   C111    1.384   .     A
C110   C112    1.384   .     A
C111   H121    1.085   .     S
C111   C113    1.378   .     A
C112   H122    1.085   .     S
C112   C114    1.379   .     A
C113   C119    1.395   .     A
C113   C115    1.411   .     A
C114   C116    1.410   .     A
C114   C120    1.394   .     A
C115   C117    1.425   .     A
C115   C926    1.396   .     S
C116   C118    1.425   .     A
C116   C925    1.396   1_554 S
C119   H123    1.085   .     S
C119   C903    1.391   .     S
C120   H124    1.083   .     S
C120   C904    1.399   1_554 S
N129   Zn139   2.008   .     S
N130   Zn140   2.008   .     S
O131   Zn139   2.001   .     S
O132   Zn140   2.001   .     S
O133   Zn139   1.991   .     S
O134   Zn140   1.991   .     S
O135   Zn139   2.002   .     S
O136   Zn140   2.002   .     S
O137   Zn139   2.009   .     S
O138   Zn140   2.009   .     S
O141   C142    1.413   .     S
C142   H145    1.108   .     S
C142   H144    1.111   .     S
C142   H143    1.114   .     S
O146   C147    1.413   .     S
C147   H149    1.114   .     S
C147   H150    1.108   .     S
C147   H148    1.111   .     S
O151   C152    1.410   .     S
C152   H154    1.114   .     S
C152   H153    1.112   .     S
C152   H155    1.109   .     S
O156   C157    1.414   .     S
C157   H159    1.115   .     S
C157   H968    1.110   .     S
C157   H250    1.109   .     S
H158   C967    1.110   1_554 S
O161   C162    1.411   .     S
C162   H165    1.111   .     S
C162   H164    1.109   .     S
C162   H163    1.114   .     S
O166   C167    1.411   .     S
C167   H168    1.109   .     S
C167   H169    1.114   .     S
C167   H170    1.111   .     S
O171   C172    1.412   .     S
C172   H174    1.108   .     S
C172   H175    1.111   .     S
C172   H173    1.113   .     S
O176   C177    1.412   .     S
C177   H178    1.109   .     S
C177   H180    1.111   .     S
C177   H179    1.113   .     S
C181   O224    1.284   .     A
C181   O221    1.277   .     A
C181   C190    1.417   .     S
C182   O223    1.284   .     A
C182   O222    1.277   .     A
C182   C189    1.417   .     S
C183   C208    1.415   .     A
C183   O241    1.383   .     S
C183   C1019   1.391   1_554 S
C184   C207    1.417   .     A
C184   O246    1.390   .     S
C184   C1020   1.399   .     S
C185   O251    1.386   .     S
C185   C190    1.401   .     A
C186   C189    1.402   .     A
C186   O256    1.386   .     S
C186   C8      1.384   1_655 S
C187   C189    1.404   .     A
C187   O261    1.386   .     S
C187   C5      1.384   1_655 S
C188   O266    1.386   .     S
C188   C190    1.405   .     A
C191   N220    1.366   .     A
C191   H215    1.082   .     S
C191   C734    1.416   1_545 S
C192   H216    1.082   .     S
C192   N219    1.366   .     A
C192   C463    1.416   .     S
C193   N220    1.366   .     A
C193   H217    1.082   .     S
C193   C732    1.416   1_545 S
C194   N219    1.366   .     A
C194   H218    1.082   .     S
C194   C461    1.416   .     S
C195   O228    1.280   .     A
C195   C200    1.419   .     S
C195   O225    1.283   .     A
C196   O227    1.280   .     A
C196   O226    1.283   .     A
C196   C199    1.419   .     S
C197   O231    1.386   .     S
C197   C207    1.406   .     A
C197   C199    1.399   .     A
C198   C200    1.398   .     A
C198   O236    1.385   .     S
C198   C208    1.404   .     A
C199   C201    1.384   .     A
C200   C202    1.384   .     A
C201   H211    1.085   .     S
C201   C203    1.378   .     A
C202   H212    1.085   .     S
C202   C204    1.379   .     A
C203   C209    1.395   .     A
C203   C205    1.411   .     A
C204   C206    1.410   .     A
C204   C210    1.394   .     A
C205   C207    1.425   .     A
C205   C1016   1.396   .     S
C206   C208    1.425   .     A
C206   C1015   1.396   1_554 S
C209   H213    1.085   .     S
C209   C993    1.391   .     S
C210   H214    1.083   .     S
C210   C994    1.399   1_554 S
N219   Zn229   2.008   .     S
N220   Zn230   2.008   .     S
O221   Zn229   2.001   .     S
O222   Zn230   2.001   .     S
O223   Zn229   1.991   .     S
O224   Zn230   1.991   .     S
O225   Zn229   2.002   .     S
O226   Zn230   2.002   .     S
O227   Zn229   2.009   .     S
O228   Zn230   2.009   .     S
O231   C232    1.413   .     S
C232   H235    1.108   .     S
C232   H234    1.111   .     S
C232   H233    1.114   .     S
O236   C237    1.413   .     S
C237   H239    1.114   .     S
C237   H240    1.108   .     S
C237   H238    1.111   .     S
O241   C242    1.410   .     S
C242   H244    1.114   .     S
C242   H243    1.112   .     S
C242   H245    1.109   .     S
O246   C247    1.414   .     S
C247   H249    1.115   .     S
C247   H1058   1.110   .     S
C247   H70     1.109   1_655 S
H248   C1057   1.110   1_554 S
O251   C252    1.411   .     S
C252   H255    1.111   .     S
C252   H254    1.109   .     S
C252   H253    1.114   .     S
O256   C257    1.411   .     S
C257   H258    1.109   .     S
C257   H259    1.114   .     S
C257   H260    1.111   .     S
O261   C262    1.412   .     S
C262   H264    1.108   .     S
C262   H265    1.111   .     S
C262   H263    1.113   .     S
O266   C267    1.412   .     S
C267   H268    1.109   .     S
C267   H270    1.111   .     S
C267   H269    1.113   .     S
C271   O314    1.284   .     A
C271   O311    1.277   .     A
C271   C280    1.417   .     S
C272   O313    1.284   .     A
C272   O312    1.277   .     A
C272   C279    1.417   .     S
C273   C298    1.415   .     A
C273   O331    1.383   .     S
C273   C1109   1.391   1_554 S
C274   C297    1.417   .     A
C274   O336    1.390   .     S
C274   C1110   1.399   .     S
C275   O341    1.386   .     S
C275   C280    1.401   .     A
C275   C457    1.384   1_455 S
C276   C279    1.402   .     A
C276   O346    1.386   .     S
C276   C368    1.384   .     S
C277   C279    1.404   .     A
C277   O351    1.386   .     S
C277   C365    1.384   .     S
C278   O356    1.386   .     S
C278   C280    1.405   .     A
C278   C456    1.384   1_455 S
C281   N310    1.366   .     A
C281   H305    1.082   .     S
C282   H306    1.082   .     S
C282   N309    1.366   .     A
C282   C553    1.416   .     S
C283   N310    1.366   .     A
C283   H307    1.082   .     S
C284   N309    1.366   .     A
C284   H308    1.082   .     S
C284   C551    1.416   .     S
C285   O318    1.280   .     A
C285   C290    1.419   .     S
C285   O315    1.283   .     A
C286   O317    1.280   .     A
C286   O316    1.283   .     A
C286   C289    1.419   .     S
C287   O321    1.386   .     S
C287   C297    1.406   .     A
C287   C289    1.399   .     A
C288   C290    1.398   .     A
C288   O326    1.385   .     S
C288   C298    1.404   .     A
C289   C291    1.384   .     A
C290   C292    1.384   .     A
C291   H301    1.085   .     S
C291   C293    1.378   .     A
C292   H302    1.085   .     S
C292   C294    1.379   .     A
C293   C299    1.395   .     A
C293   C295    1.411   .     A
C294   C296    1.410   .     A
C294   C300    1.394   .     A
C295   C297    1.425   .     A
C295   C1106   1.396   .     S
C296   C298    1.425   .     A
C296   C1105   1.396   1_554 S
C299   H303    1.085   .     S
C299   C1083   1.391   .     S
C300   H304    1.083   .     S
C300   C1084   1.399   1_554 S
N309   Zn319   2.008   .     S
N310   Zn320   2.008   .     S
O311   Zn319   2.001   .     S
O312   Zn320   2.001   .     S
O313   Zn319   1.991   .     S
O314   Zn320   1.991   .     S
O315   Zn319   2.002   .     S
O316   Zn320   2.002   .     S
O317   Zn319   2.009   .     S
O318   Zn320   2.009   .     S
O321   C322    1.413   .     S
C322   H325    1.108   .     S
C322   H324    1.111   .     S
C322   H323    1.114   .     S
O326   C327    1.413   .     S
C327   H329    1.114   .     S
C327   H330    1.108   .     S
C327   H328    1.111   .     S
O331   C332    1.410   .     S
C332   H334    1.114   .     S
C332   H333    1.112   .     S
C332   H335    1.109   .     S
O336   C337    1.414   .     S
C337   H339    1.115   .     S
C337   H1148   1.110   .     S
C337   H430    1.109   .     S
H338   C1147   1.110   1_554 S
H340   C517    1.109   1_455 S
O341   C342    1.411   .     S
C342   H345    1.111   .     S
C342   H344    1.109   .     S
C342   H343    1.114   .     S
O346   C347    1.411   .     S
C347   H348    1.109   .     S
C347   H349    1.114   .     S
C347   H350    1.111   .     S
O351   C352    1.412   .     S
C352   H354    1.108   .     S
C352   H355    1.111   .     S
C352   H353    1.113   .     S
O356   C357    1.412   .     S
C357   H358    1.109   .     S
C357   H360    1.111   .     S
C357   H359    1.113   .     S
C361   O404    1.284   .     A
C361   O401    1.277   .     A
C361   C370    1.417   .     S
C362   O403    1.284   .     A
C362   O402    1.277   .     A
C362   C369    1.417   .     S
C363   C388    1.415   .     A
C363   O421    1.383   .     S
C363   C1199   1.391   1_554 S
C364   C387    1.417   .     A
C364   O426    1.390   .     S
C364   C1200   1.399   .     S
C365   O431    1.386   .     S
C365   C370    1.401   .     A
C366   C369    1.402   .     A
C366   O436    1.386   .     S
C366   C458    1.384   .     S
C367   C369    1.404   .     A
C367   O441    1.386   .     S
C367   C455    1.384   .     S
C368   O446    1.386   .     S
C368   C370    1.405   .     A
C371   N400    1.366   .     A
C371   H395    1.082   .     S
C372   H396    1.082   .     S
C372   N399    1.366   .     A
C372   C643    1.416   .     S
C373   N400    1.366   .     A
C373   H397    1.082   .     S
C374   N399    1.366   .     A
C374   H398    1.082   .     S
C374   C641    1.416   .     S
C375   O408    1.280   .     A
C375   C380    1.419   .     S
C375   O405    1.283   .     A
C376   O407    1.280   .     A
C376   O406    1.283   .     A
C376   C379    1.419   .     S
C377   O411    1.386   .     S
C377   C387    1.406   .     A
C377   C379    1.399   .     A
C378   C380    1.398   .     A
C378   O416    1.385   .     S
C378   C388    1.404   .     A
C379   C381    1.384   .     A
C380   C382    1.384   .     A
C381   H391    1.085   .     S
C381   C383    1.378   .     A
C382   H392    1.085   .     S
C382   C384    1.379   .     A
C383   C389    1.395   .     A
C383   C385    1.411   .     A
C384   C386    1.410   .     A
C384   C390    1.394   .     A
C385   C387    1.425   .     A
C385   C1196   1.396   .     S
C386   C388    1.425   .     A
C386   C1195   1.396   1_554 S
C389   H393    1.085   .     S
C389   C1173   1.391   .     S
C390   H394    1.083   .     S
C390   C1174   1.399   1_554 S
N399   Zn409   2.008   .     S
N400   Zn410   2.008   .     S
O401   Zn409   2.001   .     S
O402   Zn410   2.001   .     S
O403   Zn409   1.991   .     S
O404   Zn410   1.991   .     S
O405   Zn409   2.002   .     S
O406   Zn410   2.002   .     S
O407   Zn409   2.009   .     S
O408   Zn410   2.009   .     S
O411   C412    1.413   .     S
C412   H415    1.108   .     S
C412   H414    1.111   .     S
C412   H413    1.114   .     S
O416   C417    1.413   .     S
C417   H419    1.114   .     S
C417   H420    1.108   .     S
C417   H418    1.111   .     S
O421   C422    1.410   .     S
C422   H424    1.114   .     S
C422   H423    1.112   .     S
C422   H425    1.109   .     S
O426   C427    1.414   .     S
C427   H429    1.115   .     S
C427   H1238   1.110   .     S
C427   H520    1.109   .     S
H428   C1237   1.110   1_554 S
O431   C432    1.411   .     S
C432   H435    1.111   .     S
C432   H434    1.109   .     S
C432   H433    1.114   .     S
O436   C437    1.411   .     S
C437   H438    1.109   .     S
C437   H439    1.114   .     S
C437   H440    1.111   .     S
O441   C442    1.412   .     S
C442   H444    1.108   .     S
C442   H445    1.111   .     S
C442   H443    1.113   .     S
O446   C447    1.412   .     S
C447   H448    1.109   .     S
C447   H450    1.111   .     S
C447   H449    1.113   .     S
C451   O494    1.284   .     A
C451   O491    1.277   .     A
C451   C460    1.417   .     S
C452   O493    1.284   .     A
C452   O492    1.277   .     A
C452   C459    1.417   .     S
C453   C478    1.415   .     A
C453   O511    1.383   .     S
C453   C1289   1.391   1_554 S
C454   C477    1.417   .     A
C454   O516    1.390   .     S
C454   C1290   1.399   .     S
C455   O521    1.386   .     S
C455   C460    1.401   .     A
C456   C459    1.402   .     A
C456   O526    1.386   .     S
C456   C278    1.384   1_655 S
C457   C459    1.404   .     A
C457   O531    1.386   .     S
C457   C275    1.384   1_655 S
C458   O536    1.386   .     S
C458   C460    1.405   .     A
C461   N490    1.366   .     A
C461   H485    1.082   .     S
C462   H486    1.082   .     S
C462   N489    1.366   .     A
C462   C733    1.416   .     S
C463   N490    1.366   .     A
C463   H487    1.082   .     S
C464   N489    1.366   .     A
C464   H488    1.082   .     S
C464   C731    1.416   .     S
C465   O498    1.280   .     A
C465   C470    1.419   .     S
C465   O495    1.283   .     A
C466   O497    1.280   .     A
C466   O496    1.283   .     A
C466   C469    1.419   .     S
C467   O501    1.386   .     S
C467   C477    1.406   .     A
C467   C469    1.399   .     A
C468   C470    1.398   .     A
C468   O506    1.385   .     S
C468   C478    1.404   .     A
C469   C471    1.384   .     A
C470   C472    1.384   .     A
C471   H481    1.085   .     S
C471   C473    1.378   .     A
C472   H482    1.085   .     S
C472   C474    1.379   .     A
C473   C479    1.395   .     A
C473   C475    1.411   .     A
C474   C476    1.410   .     A
C474   C480    1.394   .     A
C475   C477    1.425   .     A
C475   C1286   1.396   .     S
C476   C478    1.425   .     A
C476   C1285   1.396   1_554 S
C479   H483    1.085   .     S
C479   C1263   1.391   .     S
C480   H484    1.083   .     S
C480   C1264   1.399   1_554 S
N489   Zn499   2.008   .     S
N490   Zn500   2.008   .     S
O491   Zn499   2.001   .     S
O492   Zn500   2.001   .     S
O493   Zn499   1.991   .     S
O494   Zn500   1.991   .     S
O495   Zn499   2.002   .     S
O496   Zn500   2.002   .     S
O497   Zn499   2.009   .     S
O498   Zn500   2.009   .     S
O501   C502    1.413   .     S
C502   H505    1.108   .     S
C502   H504    1.111   .     S
C502   H503    1.114   .     S
O506   C507    1.413   .     S
C507   H509    1.114   .     S
C507   H510    1.108   .     S
C507   H508    1.111   .     S
O511   C512    1.410   .     S
C512   H514    1.114   .     S
C512   H513    1.112   .     S
C512   H515    1.109   .     S
O516   C517    1.414   .     S
C517   H519    1.115   .     S
C517   H1328   1.110   .     S
C517   H340    1.109   1_655 S
H518   C1327   1.110   1_554 S
O521   C522    1.411   .     S
C522   H525    1.111   .     S
C522   H524    1.109   .     S
C522   H523    1.114   .     S
O526   C527    1.411   .     S
C527   H528    1.109   .     S
C527   H529    1.114   .     S
C527   H530    1.111   .     S
O531   C532    1.412   .     S
C532   H534    1.108   .     S
C532   H535    1.111   .     S
C532   H533    1.113   .     S
O536   C537    1.412   .     S
C537   H538    1.109   .     S
C537   H540    1.111   .     S
C537   H539    1.113   .     S
C541   O584    1.284   .     A
C541   O581    1.277   .     A
C541   C550    1.417   .     S
C542   O583    1.284   .     A
C542   O582    1.277   .     A
C542   C549    1.417   .     S
C543   C568    1.415   .     A
C543   O601    1.383   .     S
C543   C1379   1.391   1_554 S
C544   C567    1.417   .     A
C544   O606    1.390   .     S
C544   C1380   1.399   .     S
C545   O611    1.386   .     S
C545   C550    1.401   .     A
C545   C727    1.384   1_455 S
C546   C549    1.402   .     A
C546   O616    1.386   .     S
C546   C638    1.384   .     S
C547   C549    1.404   .     A
C547   O621    1.386   .     S
C547   C635    1.384   .     S
C548   O626    1.386   .     S
C548   C550    1.405   .     A
C548   C726    1.384   1_455 S
C551   N580    1.366   .     A
C551   H575    1.082   .     S
C552   H576    1.082   .     S
C552   N579    1.366   .     A
C552   C13     1.416   1_565 S
C553   N580    1.366   .     A
C553   H577    1.082   .     S
C554   N579    1.366   .     A
C554   H578    1.082   .     S
C554   C11     1.416   1_565 S
C555   O588    1.280   .     A
C555   C560    1.419   .     S
C555   O585    1.283   .     A
C556   O587    1.280   .     A
C556   O586    1.283   .     A
C556   C559    1.419   .     S
C557   O591    1.386   .     S
C557   C567    1.406   .     A
C557   C559    1.399   .     A
C558   C560    1.398   .     A
C558   O596    1.385   .     S
C558   C568    1.404   .     A
C559   C561    1.384   .     A
C560   C562    1.384   .     A
C561   H571    1.085   .     S
C561   C563    1.378   .     A
C562   H572    1.085   .     S
C562   C564    1.379   .     A
C563   C569    1.395   .     A
C563   C565    1.411   .     A
C564   C566    1.410   .     A
C564   C570    1.394   .     A
C565   C567    1.425   .     A
C565   C1376   1.396   .     S
C566   C568    1.425   .     A
C566   C1375   1.396   1_554 S
C569   H573    1.085   .     S
C569   C1353   1.391   .     S
C570   H574    1.083   .     S
C570   C1354   1.399   1_554 S
N579   Zn589   2.008   .     S
N580   Zn590   2.008   .     S
O581   Zn589   2.001   .     S
O582   Zn590   2.001   .     S
O583   Zn589   1.991   .     S
O584   Zn590   1.991   .     S
O585   Zn589   2.002   .     S
O586   Zn590   2.002   .     S
O587   Zn589   2.009   .     S
O588   Zn590   2.009   .     S
O591   C592    1.413   .     S
C592   H595    1.108   .     S
C592   H594    1.111   .     S
C592   H593    1.114   .     S
O596   C597    1.413   .     S
C597   H599    1.114   .     S
C597   H600    1.108   .     S
C597   H598    1.111   .     S
O601   C602    1.410   .     S
C602   H604    1.114   .     S
C602   H603    1.112   .     S
C602   H605    1.109   .     S
O606   C607    1.414   .     S
C607   H609    1.115   .     S
C607   H1418   1.110   .     S
C607   H700    1.109   .     S
H608   C1417   1.110   1_554 S
H610   C787    1.109   1_455 S
O611   C612    1.411   .     S
C612   H615    1.111   .     S
C612   H614    1.109   .     S
C612   H613    1.114   .     S
O616   C617    1.411   .     S
C617   H618    1.109   .     S
C617   H619    1.114   .     S
C617   H620    1.111   .     S
O621   C622    1.412   .     S
C622   H624    1.108   .     S
C622   H625    1.111   .     S
C622   H623    1.113   .     S
O626   C627    1.412   .     S
C627   H628    1.109   .     S
C627   H630    1.111   .     S
C627   H629    1.113   .     S
C631   O674    1.284   .     A
C631   O671    1.277   .     A
C631   C640    1.417   .     S
C632   O673    1.284   .     A
C632   O672    1.277   .     A
C632   C639    1.417   .     S
C633   C658    1.415   .     A
C633   O691    1.383   .     S
C633   C1469   1.391   1_554 S
C634   C657    1.417   .     A
C634   O696    1.390   .     S
C634   C1470   1.399   .     S
C635   O701    1.386   .     S
C635   C640    1.401   .     A
C636   C639    1.402   .     A
C636   O706    1.386   .     S
C636   C728    1.384   .     S
C637   C639    1.404   .     A
C637   O711    1.386   .     S
C637   C725    1.384   .     S
C638   O716    1.386   .     S
C638   C640    1.405   .     A
C641   N670    1.366   .     A
C641   H665    1.082   .     S
C642   H666    1.082   .     S
C642   N669    1.366   .     A
C642   C103    1.416   1_565 S
C643   N670    1.366   .     A
C643   H667    1.082   .     S
C644   N669    1.366   .     A
C644   H668    1.082   .     S
C644   C101    1.416   1_565 S
C645   O678    1.280   .     A
C645   C650    1.419   .     S
C645   O675    1.283   .     A
C646   O677    1.280   .     A
C646   O676    1.283   .     A
C646   C649    1.419   .     S
C647   O681    1.386   .     S
C647   C657    1.406   .     A
C647   C649    1.399   .     A
C648   C650    1.398   .     A
C648   O686    1.385   .     S
C648   C658    1.404   .     A
C649   C651    1.384   .     A
C650   C652    1.384   .     A
C651   H661    1.085   .     S
C651   C653    1.378   .     A
C652   H662    1.085   .     S
C652   C654    1.379   .     A
C653   C659    1.395   .     A
C653   C655    1.411   .     A
C654   C656    1.410   .     A
C654   C660    1.394   .     A
C655   C657    1.425   .     A
C655   C1466   1.396   .     S
C656   C658    1.425   .     A
C656   C1465   1.396   1_554 S
C659   H663    1.085   .     S
C659   C1443   1.391   .     S
C660   H664    1.083   .     S
C660   C1444   1.399   1_554 S
N669   Zn679   2.008   .     S
N670   Zn680   2.008   .     S
O671   Zn679   2.001   .     S
O672   Zn680   2.001   .     S
O673   Zn679   1.991   .     S
O674   Zn680   1.991   .     S
O675   Zn679   2.002   .     S
O676   Zn680   2.002   .     S
O677   Zn679   2.009   .     S
O678   Zn680   2.009   .     S
O681   C682    1.413   .     S
C682   H685    1.108   .     S
C682   H684    1.111   .     S
C682   H683    1.114   .     S
O686   C687    1.413   .     S
C687   H689    1.114   .     S
C687   H690    1.108   .     S
C687   H688    1.111   .     S
O691   C692    1.410   .     S
C692   H694    1.114   .     S
C692   H693    1.112   .     S
C692   H695    1.109   .     S
O696   C697    1.414   .     S
C697   H699    1.115   .     S
C697   H1508   1.110   .     S
C697   H790    1.109   .     S
H698   C1507   1.110   1_554 S
O701   C702    1.411   .     S
C702   H705    1.111   .     S
C702   H704    1.109   .     S
C702   H703    1.114   .     S
O706   C707    1.411   .     S
C707   H708    1.109   .     S
C707   H709    1.114   .     S
C707   H710    1.111   .     S
O711   C712    1.412   .     S
C712   H714    1.108   .     S
C712   H715    1.111   .     S
C712   H713    1.113   .     S
O716   C717    1.412   .     S
C717   H718    1.109   .     S
C717   H720    1.111   .     S
C717   H719    1.113   .     S
C721   O764    1.284   .     A
C721   O761    1.277   .     A
C721   C730    1.417   .     S
C722   O763    1.284   .     A
C722   O762    1.277   .     A
C722   C729    1.417   .     S
C723   C748    1.415   .     A
C723   O781    1.383   .     S
C723   C1559   1.391   1_554 S
C724   C747    1.417   .     A
C724   O786    1.390   .     S
C724   C1560   1.399   .     S
C725   O791    1.386   .     S
C725   C730    1.401   .     A
C726   C729    1.402   .     A
C726   O796    1.386   .     S
C726   C548    1.384   1_655 S
C727   C729    1.404   .     A
C727   O801    1.386   .     S
C727   C545    1.384   1_655 S
C728   O806    1.386   .     S
C728   C730    1.405   .     A
C731   N760    1.366   .     A
C731   H755    1.082   .     S
C732   H756    1.082   .     S
C732   N759    1.366   .     A
C732   C193    1.416   1_565 S
C733   N760    1.366   .     A
C733   H757    1.082   .     S
C734   N759    1.366   .     A
C734   H758    1.082   .     S
C734   C191    1.416   1_565 S
C735   O768    1.280   .     A
C735   C740    1.419   .     S
C735   O765    1.283   .     A
C736   O767    1.280   .     A
C736   O766    1.283   .     A
C736   C739    1.419   .     S
C737   O771    1.386   .     S
C737   C747    1.406   .     A
C737   C739    1.399   .     A
C738   C740    1.398   .     A
C738   O776    1.385   .     S
C738   C748    1.404   .     A
C739   C741    1.384   .     A
C740   C742    1.384   .     A
C741   H751    1.085   .     S
C741   C743    1.378   .     A
C742   H752    1.085   .     S
C742   C744    1.379   .     A
C743   C749    1.395   .     A
C743   C745    1.411   .     A
C744   C746    1.410   .     A
C744   C750    1.394   .     A
C745   C747    1.425   .     A
C745   C1556   1.396   .     S
C746   C748    1.425   .     A
C746   C1555   1.396   1_554 S
C749   H753    1.085   .     S
C749   C1533   1.391   .     S
C750   H754    1.083   .     S
C750   C1534   1.399   1_554 S
N759   Zn769   2.008   .     S
N760   Zn770   2.008   .     S
O761   Zn769   2.001   .     S
O762   Zn770   2.001   .     S
O763   Zn769   1.991   .     S
O764   Zn770   1.991   .     S
O765   Zn769   2.002   .     S
O766   Zn770   2.002   .     S
O767   Zn769   2.009   .     S
O768   Zn770   2.009   .     S
O771   C772    1.413   .     S
C772   H775    1.108   .     S
C772   H774    1.111   .     S
C772   H773    1.114   .     S
O776   C777    1.413   .     S
C777   H779    1.114   .     S
C777   H780    1.108   .     S
C777   H778    1.111   .     S
O781   C782    1.410   .     S
C782   H784    1.114   .     S
C782   H783    1.112   .     S
C782   H785    1.109   .     S
O786   C787    1.414   .     S
C787   H789    1.115   .     S
C787   H1598   1.110   .     S
C787   H610    1.109   1_655 S
H788   C1597   1.110   1_554 S
O791   C792    1.411   .     S
C792   H795    1.111   .     S
C792   H794    1.109   .     S
C792   H793    1.114   .     S
O796   C797    1.411   .     S
C797   H798    1.109   .     S
C797   H799    1.114   .     S
C797   H800    1.111   .     S
O801   C802    1.412   .     S
C802   H804    1.108   .     S
C802   H805    1.111   .     S
C802   H803    1.113   .     S
O806   C807    1.412   .     S
C807   H808    1.109   .     S
C807   H810    1.111   .     S
C807   H809    1.113   .     S
C811   O854    1.284   .     A
C811   O851    1.277   .     A
C811   C820    1.417   .     S
C812   O853    1.284   .     A
C812   O852    1.277   .     A
C812   C819    1.417   .     S
C813   C838    1.415   .     A
C813   O871    1.383   .     S
C814   C837    1.417   .     A
C814   O876    1.390   .     S
C814   C30     1.399   1_556 S
C815   O881    1.386   .     S
C815   C820    1.401   .     A
C815   C997    1.384   1_455 S
C816   C819    1.402   .     A
C816   O886    1.386   .     S
C816   C908    1.384   .     S
C817   C819    1.404   .     A
C817   O891    1.386   .     S
C817   C905    1.384   .     S
C818   O896    1.386   .     S
C818   C820    1.405   .     A
C818   C996    1.384   1_455 S
C821   N850    1.366   .     A
C821   H845    1.082   .     S
C821   C1364   1.416   1_545 S
C822   H846    1.082   .     S
C822   N849    1.366   .     A
C822   C1093   1.416   .     S
C823   N850    1.366   .     A
C823   H847    1.082   .     S
C823   C1362   1.416   1_545 S
C824   N849    1.366   .     A
C824   H848    1.082   .     S
C824   C1091   1.416   .     S
C825   O858    1.280   .     A
C825   C830    1.419   .     S
C825   O855    1.283   .     A
C826   O857    1.280   .     A
C826   O856    1.283   .     A
C826   C829    1.419   .     S
C827   O861    1.386   .     S
C827   C837    1.406   .     A
C827   C829    1.399   .     A
C828   C830    1.398   .     A
C828   O866    1.385   .     S
C828   C838    1.404   .     A
C829   C831    1.384   .     A
C830   C832    1.384   .     A
C831   H841    1.085   .     S
C831   C833    1.378   .     A
C832   H842    1.085   .     S
C832   C834    1.379   .     A
C833   C839    1.395   .     A
C833   C835    1.411   .     A
C834   C836    1.410   .     A
C834   C840    1.394   .     A
C835   C837    1.425   .     A
C835   C26     1.396   1_556 S
C836   C838    1.425   .     A
C839   H843    1.085   .     S
C839   C3      1.391   1_556 S
C840   H844    1.083   .     S
N849   Zn859   2.008   .     S
N850   Zn860   2.008   .     S
O851   Zn859   2.001   .     S
O852   Zn860   2.001   .     S
O853   Zn859   1.991   .     S
O854   Zn860   1.991   .     S
O855   Zn859   2.002   .     S
O856   Zn860   2.002   .     S
O857   Zn859   2.009   .     S
O858   Zn860   2.009   .     S
O861   C862    1.413   .     S
C862   H865    1.108   .     S
C862   H864    1.111   .     S
C862   H863    1.114   .     S
O866   C867    1.413   .     S
C867   H869    1.114   .     S
C867   H870    1.108   .     S
C867   H868    1.111   .     S
O871   C872    1.410   .     S
C872   H874    1.114   .     S
C872   H873    1.112   .     S
C872   H875    1.109   .     S
O876   C877    1.414   .     S
C877   H879    1.115   .     S
C877   H68     1.110   1_556 S
C877   H970    1.109   .     S
H880   C1057   1.109   1_455 S
O881   C882    1.411   .     S
C882   H885    1.111   .     S
C882   H884    1.109   .     S
C882   H883    1.114   .     S
O886   C887    1.411   .     S
C887   H888    1.109   .     S
C887   H889    1.114   .     S
C887   H890    1.111   .     S
O891   C892    1.412   .     S
C892   H894    1.108   .     S
C892   H895    1.111   .     S
C892   H893    1.113   .     S
O896   C897    1.412   .     S
C897   H898    1.109   .     S
C897   H900    1.111   .     S
C897   H899    1.113   .     S
C901   O944    1.284   .     A
C901   O941    1.277   .     A
C901   C910    1.417   .     S
C902   O943    1.284   .     A
C902   O942    1.277   .     A
C902   C909    1.417   .     S
C903   C928    1.415   .     A
C903   O961    1.383   .     S
C904   C927    1.417   .     A
C904   O966    1.390   .     S
C904   C120    1.399   1_556 S
C905   O971    1.386   .     S
C905   C910    1.401   .     A
C906   C909    1.402   .     A
C906   O976    1.386   .     S
C906   C998    1.384   .     S
C907   C909    1.404   .     A
C907   O981    1.386   .     S
C907   C995    1.384   .     S
C908   O986    1.386   .     S
C908   C910    1.405   .     A
C911   N940    1.366   .     A
C911   H935    1.082   .     S
C911   C1454   1.416   1_545 S
C912   H936    1.082   .     S
C912   N939    1.366   .     A
C912   C1183   1.416   .     S
C913   N940    1.366   .     A
C913   H937    1.082   .     S
C913   C1452   1.416   1_545 S
C914   N939    1.366   .     A
C914   H938    1.082   .     S
C914   C1181   1.416   .     S
C915   O948    1.280   .     A
C915   C920    1.419   .     S
C915   O945    1.283   .     A
C916   O947    1.280   .     A
C916   O946    1.283   .     A
C916   C919    1.419   .     S
C917   O951    1.386   .     S
C917   C927    1.406   .     A
C917   C919    1.399   .     A
C918   C920    1.398   .     A
C918   O956    1.385   .     S
C918   C928    1.404   .     A
C919   C921    1.384   .     A
C920   C922    1.384   .     A
C921   H931    1.085   .     S
C921   C923    1.378   .     A
C922   H932    1.085   .     S
C922   C924    1.379   .     A
C923   C929    1.395   .     A
C923   C925    1.411   .     A
C924   C926    1.410   .     A
C924   C930    1.394   .     A
C925   C927    1.425   .     A
C925   C116    1.396   1_556 S
C926   C928    1.425   .     A
C929   H933    1.085   .     S
C929   C93     1.391   1_556 S
C930   H934    1.083   .     S
N939   Zn949   2.008   .     S
N940   Zn950   2.008   .     S
O941   Zn949   2.001   .     S
O942   Zn950   2.001   .     S
O943   Zn949   1.991   .     S
O944   Zn950   1.991   .     S
O945   Zn949   2.002   .     S
O946   Zn950   2.002   .     S
O947   Zn949   2.009   .     S
O948   Zn950   2.009   .     S
O951   C952    1.413   .     S
C952   H955    1.108   .     S
C952   H954    1.111   .     S
C952   H953    1.114   .     S
O956   C957    1.413   .     S
C957   H959    1.114   .     S
C957   H960    1.108   .     S
C957   H958    1.111   .     S
O961   C962    1.410   .     S
C962   H964    1.114   .     S
C962   H963    1.112   .     S
C962   H965    1.109   .     S
O966   C967    1.414   .     S
C967   H969    1.115   .     S
C967   H158    1.110   1_556 S
C967   H1060   1.109   .     S
O971   C972    1.411   .     S
C972   H975    1.111   .     S
C972   H974    1.109   .     S
C972   H973    1.114   .     S
O976   C977    1.411   .     S
C977   H978    1.109   .     S
C977   H979    1.114   .     S
C977   H980    1.111   .     S
O981   C982    1.412   .     S
C982   H984    1.108   .     S
C982   H985    1.111   .     S
C982   H983    1.113   .     S
O986   C987    1.412   .     S
C987   H988    1.109   .     S
C987   H990    1.111   .     S
C987   H989    1.113   .     S
C991   O1034   1.284   .     A
C991   O1031   1.277   .     A
C991   C1000   1.417   .     S
C992   O1033   1.284   .     A
C992   O1032   1.277   .     A
C992   C999    1.417   .     S
C993   C1018   1.415   .     A
C993   O1051   1.383   .     S
C994   C1017   1.417   .     A
C994   O1056   1.390   .     S
C994   C210    1.399   1_556 S
C995   O1061   1.386   .     S
C995   C1000   1.401   .     A
C996   C999    1.402   .     A
C996   O1066   1.386   .     S
C996   C818    1.384   1_655 S
C997   C999    1.404   .     A
C997   O1071   1.386   .     S
C997   C815    1.384   1_655 S
C998   O1076   1.386   .     S
C998   C1000   1.405   .     A
C1001  N1030   1.366   .     A
C1001  H1025   1.082   .     S
C1001  C1544   1.416   1_545 S
C1002  H1026   1.082   .     S
C1002  N1029   1.366   .     A
C1002  C1273   1.416   .     S
C1003  N1030   1.366   .     A
C1003  H1027   1.082   .     S
C1003  C1542   1.416   1_545 S
C1004  N1029   1.366   .     A
C1004  H1028   1.082   .     S
C1004  C1271   1.416   .     S
C1005  O1038   1.280   .     A
C1005  C1010   1.419   .     S
C1005  O1035   1.283   .     A
C1006  O1037   1.280   .     A
C1006  O1036   1.283   .     A
C1006  C1009   1.419   .     S
C1007  O1041   1.386   .     S
C1007  C1017   1.406   .     A
C1007  C1009   1.399   .     A
C1008  C1010   1.398   .     A
C1008  O1046   1.385   .     S
C1008  C1018   1.404   .     A
C1009  C1011   1.384   .     A
C1010  C1012   1.384   .     A
C1011  H1021   1.085   .     S
C1011  C1013   1.378   .     A
C1012  H1022   1.085   .     S
C1012  C1014   1.379   .     A
C1013  C1019   1.395   .     A
C1013  C1015   1.411   .     A
C1014  C1016   1.410   .     A
C1014  C1020   1.394   .     A
C1015  C1017   1.425   .     A
C1015  C206    1.396   1_556 S
C1016  C1018   1.425   .     A
C1019  H1023   1.085   .     S
C1019  C183    1.391   1_556 S
C1020  H1024   1.083   .     S
N1029  Zn1039  2.008   .     S
N1030  Zn1040  2.008   .     S
O1031  Zn1039  2.001   .     S
O1032  Zn1040  2.001   .     S
O1033  Zn1039  1.991   .     S
O1034  Zn1040  1.991   .     S
O1035  Zn1039  2.002   .     S
O1036  Zn1040  2.002   .     S
O1037  Zn1039  2.009   .     S
O1038  Zn1040  2.009   .     S
O1041  C1042   1.413   .     S
C1042  H1045   1.108   .     S
C1042  H1044   1.111   .     S
C1042  H1043   1.114   .     S
O1046  C1047   1.413   .     S
C1047  H1049   1.114   .     S
C1047  H1050   1.108   .     S
C1047  H1048   1.111   .     S
O1051  C1052   1.410   .     S
C1052  H1054   1.114   .     S
C1052  H1053   1.112   .     S
C1052  H1055   1.109   .     S
O1056  C1057   1.414   .     S
C1057  H1059   1.115   .     S
C1057  H248    1.110   1_556 S
C1057  H880    1.109   1_655 S
O1061  C1062   1.411   .     S
C1062  H1065   1.111   .     S
C1062  H1064   1.109   .     S
C1062  H1063   1.114   .     S
O1066  C1067   1.411   .     S
C1067  H1068   1.109   .     S
C1067  H1069   1.114   .     S
C1067  H1070   1.111   .     S
O1071  C1072   1.412   .     S
C1072  H1074   1.108   .     S
C1072  H1075   1.111   .     S
C1072  H1073   1.113   .     S
O1076  C1077   1.412   .     S
C1077  H1078   1.109   .     S
C1077  H1080   1.111   .     S
C1077  H1079   1.113   .     S
C1081  O1124   1.284   .     A
C1081  O1121   1.277   .     A
C1081  C1090   1.417   .     S
C1082  O1123   1.284   .     A
C1082  O1122   1.277   .     A
C1082  C1089   1.417   .     S
C1083  C1108   1.415   .     A
C1083  O1141   1.383   .     S
C1084  C1107   1.417   .     A
C1084  O1146   1.390   .     S
C1084  C300    1.399   1_556 S
C1085  O1151   1.386   .     S
C1085  C1090   1.401   .     A
C1085  C1267   1.384   1_455 S
C1086  C1089   1.402   .     A
C1086  O1156   1.386   .     S
C1086  C1178   1.384   .     S
C1087  C1089   1.404   .     A
C1087  O1161   1.386   .     S
C1087  C1175   1.384   .     S
C1088  O1166   1.386   .     S
C1088  C1090   1.405   .     A
C1088  C1266   1.384   1_455 S
C1091  N1120   1.366   .     A
C1091  H1115   1.082   .     S
C1092  H1116   1.082   .     S
C1092  N1119   1.366   .     A
C1092  C1363   1.416   .     S
C1093  N1120   1.366   .     A
C1093  H1117   1.082   .     S
C1094  N1119   1.366   .     A
C1094  H1118   1.082   .     S
C1094  C1361   1.416   .     S
C1095  O1128   1.280   .     A
C1095  C1100   1.419   .     S
C1095  O1125   1.283   .     A
C1096  O1127   1.280   .     A
C1096  O1126   1.283   .     A
C1096  C1099   1.419   .     S
C1097  O1131   1.386   .     S
C1097  C1107   1.406   .     A
C1097  C1099   1.399   .     A
C1098  C1100   1.398   .     A
C1098  O1136   1.385   .     S
C1098  C1108   1.404   .     A
C1099  C1101   1.384   .     A
C1100  C1102   1.384   .     A
C1101  H1111   1.085   .     S
C1101  C1103   1.378   .     A
C1102  H1112   1.085   .     S
C1102  C1104   1.379   .     A
C1103  C1109   1.395   .     A
C1103  C1105   1.411   .     A
C1104  C1106   1.410   .     A
C1104  C1110   1.394   .     A
C1105  C1107   1.425   .     A
C1105  C296    1.396   1_556 S
C1106  C1108   1.425   .     A
C1109  H1113   1.085   .     S
C1109  C273    1.391   1_556 S
C1110  H1114   1.083   .     S
N1119  Zn1129  2.008   .     S
N1120  Zn1130  2.008   .     S
O1121  Zn1129  2.001   .     S
O1122  Zn1130  2.001   .     S
O1123  Zn1129  1.991   .     S
O1124  Zn1130  1.991   .     S
O1125  Zn1129  2.002   .     S
O1126  Zn1130  2.002   .     S
O1127  Zn1129  2.009   .     S
O1128  Zn1130  2.009   .     S
O1131  C1132   1.413   .     S
C1132  H1135   1.108   .     S
C1132  H1134   1.111   .     S
C1132  H1133   1.114   .     S
O1136  C1137   1.413   .     S
C1137  H1139   1.114   .     S
C1137  H1140   1.108   .     S
C1137  H1138   1.111   .     S
O1141  C1142   1.410   .     S
C1142  H1144   1.114   .     S
C1142  H1143   1.112   .     S
C1142  H1145   1.109   .     S
O1146  C1147   1.414   .     S
C1147  H1149   1.115   .     S
C1147  H338    1.110   1_556 S
C1147  H1240   1.109   .     S
H1150  C1327   1.109   1_455 S
O1151  C1152   1.411   .     S
C1152  H1155   1.111   .     S
C1152  H1154   1.109   .     S
C1152  H1153   1.114   .     S
O1156  C1157   1.411   .     S
C1157  H1158   1.109   .     S
C1157  H1159   1.114   .     S
C1157  H1160   1.111   .     S
O1161  C1162   1.412   .     S
C1162  H1164   1.108   .     S
C1162  H1165   1.111   .     S
C1162  H1163   1.113   .     S
O1166  C1167   1.412   .     S
C1167  H1168   1.109   .     S
C1167  H1170   1.111   .     S
C1167  H1169   1.113   .     S
C1171  O1214   1.284   .     A
C1171  O1211   1.277   .     A
C1171  C1180   1.417   .     S
C1172  O1213   1.284   .     A
C1172  O1212   1.277   .     A
C1172  C1179   1.417   .     S
C1173  C1198   1.415   .     A
C1173  O1231   1.383   .     S
C1174  C1197   1.417   .     A
C1174  O1236   1.390   .     S
C1174  C390    1.399   1_556 S
C1175  O1241   1.386   .     S
C1175  C1180   1.401   .     A
C1176  C1179   1.402   .     A
C1176  O1246   1.386   .     S
C1176  C1268   1.384   .     S
C1177  C1179   1.404   .     A
C1177  O1251   1.386   .     S
C1177  C1265   1.384   .     S
C1178  O1256   1.386   .     S
C1178  C1180   1.405   .     A
C1181  N1210   1.366   .     A
C1181  H1205   1.082   .     S
C1182  H1206   1.082   .     S
C1182  N1209   1.366   .     A
C1182  C1453   1.416   .     S
C1183  N1210   1.366   .     A
C1183  H1207   1.082   .     S
C1184  N1209   1.366   .     A
C1184  H1208   1.082   .     S
C1184  C1451   1.416   .     S
C1185  O1218   1.280   .     A
C1185  C1190   1.419   .     S
C1185  O1215   1.283   .     A
C1186  O1217   1.280   .     A
C1186  O1216   1.283   .     A
C1186  C1189   1.419   .     S
C1187  O1221   1.386   .     S
C1187  C1197   1.406   .     A
C1187  C1189   1.399   .     A
C1188  C1190   1.398   .     A
C1188  O1226   1.385   .     S
C1188  C1198   1.404   .     A
C1189  C1191   1.384   .     A
C1190  C1192   1.384   .     A
C1191  H1201   1.085   .     S
C1191  C1193   1.378   .     A
C1192  H1202   1.085   .     S
C1192  C1194   1.379   .     A
C1193  C1199   1.395   .     A
C1193  C1195   1.411   .     A
C1194  C1196   1.410   .     A
C1194  C1200   1.394   .     A
C1195  C1197   1.425   .     A
C1195  C386    1.396   1_556 S
C1196  C1198   1.425   .     A
C1199  H1203   1.085   .     S
C1199  C363    1.391   1_556 S
C1200  H1204   1.083   .     S
N1209  Zn1219  2.008   .     S
N1210  Zn1220  2.008   .     S
O1211  Zn1219  2.001   .     S
O1212  Zn1220  2.001   .     S
O1213  Zn1219  1.991   .     S
O1214  Zn1220  1.991   .     S
O1215  Zn1219  2.002   .     S
O1216  Zn1220  2.002   .     S
O1217  Zn1219  2.009   .     S
O1218  Zn1220  2.009   .     S
O1221  C1222   1.413   .     S
C1222  H1225   1.108   .     S
C1222  H1224   1.111   .     S
C1222  H1223   1.114   .     S
O1226  C1227   1.413   .     S
C1227  H1229   1.114   .     S
C1227  H1230   1.108   .     S
C1227  H1228   1.111   .     S
O1231  C1232   1.410   .     S
C1232  H1234   1.114   .     S
C1232  H1233   1.112   .     S
C1232  H1235   1.109   .     S
O1236  C1237   1.414   .     S
C1237  H1239   1.115   .     S
C1237  H428    1.110   1_556 S
C1237  H1330   1.109   .     S
O1241  C1242   1.411   .     S
C1242  H1245   1.111   .     S
C1242  H1244   1.109   .     S
C1242  H1243   1.114   .     S
O1246  C1247   1.411   .     S
C1247  H1248   1.109   .     S
C1247  H1249   1.114   .     S
C1247  H1250   1.111   .     S
O1251  C1252   1.412   .     S
C1252  H1254   1.108   .     S
C1252  H1255   1.111   .     S
C1252  H1253   1.113   .     S
O1256  C1257   1.412   .     S
C1257  H1258   1.109   .     S
C1257  H1260   1.111   .     S
C1257  H1259   1.113   .     S
C1261  O1304   1.284   .     A
C1261  O1301   1.277   .     A
C1261  C1270   1.417   .     S
C1262  O1303   1.284   .     A
C1262  O1302   1.277   .     A
C1262  C1269   1.417   .     S
C1263  C1288   1.415   .     A
C1263  O1321   1.383   .     S
C1264  C1287   1.417   .     A
C1264  O1326   1.390   .     S
C1264  C480    1.399   1_556 S
C1265  O1331   1.386   .     S
C1265  C1270   1.401   .     A
C1266  C1269   1.402   .     A
C1266  O1336   1.386   .     S
C1266  C1088   1.384   1_655 S
C1267  C1269   1.404   .     A
C1267  O1341   1.386   .     S
C1267  C1085   1.384   1_655 S
C1268  O1346   1.386   .     S
C1268  C1270   1.405   .     A
C1271  N1300   1.366   .     A
C1271  H1295   1.082   .     S
C1272  H1296   1.082   .     S
C1272  N1299   1.366   .     A
C1272  C1543   1.416   .     S
C1273  N1300   1.366   .     A
C1273  H1297   1.082   .     S
C1274  N1299   1.366   .     A
C1274  H1298   1.082   .     S
C1274  C1541   1.416   .     S
C1275  O1308   1.280   .     A
C1275  C1280   1.419   .     S
C1275  O1305   1.283   .     A
C1276  O1307   1.280   .     A
C1276  O1306   1.283   .     A
C1276  C1279   1.419   .     S
C1277  O1311   1.386   .     S
C1277  C1287   1.406   .     A
C1277  C1279   1.399   .     A
C1278  C1280   1.398   .     A
C1278  O1316   1.385   .     S
C1278  C1288   1.404   .     A
C1279  C1281   1.384   .     A
C1280  C1282   1.384   .     A
C1281  H1291   1.085   .     S
C1281  C1283   1.378   .     A
C1282  H1292   1.085   .     S
C1282  C1284   1.379   .     A
C1283  C1289   1.395   .     A
C1283  C1285   1.411   .     A
C1284  C1286   1.410   .     A
C1284  C1290   1.394   .     A
C1285  C1287   1.425   .     A
C1285  C476    1.396   1_556 S
C1286  C1288   1.425   .     A
C1289  H1293   1.085   .     S
C1289  C453    1.391   1_556 S
C1290  H1294   1.083   .     S
N1299  Zn1309  2.008   .     S
N1300  Zn1310  2.008   .     S
O1301  Zn1309  2.001   .     S
O1302  Zn1310  2.001   .     S
O1303  Zn1309  1.991   .     S
O1304  Zn1310  1.991   .     S
O1305  Zn1309  2.002   .     S
O1306  Zn1310  2.002   .     S
O1307  Zn1309  2.009   .     S
O1308  Zn1310  2.009   .     S
O1311  C1312   1.413   .     S
C1312  H1315   1.108   .     S
C1312  H1314   1.111   .     S
C1312  H1313   1.114   .     S
O1316  C1317   1.413   .     S
C1317  H1319   1.114   .     S
C1317  H1320   1.108   .     S
C1317  H1318   1.111   .     S
O1321  C1322   1.410   .     S
C1322  H1324   1.114   .     S
C1322  H1323   1.112   .     S
C1322  H1325   1.109   .     S
O1326  C1327   1.414   .     S
C1327  H1329   1.115   .     S
C1327  H518    1.110   1_556 S
C1327  H1150   1.109   1_655 S
O1331  C1332   1.411   .     S
C1332  H1335   1.111   .     S
C1332  H1334   1.109   .     S
C1332  H1333   1.114   .     S
O1336  C1337   1.411   .     S
C1337  H1338   1.109   .     S
C1337  H1339   1.114   .     S
C1337  H1340   1.111   .     S
O1341  C1342   1.412   .     S
C1342  H1344   1.108   .     S
C1342  H1345   1.111   .     S
C1342  H1343   1.113   .     S
O1346  C1347   1.412   .     S
C1347  H1348   1.109   .     S
C1347  H1350   1.111   .     S
C1347  H1349   1.113   .     S
C1351  O1394   1.284   .     A
C1351  O1391   1.277   .     A
C1351  C1360   1.417   .     S
C1352  O1393   1.284   .     A
C1352  O1392   1.277   .     A
C1352  C1359   1.417   .     S
C1353  C1378   1.415   .     A
C1353  O1411   1.383   .     S
C1354  C1377   1.417   .     A
C1354  O1416   1.390   .     S
C1354  C570    1.399   1_556 S
C1355  O1421   1.386   .     S
C1355  C1360   1.401   .     A
C1355  C1537   1.384   1_455 S
C1356  C1359   1.402   .     A
C1356  O1426   1.386   .     S
C1356  C1448   1.384   .     S
C1357  C1359   1.404   .     A
C1357  O1431   1.386   .     S
C1357  C1445   1.384   .     S
C1358  O1436   1.386   .     S
C1358  C1360   1.405   .     A
C1358  C1536   1.384   1_455 S
C1361  N1390   1.366   .     A
C1361  H1385   1.082   .     S
C1362  H1386   1.082   .     S
C1362  N1389   1.366   .     A
C1362  C823    1.416   1_565 S
C1363  N1390   1.366   .     A
C1363  H1387   1.082   .     S
C1364  N1389   1.366   .     A
C1364  H1388   1.082   .     S
C1364  C821    1.416   1_565 S
C1365  O1398   1.280   .     A
C1365  C1370   1.419   .     S
C1365  O1395   1.283   .     A
C1366  O1397   1.280   .     A
C1366  O1396   1.283   .     A
C1366  C1369   1.419   .     S
C1367  O1401   1.386   .     S
C1367  C1377   1.406   .     A
C1367  C1369   1.399   .     A
C1368  C1370   1.398   .     A
C1368  O1406   1.385   .     S
C1368  C1378   1.404   .     A
C1369  C1371   1.384   .     A
C1370  C1372   1.384   .     A
C1371  H1381   1.085   .     S
C1371  C1373   1.378   .     A
C1372  H1382   1.085   .     S
C1372  C1374   1.379   .     A
C1373  C1379   1.395   .     A
C1373  C1375   1.411   .     A
C1374  C1376   1.410   .     A
C1374  C1380   1.394   .     A
C1375  C1377   1.425   .     A
C1375  C566    1.396   1_556 S
C1376  C1378   1.425   .     A
C1379  H1383   1.085   .     S
C1379  C543    1.391   1_556 S
C1380  H1384   1.083   .     S
N1389  Zn1399  2.008   .     S
N1390  Zn1400  2.008   .     S
O1391  Zn1399  2.001   .     S
O1392  Zn1400  2.001   .     S
O1393  Zn1399  1.991   .     S
O1394  Zn1400  1.991   .     S
O1395  Zn1399  2.002   .     S
O1396  Zn1400  2.002   .     S
O1397  Zn1399  2.009   .     S
O1398  Zn1400  2.009   .     S
O1401  C1402   1.413   .     S
C1402  H1405   1.108   .     S
C1402  H1404   1.111   .     S
C1402  H1403   1.114   .     S
O1406  C1407   1.413   .     S
C1407  H1409   1.114   .     S
C1407  H1410   1.108   .     S
C1407  H1408   1.111   .     S
O1411  C1412   1.410   .     S
C1412  H1414   1.114   .     S
C1412  H1413   1.112   .     S
C1412  H1415   1.109   .     S
O1416  C1417   1.414   .     S
C1417  H1419   1.115   .     S
C1417  H608    1.110   1_556 S
C1417  H1510   1.109   .     S
H1420  C1597   1.109   1_455 S
O1421  C1422   1.411   .     S
C1422  H1425   1.111   .     S
C1422  H1424   1.109   .     S
C1422  H1423   1.114   .     S
O1426  C1427   1.411   .     S
C1427  H1428   1.109   .     S
C1427  H1429   1.114   .     S
C1427  H1430   1.111   .     S
O1431  C1432   1.412   .     S
C1432  H1434   1.108   .     S
C1432  H1435   1.111   .     S
C1432  H1433   1.113   .     S
O1436  C1437   1.412   .     S
C1437  H1438   1.109   .     S
C1437  H1440   1.111   .     S
C1437  H1439   1.113   .     S
C1441  O1484   1.284   .     A
C1441  O1481   1.277   .     A
C1441  C1450   1.417   .     S
C1442  O1483   1.284   .     A
C1442  O1482   1.277   .     A
C1442  C1449   1.417   .     S
C1443  C1468   1.415   .     A
C1443  O1501   1.383   .     S
C1444  C1467   1.417   .     A
C1444  O1506   1.390   .     S
C1444  C660    1.399   1_556 S
C1445  O1511   1.386   .     S
C1445  C1450   1.401   .     A
C1446  C1449   1.402   .     A
C1446  O1516   1.386   .     S
C1446  C1538   1.384   .     S
C1447  C1449   1.404   .     A
C1447  O1521   1.386   .     S
C1447  C1535   1.384   .     S
C1448  O1526   1.386   .     S
C1448  C1450   1.405   .     A
C1451  N1480   1.366   .     A
C1451  H1475   1.082   .     S
C1452  H1476   1.082   .     S
C1452  N1479   1.366   .     A
C1452  C913    1.416   1_565 S
C1453  N1480   1.366   .     A
C1453  H1477   1.082   .     S
C1454  N1479   1.366   .     A
C1454  H1478   1.082   .     S
C1454  C911    1.416   1_565 S
C1455  O1488   1.280   .     A
C1455  C1460   1.419   .     S
C1455  O1485   1.283   .     A
C1456  O1487   1.280   .     A
C1456  O1486   1.283   .     A
C1456  C1459   1.419   .     S
C1457  O1491   1.386   .     S
C1457  C1467   1.406   .     A
C1457  C1459   1.399   .     A
C1458  C1460   1.398   .     A
C1458  O1496   1.385   .     S
C1458  C1468   1.404   .     A
C1459  C1461   1.384   .     A
C1460  C1462   1.384   .     A
C1461  H1471   1.085   .     S
C1461  C1463   1.378   .     A
C1462  H1472   1.085   .     S
C1462  C1464   1.379   .     A
C1463  C1469   1.395   .     A
C1463  C1465   1.411   .     A
C1464  C1466   1.410   .     A
C1464  C1470   1.394   .     A
C1465  C1467   1.425   .     A
C1465  C656    1.396   1_556 S
C1466  C1468   1.425   .     A
C1469  H1473   1.085   .     S
C1469  C633    1.391   1_556 S
C1470  H1474   1.083   .     S
N1479  Zn1489  2.008   .     S
N1480  Zn1490  2.008   .     S
O1481  Zn1489  2.001   .     S
O1482  Zn1490  2.001   .     S
O1483  Zn1489  1.991   .     S
O1484  Zn1490  1.991   .     S
O1485  Zn1489  2.002   .     S
O1486  Zn1490  2.002   .     S
O1487  Zn1489  2.009   .     S
O1488  Zn1490  2.009   .     S
O1491  C1492   1.413   .     S
C1492  H1495   1.108   .     S
C1492  H1494   1.111   .     S
C1492  H1493   1.114   .     S
O1496  C1497   1.413   .     S
C1497  H1499   1.114   .     S
C1497  H1500   1.108   .     S
C1497  H1498   1.111   .     S
O1501  C1502   1.410   .     S
C1502  H1504   1.114   .     S
C1502  H1503   1.112   .     S
C1502  H1505   1.109   .     S
O1506  C1507   1.414   .     S
C1507  H1509   1.115   .     S
C1507  H698    1.110   1_556 S
C1507  H1600   1.109   .     S
O1511  C1512   1.411   .     S
C1512  H1515   1.111   .     S
C1512  H1514   1.109   .     S
C1512  H1513   1.114   .     S
O1516  C1517   1.411   .     S
C1517  H1518   1.109   .     S
C1517  H1519   1.114   .     S
C1517  H1520   1.111   .     S
O1521  C1522   1.412   .     S
C1522  H1524   1.108   .     S
C1522  H1525   1.111   .     S
C1522  H1523   1.113   .     S
O1526  C1527   1.412   .     S
C1527  H1528   1.109   .     S
C1527  H1530   1.111   .     S
C1527  H1529   1.113   .     S
C1531  O1574   1.284   .     A
C1531  O1571   1.277   .     A
C1531  C1540   1.417   .     S
C1532  O1573   1.284   .     A
C1532  O1572   1.277   .     A
C1532  C1539   1.417   .     S
C1533  C1558   1.415   .     A
C1533  O1591   1.383   .     S
C1534  C1557   1.417   .     A
C1534  O1596   1.390   .     S
C1534  C750    1.399   1_556 S
C1535  O1601   1.386   .     S
C1535  C1540   1.401   .     A
C1536  C1539   1.402   .     A
C1536  O1606   1.386   .     S
C1536  C1358   1.384   1_655 S
C1537  C1539   1.404   .     A
C1537  O1611   1.386   .     S
C1537  C1355   1.384   1_655 S
C1538  O1616   1.386   .     S
C1538  C1540   1.405   .     A
C1541  N1570   1.366   .     A
C1541  H1565   1.082   .     S
C1542  H1566   1.082   .     S
C1542  N1569   1.366   .     A
C1542  C1003   1.416   1_565 S
C1543  N1570   1.366   .     A
C1543  H1567   1.082   .     S
C1544  N1569   1.366   .     A
C1544  H1568   1.082   .     S
C1544  C1001   1.416   1_565 S
C1545  O1578   1.280   .     A
C1545  C1550   1.419   .     S
C1545  O1575   1.283   .     A
C1546  O1577   1.280   .     A
C1546  O1576   1.283   .     A
C1546  C1549   1.419   .     S
C1547  O1581   1.386   .     S
C1547  C1557   1.406   .     A
C1547  C1549   1.399   .     A
C1548  C1550   1.398   .     A
C1548  O1586   1.385   .     S
C1548  C1558   1.404   .     A
C1549  C1551   1.384   .     A
C1550  C1552   1.384   .     A
C1551  H1561   1.085   .     S
C1551  C1553   1.378   .     A
C1552  H1562   1.085   .     S
C1552  C1554   1.379   .     A
C1553  C1559   1.395   .     A
C1553  C1555   1.411   .     A
C1554  C1556   1.410   .     A
C1554  C1560   1.394   .     A
C1555  C1557   1.425   .     A
C1555  C746    1.396   1_556 S
C1556  C1558   1.425   .     A
C1559  H1563   1.085   .     S
C1559  C723    1.391   1_556 S
C1560  H1564   1.083   .     S
N1569  Zn1579  2.008   .     S
N1570  Zn1580  2.008   .     S
O1571  Zn1579  2.001   .     S
O1572  Zn1580  2.001   .     S
O1573  Zn1579  1.991   .     S
O1574  Zn1580  1.991   .     S
O1575  Zn1579  2.002   .     S
O1576  Zn1580  2.002   .     S
O1577  Zn1579  2.009   .     S
O1578  Zn1580  2.009   .     S
O1581  C1582   1.413   .     S
C1582  H1585   1.108   .     S
C1582  H1584   1.111   .     S
C1582  H1583   1.114   .     S
O1586  C1587   1.413   .     S
C1587  H1589   1.114   .     S
C1587  H1590   1.108   .     S
C1587  H1588   1.111   .     S
O1591  C1592   1.410   .     S
C1592  H1594   1.114   .     S
C1592  H1593   1.112   .     S
C1592  H1595   1.109   .     S
O1596  C1597   1.414   .     S
C1597  H1599   1.115   .     S
C1597  H788    1.110   1_556 S
C1597  H1420   1.109   1_655 S
O1601  C1602   1.411   .     S
C1602  H1605   1.111   .     S
C1602  H1604   1.109   .     S
C1602  H1603   1.114   .     S
O1606  C1607   1.411   .     S
C1607  H1608   1.109   .     S
C1607  H1609   1.114   .     S
C1607  H1610   1.111   .     S
O1611  C1612   1.412   .     S
C1612  H1614   1.108   .     S
C1612  H1615   1.111   .     S
C1612  H1613   1.113   .     S
O1616  C1617   1.412   .     S
C1617  H1618   1.109   .     S
C1617  H1620   1.111   .     S
C1617  H1619   1.113   .     S
