data_str_m3_o1_o18_pcu_sym.61
_audit_creation_date              2020-01-03
_audit_creation_method            'Materials Studio'
_symmetry_space_group_name_H-M    'P1'
_symmetry_Int_Tables_number       1
_symmetry_cell_setting            triclinic
loop_
_symmetry_equiv_pos_as_xyz
  x,y,z
_cell_length_a                    29.5697
_cell_length_b                    32.0703
_cell_length_c                    30.9378
_cell_angle_alpha                 90.2300
_cell_angle_beta                  66.2365
_cell_angle_gamma                 89.8723
loop_
_atom_site_label
_atom_site_type_symbol
_atom_site_fract_x
_atom_site_fract_y
_atom_site_fract_z
_atom_site_U_iso_or_equiv
_atom_site_adp_type
_atom_site_occupancy
C1     C     0.16676   0.24666   0.24963   0.00000  Uiso   1.00
C2     C     0.14020   0.31226   0.22791   0.00000  Uiso   1.00
C3     C     0.16665   0.04255   0.25049   0.00000  Uiso   1.00
C4     C     0.16668   0.29078   0.24951   0.00000  Uiso   1.00
C5     C     0.32087   0.13884   0.22284   0.00000  Uiso   1.00
C6     C     0.01246   0.19449   0.27716   0.00000  Uiso   1.00
C7     C     0.03546   0.13886   0.22282   0.00000  Uiso   1.00
C8     C     0.29787   0.19447   0.27718   0.00000  Uiso   1.00
C9     C     0.13520   0.16708   0.33851   0.00000  Uiso   1.00
C10    C     0.19814   0.16625   0.16148   0.00000  Uiso   1.00
C11    C     0.11398   0.16977   0.39031   0.00000  Uiso   1.00
C12    C     0.16657   0.08668   0.25037   0.00000  Uiso   1.00
C13    C     0.21936   0.16356   0.10969   0.00000  Uiso   1.00
C14    C     0.05776   0.19939   0.46509   0.00000  Uiso   1.00
C15    C     0.27557   0.13395   0.03491   0.00000  Uiso   1.00
C16    C     0.07007   0.19204   0.41715   0.00000  Uiso   1.00
C17    C     0.26326   0.14129   0.08285   0.00000  Uiso   1.00
C18    C     0.14321   0.15452   0.41252   0.00000  Uiso   1.00
C19    C     0.19013   0.17882   0.08748   0.00000  Uiso   1.00
C20    C     0.13623   0.16866   0.45765   0.00000  Uiso   1.00
C21    C     0.19710   0.16467   0.04235   0.00000  Uiso   1.00
C22    C     0.09019   0.18728   0.48607   0.00000  Uiso   1.00
C23    C     0.11013   0.17848   0.05407   0.00000  Uiso   1.00
C24    C     0.24315   0.14606   0.01393   0.00000  Uiso   1.00
C25    C     0.17318   0.16372   0.47557   0.00000  Uiso   1.00
C26    C     0.16015   0.16961   0.02443   0.00000  Uiso   1.00
C27    C     0.22321   0.15485   0.44593   0.00000  Uiso   1.00
C28    C     0.07669   0.19130   0.03492   0.00000  Uiso   1.00
C29    C     0.25664   0.14203   0.46508   0.00000  Uiso   1.00
C30    C     0.19314   0.31165   0.27147   0.00000  Uiso   1.00
C31    C     0.14020   0.02168   0.22853   0.00000  Uiso   1.00
C32    C     0.19313   0.02108   0.27209   0.00000  Uiso   1.00
F33    F     0.15717   0.20982   0.10918   0.00000  Uiso   1.00
F34    F     0.02360   0.22250   0.30425   0.00000  Uiso   1.00
F35    F     0.06963   0.11100   0.19545   0.00000  Uiso   1.00
F36    F     0.26371   0.22233   0.30455   0.00000  Uiso   1.00
F37    F     0.17617   0.12351   0.39082   0.00000  Uiso   1.00
F38    F     0.01443   0.21927   0.49047   0.00000  Uiso   1.00
F39    F     0.31891   0.11406   0.00953   0.00000  Uiso   1.00
F40    F     0.09208   0.17106   0.10125   0.00000  Uiso   1.00
F41    F     0.24125   0.16227   0.39875   0.00000  Uiso   1.00
F42    F     0.21780   0.04128   0.29464   0.00000  Uiso   1.00
F43    F     0.11554   0.29206   0.20536   0.00000  Uiso   1.00
F44    F     0.30973   0.11083   0.19575   0.00000  Uiso   1.00
H45    H     0.21309   0.29489   0.28869   0.00000  Uiso   1.00
H46    H     0.12024   0.03844   0.21131   0.00000  Uiso   1.00
H47    H     0.02742   0.20939   0.09624   0.00000  Uiso   1.00
H48    H     0.30592   0.12394   0.40376   0.00000  Uiso   1.00
H49    H     0.29941   0.14761   0.12203   0.00000  Uiso   1.00
H50    H     0.03392   0.18573   0.37797   0.00000  Uiso   1.00
N51    N     0.04759   0.16668   0.25001   0.00000  Uiso   1.00
N52    N     0.28574   0.16666   0.24999   0.00000  Uiso   1.00
O53    O     0.12846   0.22775   0.25000   0.00000  Uiso   1.00
O54    O     0.30352   0.12808   0.43637   0.00000  Uiso   1.00
O55    O     0.29455   0.12562   0.10189   0.00000  Uiso   1.00
O56    O     0.03878   0.20772   0.39811   0.00000  Uiso   1.00
O57    O     0.20488   0.10558   0.24999   0.00000  Uiso   1.00
O58    O     0.20490   0.22774   0.25000   0.00000  Uiso   1.00
O59    O     0.12843   0.10559   0.25000   0.00000  Uiso   1.00
O60    O     0.10661   0.16667   0.31612   0.00000  Uiso   1.00
O61    O     0.22672   0.16666   0.18387   0.00000  Uiso   1.00
O62    O     0.18305   0.16666   0.31612   0.00000  Uiso   1.00
O63    O     0.15028   0.16667   0.18388   0.00000  Uiso   1.00
O64    O     0.02981   0.20526   0.06363   0.00000  Uiso   1.00
Zn65   Zn    0.11562   0.16667   0.25000   0.00000  Uiso   1.00
Zn66   Zn    0.21771   0.16666   0.25000   0.00000  Uiso   1.00
C67    C     0.50009   0.24666   0.24963   0.00000  Uiso   1.00
C68    C     0.47353   0.31226   0.22791   0.00000  Uiso   1.00
C69    C     0.49998   0.04255   0.25049   0.00000  Uiso   1.00
C70    C     0.50002   0.29078   0.24951   0.00000  Uiso   1.00
C71    C     0.65421   0.13884   0.22284   0.00000  Uiso   1.00
C72    C     0.34579   0.19449   0.27716   0.00000  Uiso   1.00
C73    C     0.36880   0.13886   0.22282   0.00000  Uiso   1.00
C74    C     0.63120   0.19447   0.27718   0.00000  Uiso   1.00
C75    C     0.46853   0.16708   0.33851   0.00000  Uiso   1.00
C76    C     0.53147   0.16625   0.16148   0.00000  Uiso   1.00
C77    C     0.44731   0.16977   0.39031   0.00000  Uiso   1.00
C78    C     0.49991   0.08668   0.25037   0.00000  Uiso   1.00
C79    C     0.55269   0.16356   0.10969   0.00000  Uiso   1.00
C80    C     0.39110   0.19939   0.46509   0.00000  Uiso   1.00
C81    C     0.60890   0.13395   0.03491   0.00000  Uiso   1.00
C82    C     0.40340   0.19204   0.41715   0.00000  Uiso   1.00
C83    C     0.59660   0.14129   0.08285   0.00000  Uiso   1.00
C84    C     0.47654   0.15452   0.41252   0.00000  Uiso   1.00
C85    C     0.52346   0.17882   0.08748   0.00000  Uiso   1.00
C86    C     0.46956   0.16866   0.45765   0.00000  Uiso   1.00
C87    C     0.53044   0.16467   0.04235   0.00000  Uiso   1.00
C88    C     0.42352   0.18728   0.48607   0.00000  Uiso   1.00
C89    C     0.44346   0.17848   0.05407   0.00000  Uiso   1.00
C90    C     0.57648   0.14606   0.01393   0.00000  Uiso   1.00
C91    C     0.50652   0.16372   0.47557   0.00000  Uiso   1.00
C92    C     0.49348   0.16961   0.02443   0.00000  Uiso   1.00
C93    C     0.55654   0.15485   0.44593   0.00000  Uiso   1.00
C94    C     0.41003   0.19130   0.03492   0.00000  Uiso   1.00
C95    C     0.58997   0.14203   0.46508   0.00000  Uiso   1.00
C96    C     0.52647   0.31165   0.27147   0.00000  Uiso   1.00
C97    C     0.47353   0.02168   0.22853   0.00000  Uiso   1.00
C98    C     0.52647   0.02108   0.27209   0.00000  Uiso   1.00
F99    F     0.49050   0.20982   0.10918   0.00000  Uiso   1.00
F100   F     0.35694   0.22250   0.30425   0.00000  Uiso   1.00
F101   F     0.40296   0.11100   0.19545   0.00000  Uiso   1.00
F102   F     0.59704   0.22233   0.30455   0.00000  Uiso   1.00
F103   F     0.50950   0.12351   0.39082   0.00000  Uiso   1.00
F104   F     0.34776   0.21927   0.49047   0.00000  Uiso   1.00
F105   F     0.65224   0.11406   0.00953   0.00000  Uiso   1.00
F106   F     0.42542   0.17106   0.10125   0.00000  Uiso   1.00
F107   F     0.57458   0.16227   0.39875   0.00000  Uiso   1.00
F108   F     0.55113   0.04128   0.29464   0.00000  Uiso   1.00
F109   F     0.44887   0.29206   0.20536   0.00000  Uiso   1.00
F110   F     0.64306   0.11083   0.19575   0.00000  Uiso   1.00
H111   H     0.54642   0.29489   0.28869   0.00000  Uiso   1.00
H112   H     0.45358   0.03844   0.21131   0.00000  Uiso   1.00
H113   H     0.36075   0.20939   0.09624   0.00000  Uiso   1.00
H114   H     0.63925   0.12394   0.40376   0.00000  Uiso   1.00
H115   H     0.63275   0.14761   0.12203   0.00000  Uiso   1.00
H116   H     0.36725   0.18573   0.37797   0.00000  Uiso   1.00
N117   N     0.38093   0.16668   0.25001   0.00000  Uiso   1.00
N118   N     0.61907   0.16666   0.24999   0.00000  Uiso   1.00
O119   O     0.46179   0.22775   0.25000   0.00000  Uiso   1.00
O120   O     0.63686   0.12808   0.43637   0.00000  Uiso   1.00
O121   O     0.62789   0.12562   0.10189   0.00000  Uiso   1.00
O122   O     0.37211   0.20772   0.39811   0.00000  Uiso   1.00
O123   O     0.53821   0.10558   0.24999   0.00000  Uiso   1.00
O124   O     0.53823   0.22774   0.25000   0.00000  Uiso   1.00
O125   O     0.46177   0.10559   0.25000   0.00000  Uiso   1.00
O126   O     0.43994   0.16667   0.31612   0.00000  Uiso   1.00
O127   O     0.56006   0.16666   0.18387   0.00000  Uiso   1.00
O128   O     0.51639   0.16666   0.31612   0.00000  Uiso   1.00
O129   O     0.48361   0.16667   0.18388   0.00000  Uiso   1.00
O130   O     0.36315   0.20526   0.06363   0.00000  Uiso   1.00
Zn131  Zn    0.44896   0.16667   0.25000   0.00000  Uiso   1.00
Zn132  Zn    0.55104   0.16666   0.25000   0.00000  Uiso   1.00
C133   C     0.83343   0.24666   0.24963   0.00000  Uiso   1.00
C134   C     0.80687   0.31226   0.22791   0.00000  Uiso   1.00
C135   C     0.83332   0.04255   0.25049   0.00000  Uiso   1.00
C136   C     0.83335   0.29078   0.24951   0.00000  Uiso   1.00
C137   C     0.98754   0.13884   0.22284   0.00000  Uiso   1.00
C138   C     0.67913   0.19449   0.27716   0.00000  Uiso   1.00
C139   C     0.70213   0.13886   0.22282   0.00000  Uiso   1.00
C140   C     0.96454   0.19447   0.27718   0.00000  Uiso   1.00
C141   C     0.80186   0.16708   0.33851   0.00000  Uiso   1.00
C142   C     0.86480   0.16625   0.16148   0.00000  Uiso   1.00
C143   C     0.78064   0.16977   0.39031   0.00000  Uiso   1.00
C144   C     0.83324   0.08668   0.25037   0.00000  Uiso   1.00
C145   C     0.88602   0.16356   0.10969   0.00000  Uiso   1.00
C146   C     0.72443   0.19939   0.46509   0.00000  Uiso   1.00
C147   C     0.94224   0.13395   0.03491   0.00000  Uiso   1.00
C148   C     0.73674   0.19204   0.41715   0.00000  Uiso   1.00
C149   C     0.92993   0.14129   0.08285   0.00000  Uiso   1.00
C150   C     0.80987   0.15452   0.41252   0.00000  Uiso   1.00
C151   C     0.85680   0.17882   0.08748   0.00000  Uiso   1.00
C152   C     0.80290   0.16866   0.45765   0.00000  Uiso   1.00
C153   C     0.86377   0.16467   0.04235   0.00000  Uiso   1.00
C154   C     0.75685   0.18728   0.48607   0.00000  Uiso   1.00
C155   C     0.77679   0.17848   0.05407   0.00000  Uiso   1.00
C156   C     0.90981   0.14606   0.01393   0.00000  Uiso   1.00
C157   C     0.83985   0.16372   0.47557   0.00000  Uiso   1.00
C158   C     0.82682   0.16961   0.02443   0.00000  Uiso   1.00
C159   C     0.88987   0.15485   0.44593   0.00000  Uiso   1.00
C160   C     0.74336   0.19130   0.03492   0.00000  Uiso   1.00
C161   C     0.92331   0.14203   0.46508   0.00000  Uiso   1.00
C162   C     0.85980   0.31165   0.27147   0.00000  Uiso   1.00
C163   C     0.80686   0.02168   0.22853   0.00000  Uiso   1.00
C164   C     0.85980   0.02108   0.27209   0.00000  Uiso   1.00
F165   F     0.82383   0.20982   0.10918   0.00000  Uiso   1.00
F166   F     0.69027   0.22250   0.30425   0.00000  Uiso   1.00
F167   F     0.73629   0.11100   0.19545   0.00000  Uiso   1.00
F168   F     0.93037   0.22233   0.30455   0.00000  Uiso   1.00
F169   F     0.84283   0.12351   0.39082   0.00000  Uiso   1.00
F170   F     0.68109   0.21927   0.49047   0.00000  Uiso   1.00
F171   F     0.98557   0.11406   0.00953   0.00000  Uiso   1.00
F172   F     0.75875   0.17106   0.10125   0.00000  Uiso   1.00
F173   F     0.90792   0.16227   0.39875   0.00000  Uiso   1.00
F174   F     0.88446   0.04128   0.29464   0.00000  Uiso   1.00
F175   F     0.78221   0.29206   0.20536   0.00000  Uiso   1.00
F176   F     0.97640   0.11083   0.19575   0.00000  Uiso   1.00
H177   H     0.87976   0.29489   0.28869   0.00000  Uiso   1.00
H178   H     0.78691   0.03844   0.21131   0.00000  Uiso   1.00
H179   H     0.69408   0.20939   0.09624   0.00000  Uiso   1.00
H180   H     0.97258   0.12394   0.40376   0.00000  Uiso   1.00
H181   H     0.96608   0.14761   0.12203   0.00000  Uiso   1.00
H182   H     0.70059   0.18573   0.37797   0.00000  Uiso   1.00
N183   N     0.71426   0.16668   0.25001   0.00000  Uiso   1.00
N184   N     0.95241   0.16666   0.24999   0.00000  Uiso   1.00
O185   O     0.79512   0.22775   0.25000   0.00000  Uiso   1.00
O186   O     0.97019   0.12808   0.43637   0.00000  Uiso   1.00
O187   O     0.96122   0.12562   0.10189   0.00000  Uiso   1.00
O188   O     0.70545   0.20772   0.39811   0.00000  Uiso   1.00
O189   O     0.87154   0.10558   0.24999   0.00000  Uiso   1.00
O190   O     0.87157   0.22774   0.25000   0.00000  Uiso   1.00
O191   O     0.79510   0.10559   0.25000   0.00000  Uiso   1.00
O192   O     0.77328   0.16667   0.31612   0.00000  Uiso   1.00
O193   O     0.89339   0.16666   0.18387   0.00000  Uiso   1.00
O194   O     0.84972   0.16666   0.31612   0.00000  Uiso   1.00
O195   O     0.81695   0.16667   0.18388   0.00000  Uiso   1.00
O196   O     0.69648   0.20526   0.06363   0.00000  Uiso   1.00
Zn197  Zn    0.78229   0.16667   0.25000   0.00000  Uiso   1.00
Zn198  Zn    0.88438   0.16666   0.25000   0.00000  Uiso   1.00
C199   C     0.16676   0.57999   0.24963   0.00000  Uiso   1.00
C200   C     0.14020   0.64559   0.22791   0.00000  Uiso   1.00
C201   C     0.16665   0.37588   0.25049   0.00000  Uiso   1.00
C202   C     0.16668   0.62412   0.24951   0.00000  Uiso   1.00
C203   C     0.32087   0.47217   0.22284   0.00000  Uiso   1.00
C204   C     0.01246   0.52783   0.27716   0.00000  Uiso   1.00
C205   C     0.03546   0.47220   0.22282   0.00000  Uiso   1.00
C206   C     0.29787   0.52780   0.27718   0.00000  Uiso   1.00
C207   C     0.13520   0.50041   0.33851   0.00000  Uiso   1.00
C208   C     0.19814   0.49959   0.16148   0.00000  Uiso   1.00
C209   C     0.11398   0.50311   0.39031   0.00000  Uiso   1.00
C210   C     0.16657   0.42001   0.25037   0.00000  Uiso   1.00
C211   C     0.21936   0.49689   0.10969   0.00000  Uiso   1.00
C212   C     0.05776   0.53272   0.46509   0.00000  Uiso   1.00
C213   C     0.27557   0.46728   0.03491   0.00000  Uiso   1.00
C214   C     0.07007   0.52537   0.41715   0.00000  Uiso   1.00
C215   C     0.26326   0.47462   0.08285   0.00000  Uiso   1.00
C216   C     0.14321   0.48785   0.41252   0.00000  Uiso   1.00
C217   C     0.19013   0.51215   0.08748   0.00000  Uiso   1.00
C218   C     0.13623   0.50200   0.45765   0.00000  Uiso   1.00
C219   C     0.19710   0.49800   0.04235   0.00000  Uiso   1.00
C220   C     0.09019   0.52061   0.48607   0.00000  Uiso   1.00
C221   C     0.11013   0.51182   0.05407   0.00000  Uiso   1.00
C222   C     0.24315   0.47939   0.01393   0.00000  Uiso   1.00
C223   C     0.17318   0.49705   0.47557   0.00000  Uiso   1.00
C224   C     0.16015   0.50295   0.02443   0.00000  Uiso   1.00
C225   C     0.22321   0.48818   0.44593   0.00000  Uiso   1.00
C226   C     0.07669   0.52464   0.03492   0.00000  Uiso   1.00
C227   C     0.25664   0.47536   0.46508   0.00000  Uiso   1.00
C228   C     0.19314   0.64499   0.27147   0.00000  Uiso   1.00
C229   C     0.14020   0.35501   0.22853   0.00000  Uiso   1.00
C230   C     0.19313   0.35441   0.27209   0.00000  Uiso   1.00
F231   F     0.15717   0.54315   0.10918   0.00000  Uiso   1.00
F232   F     0.02360   0.55584   0.30425   0.00000  Uiso   1.00
F233   F     0.06963   0.44433   0.19545   0.00000  Uiso   1.00
F234   F     0.26371   0.55567   0.30455   0.00000  Uiso   1.00
F235   F     0.17617   0.45685   0.39082   0.00000  Uiso   1.00
F236   F     0.01443   0.55261   0.49047   0.00000  Uiso   1.00
F237   F     0.31891   0.44739   0.00953   0.00000  Uiso   1.00
F238   F     0.09208   0.50440   0.10125   0.00000  Uiso   1.00
F239   F     0.24125   0.49560   0.39875   0.00000  Uiso   1.00
F240   F     0.21780   0.37461   0.29464   0.00000  Uiso   1.00
F241   F     0.11554   0.62539   0.20536   0.00000  Uiso   1.00
F242   F     0.30973   0.44416   0.19575   0.00000  Uiso   1.00
H243   H     0.21309   0.62823   0.28869   0.00000  Uiso   1.00
H244   H     0.12024   0.37177   0.21131   0.00000  Uiso   1.00
H245   H     0.02742   0.54272   0.09624   0.00000  Uiso   1.00
H246   H     0.30592   0.45728   0.40376   0.00000  Uiso   1.00
H247   H     0.29941   0.48094   0.12203   0.00000  Uiso   1.00
H248   H     0.03392   0.51906   0.37797   0.00000  Uiso   1.00
N249   N     0.04759   0.50001   0.25001   0.00000  Uiso   1.00
N250   N     0.28574   0.49999   0.24999   0.00000  Uiso   1.00
O251   O     0.12846   0.56108   0.25000   0.00000  Uiso   1.00
O252   O     0.30352   0.46141   0.43637   0.00000  Uiso   1.00
O253   O     0.29455   0.45895   0.10189   0.00000  Uiso   1.00
O254   O     0.03878   0.54105   0.39811   0.00000  Uiso   1.00
O255   O     0.20488   0.43892   0.24999   0.00000  Uiso   1.00
O256   O     0.20490   0.56107   0.25000   0.00000  Uiso   1.00
O257   O     0.12843   0.43893   0.25000   0.00000  Uiso   1.00
O258   O     0.10661   0.50001   0.31612   0.00000  Uiso   1.00
O259   O     0.22672   0.49999   0.18387   0.00000  Uiso   1.00
O260   O     0.18305   0.50000   0.31612   0.00000  Uiso   1.00
O261   O     0.15028   0.50000   0.18388   0.00000  Uiso   1.00
O262   O     0.02981   0.53859   0.06363   0.00000  Uiso   1.00
Zn263  Zn    0.11562   0.50001   0.25000   0.00000  Uiso   1.00
Zn264  Zn    0.21771   0.49999   0.25000   0.00000  Uiso   1.00
C265   C     0.50009   0.57999   0.24963   0.00000  Uiso   1.00
C266   C     0.47353   0.64559   0.22791   0.00000  Uiso   1.00
C267   C     0.49998   0.37588   0.25049   0.00000  Uiso   1.00
C268   C     0.50002   0.62412   0.24951   0.00000  Uiso   1.00
C269   C     0.65421   0.47217   0.22284   0.00000  Uiso   1.00
C270   C     0.34579   0.52783   0.27716   0.00000  Uiso   1.00
C271   C     0.36880   0.47220   0.22282   0.00000  Uiso   1.00
C272   C     0.63120   0.52780   0.27718   0.00000  Uiso   1.00
C273   C     0.46853   0.50041   0.33851   0.00000  Uiso   1.00
C274   C     0.53147   0.49959   0.16148   0.00000  Uiso   1.00
C275   C     0.44731   0.50311   0.39031   0.00000  Uiso   1.00
C276   C     0.49991   0.42001   0.25037   0.00000  Uiso   1.00
C277   C     0.55269   0.49689   0.10969   0.00000  Uiso   1.00
C278   C     0.39110   0.53272   0.46509   0.00000  Uiso   1.00
C279   C     0.60890   0.46728   0.03491   0.00000  Uiso   1.00
C280   C     0.40340   0.52537   0.41715   0.00000  Uiso   1.00
C281   C     0.59660   0.47462   0.08285   0.00000  Uiso   1.00
C282   C     0.47654   0.48785   0.41252   0.00000  Uiso   1.00
C283   C     0.52346   0.51215   0.08748   0.00000  Uiso   1.00
C284   C     0.46956   0.50200   0.45765   0.00000  Uiso   1.00
C285   C     0.53044   0.49800   0.04235   0.00000  Uiso   1.00
C286   C     0.42352   0.52061   0.48607   0.00000  Uiso   1.00
C287   C     0.44346   0.51182   0.05407   0.00000  Uiso   1.00
C288   C     0.57648   0.47939   0.01393   0.00000  Uiso   1.00
C289   C     0.50652   0.49705   0.47557   0.00000  Uiso   1.00
C290   C     0.49348   0.50295   0.02443   0.00000  Uiso   1.00
C291   C     0.55654   0.48818   0.44593   0.00000  Uiso   1.00
C292   C     0.41003   0.52464   0.03492   0.00000  Uiso   1.00
C293   C     0.58997   0.47536   0.46508   0.00000  Uiso   1.00
C294   C     0.52647   0.64499   0.27147   0.00000  Uiso   1.00
C295   C     0.47353   0.35501   0.22853   0.00000  Uiso   1.00
C296   C     0.52647   0.35441   0.27209   0.00000  Uiso   1.00
F297   F     0.49050   0.54315   0.10918   0.00000  Uiso   1.00
F298   F     0.35694   0.55584   0.30425   0.00000  Uiso   1.00
F299   F     0.40296   0.44433   0.19545   0.00000  Uiso   1.00
F300   F     0.59704   0.55567   0.30455   0.00000  Uiso   1.00
F301   F     0.50950   0.45685   0.39082   0.00000  Uiso   1.00
F302   F     0.34776   0.55261   0.49047   0.00000  Uiso   1.00
F303   F     0.65224   0.44739   0.00953   0.00000  Uiso   1.00
F304   F     0.42542   0.50440   0.10125   0.00000  Uiso   1.00
F305   F     0.57458   0.49560   0.39875   0.00000  Uiso   1.00
F306   F     0.55113   0.37461   0.29464   0.00000  Uiso   1.00
F307   F     0.44887   0.62539   0.20536   0.00000  Uiso   1.00
F308   F     0.64306   0.44416   0.19575   0.00000  Uiso   1.00
H309   H     0.54642   0.62823   0.28869   0.00000  Uiso   1.00
H310   H     0.45358   0.37177   0.21131   0.00000  Uiso   1.00
H311   H     0.36075   0.54272   0.09624   0.00000  Uiso   1.00
H312   H     0.63925   0.45728   0.40376   0.00000  Uiso   1.00
H313   H     0.63275   0.48094   0.12203   0.00000  Uiso   1.00
H314   H     0.36725   0.51906   0.37797   0.00000  Uiso   1.00
N315   N     0.38093   0.50001   0.25001   0.00000  Uiso   1.00
N316   N     0.61907   0.49999   0.24999   0.00000  Uiso   1.00
O317   O     0.46179   0.56108   0.25000   0.00000  Uiso   1.00
O318   O     0.63686   0.46141   0.43637   0.00000  Uiso   1.00
O319   O     0.62789   0.45895   0.10189   0.00000  Uiso   1.00
O320   O     0.37211   0.54105   0.39811   0.00000  Uiso   1.00
O321   O     0.53821   0.43892   0.24999   0.00000  Uiso   1.00
O322   O     0.53823   0.56107   0.25000   0.00000  Uiso   1.00
O323   O     0.46177   0.43893   0.25000   0.00000  Uiso   1.00
O324   O     0.43994   0.50001   0.31612   0.00000  Uiso   1.00
O325   O     0.56006   0.49999   0.18387   0.00000  Uiso   1.00
O326   O     0.51639   0.50000   0.31612   0.00000  Uiso   1.00
O327   O     0.48361   0.50000   0.18388   0.00000  Uiso   1.00
O328   O     0.36315   0.53859   0.06363   0.00000  Uiso   1.00
Zn329  Zn    0.44896   0.50001   0.25000   0.00000  Uiso   1.00
Zn330  Zn    0.55104   0.49999   0.25000   0.00000  Uiso   1.00
C331   C     0.83343   0.57999   0.24963   0.00000  Uiso   1.00
C332   C     0.80687   0.64559   0.22791   0.00000  Uiso   1.00
C333   C     0.83332   0.37588   0.25049   0.00000  Uiso   1.00
C334   C     0.83335   0.62412   0.24951   0.00000  Uiso   1.00
C335   C     0.98754   0.47217   0.22284   0.00000  Uiso   1.00
C336   C     0.67913   0.52783   0.27716   0.00000  Uiso   1.00
C337   C     0.70213   0.47220   0.22282   0.00000  Uiso   1.00
C338   C     0.96454   0.52780   0.27718   0.00000  Uiso   1.00
C339   C     0.80186   0.50041   0.33851   0.00000  Uiso   1.00
C340   C     0.86480   0.49959   0.16148   0.00000  Uiso   1.00
C341   C     0.78064   0.50311   0.39031   0.00000  Uiso   1.00
C342   C     0.83324   0.42001   0.25037   0.00000  Uiso   1.00
C343   C     0.88602   0.49689   0.10969   0.00000  Uiso   1.00
C344   C     0.72443   0.53272   0.46509   0.00000  Uiso   1.00
C345   C     0.94224   0.46728   0.03491   0.00000  Uiso   1.00
C346   C     0.73674   0.52537   0.41715   0.00000  Uiso   1.00
C347   C     0.92993   0.47462   0.08285   0.00000  Uiso   1.00
C348   C     0.80987   0.48785   0.41252   0.00000  Uiso   1.00
C349   C     0.85680   0.51215   0.08748   0.00000  Uiso   1.00
C350   C     0.80290   0.50200   0.45765   0.00000  Uiso   1.00
C351   C     0.86377   0.49800   0.04235   0.00000  Uiso   1.00
C352   C     0.75685   0.52061   0.48607   0.00000  Uiso   1.00
C353   C     0.77679   0.51182   0.05407   0.00000  Uiso   1.00
C354   C     0.90981   0.47939   0.01393   0.00000  Uiso   1.00
C355   C     0.83985   0.49705   0.47557   0.00000  Uiso   1.00
C356   C     0.82682   0.50295   0.02443   0.00000  Uiso   1.00
C357   C     0.88987   0.48818   0.44593   0.00000  Uiso   1.00
C358   C     0.74336   0.52464   0.03492   0.00000  Uiso   1.00
C359   C     0.92331   0.47536   0.46508   0.00000  Uiso   1.00
C360   C     0.85980   0.64499   0.27147   0.00000  Uiso   1.00
C361   C     0.80686   0.35501   0.22853   0.00000  Uiso   1.00
C362   C     0.85980   0.35441   0.27209   0.00000  Uiso   1.00
F363   F     0.82383   0.54315   0.10918   0.00000  Uiso   1.00
F364   F     0.69027   0.55584   0.30425   0.00000  Uiso   1.00
F365   F     0.73629   0.44433   0.19545   0.00000  Uiso   1.00
F366   F     0.93037   0.55567   0.30455   0.00000  Uiso   1.00
F367   F     0.84283   0.45685   0.39082   0.00000  Uiso   1.00
F368   F     0.68109   0.55261   0.49047   0.00000  Uiso   1.00
F369   F     0.98557   0.44739   0.00953   0.00000  Uiso   1.00
F370   F     0.75875   0.50440   0.10125   0.00000  Uiso   1.00
F371   F     0.90792   0.49560   0.39875   0.00000  Uiso   1.00
F372   F     0.88446   0.37461   0.29464   0.00000  Uiso   1.00
F373   F     0.78221   0.62539   0.20536   0.00000  Uiso   1.00
F374   F     0.97640   0.44416   0.19575   0.00000  Uiso   1.00
H375   H     0.87976   0.62823   0.28869   0.00000  Uiso   1.00
H376   H     0.78691   0.37177   0.21131   0.00000  Uiso   1.00
H377   H     0.69408   0.54272   0.09624   0.00000  Uiso   1.00
H378   H     0.97258   0.45728   0.40376   0.00000  Uiso   1.00
H379   H     0.96608   0.48094   0.12203   0.00000  Uiso   1.00
H380   H     0.70059   0.51906   0.37797   0.00000  Uiso   1.00
N381   N     0.71426   0.50001   0.25001   0.00000  Uiso   1.00
N382   N     0.95241   0.49999   0.24999   0.00000  Uiso   1.00
O383   O     0.79512   0.56108   0.25000   0.00000  Uiso   1.00
O384   O     0.97019   0.46141   0.43637   0.00000  Uiso   1.00
O385   O     0.96122   0.45895   0.10189   0.00000  Uiso   1.00
O386   O     0.70545   0.54105   0.39811   0.00000  Uiso   1.00
O387   O     0.87154   0.43892   0.24999   0.00000  Uiso   1.00
O388   O     0.87157   0.56107   0.25000   0.00000  Uiso   1.00
O389   O     0.79510   0.43893   0.25000   0.00000  Uiso   1.00
O390   O     0.77328   0.50001   0.31612   0.00000  Uiso   1.00
O391   O     0.89339   0.49999   0.18387   0.00000  Uiso   1.00
O392   O     0.84972   0.50000   0.31612   0.00000  Uiso   1.00
O393   O     0.81695   0.50000   0.18388   0.00000  Uiso   1.00
O394   O     0.69648   0.53859   0.06363   0.00000  Uiso   1.00
Zn395  Zn    0.78229   0.50001   0.25000   0.00000  Uiso   1.00
Zn396  Zn    0.88438   0.49999   0.25000   0.00000  Uiso   1.00
C397   C     0.16676   0.91332   0.24963   0.00000  Uiso   1.00
C398   C     0.14020   0.97892   0.22791   0.00000  Uiso   1.00
C399   C     0.16665   0.70922   0.25049   0.00000  Uiso   1.00
C400   C     0.16668   0.95745   0.24951   0.00000  Uiso   1.00
C401   C     0.32087   0.80551   0.22284   0.00000  Uiso   1.00
C402   C     0.01246   0.86116   0.27716   0.00000  Uiso   1.00
C403   C     0.03546   0.80553   0.22282   0.00000  Uiso   1.00
C404   C     0.29787   0.86114   0.27718   0.00000  Uiso   1.00
C405   C     0.13520   0.83375   0.33851   0.00000  Uiso   1.00
C406   C     0.19814   0.83292   0.16148   0.00000  Uiso   1.00
C407   C     0.11398   0.83644   0.39031   0.00000  Uiso   1.00
C408   C     0.16657   0.75334   0.25037   0.00000  Uiso   1.00
C409   C     0.21936   0.83023   0.10969   0.00000  Uiso   1.00
C410   C     0.05776   0.86605   0.46509   0.00000  Uiso   1.00
C411   C     0.27557   0.80061   0.03491   0.00000  Uiso   1.00
C412   C     0.07007   0.85871   0.41715   0.00000  Uiso   1.00
C413   C     0.26326   0.80796   0.08285   0.00000  Uiso   1.00
C414   C     0.14321   0.82118   0.41252   0.00000  Uiso   1.00
C415   C     0.19013   0.84548   0.08748   0.00000  Uiso   1.00
C416   C     0.13623   0.83533   0.45765   0.00000  Uiso   1.00
C417   C     0.19710   0.83134   0.04235   0.00000  Uiso   1.00
C418   C     0.09019   0.85394   0.48607   0.00000  Uiso   1.00
C419   C     0.11013   0.84515   0.05407   0.00000  Uiso   1.00
C420   C     0.24315   0.81272   0.01393   0.00000  Uiso   1.00
C421   C     0.17318   0.83039   0.47557   0.00000  Uiso   1.00
C422   C     0.16015   0.83628   0.02443   0.00000  Uiso   1.00
C423   C     0.22321   0.82152   0.44593   0.00000  Uiso   1.00
C424   C     0.07669   0.85797   0.03492   0.00000  Uiso   1.00
C425   C     0.25664   0.80870   0.46508   0.00000  Uiso   1.00
C426   C     0.19314   0.97832   0.27147   0.00000  Uiso   1.00
C427   C     0.14020   0.68835   0.22853   0.00000  Uiso   1.00
C428   C     0.19313   0.68774   0.27209   0.00000  Uiso   1.00
F429   F     0.15717   0.87649   0.10918   0.00000  Uiso   1.00
F430   F     0.02360   0.88917   0.30425   0.00000  Uiso   1.00
F431   F     0.06963   0.77767   0.19545   0.00000  Uiso   1.00
F432   F     0.26371   0.88900   0.30455   0.00000  Uiso   1.00
F433   F     0.17617   0.79018   0.39082   0.00000  Uiso   1.00
F434   F     0.01443   0.88594   0.49047   0.00000  Uiso   1.00
F435   F     0.31891   0.78073   0.00953   0.00000  Uiso   1.00
F436   F     0.09208   0.83773   0.10125   0.00000  Uiso   1.00
F437   F     0.24125   0.82894   0.39875   0.00000  Uiso   1.00
F438   F     0.21780   0.70794   0.29464   0.00000  Uiso   1.00
F439   F     0.11554   0.95872   0.20536   0.00000  Uiso   1.00
F440   F     0.30973   0.77750   0.19575   0.00000  Uiso   1.00
H441   H     0.21309   0.96156   0.28869   0.00000  Uiso   1.00
H442   H     0.12024   0.70511   0.21131   0.00000  Uiso   1.00
H443   H     0.02742   0.87606   0.09624   0.00000  Uiso   1.00
H444   H     0.30592   0.79061   0.40376   0.00000  Uiso   1.00
H445   H     0.29941   0.81427   0.12203   0.00000  Uiso   1.00
H446   H     0.03392   0.85239   0.37797   0.00000  Uiso   1.00
N447   N     0.04759   0.83334   0.25001   0.00000  Uiso   1.00
N448   N     0.28574   0.83332   0.24999   0.00000  Uiso   1.00
O449   O     0.12846   0.89442   0.25000   0.00000  Uiso   1.00
O450   O     0.30352   0.79474   0.43637   0.00000  Uiso   1.00
O451   O     0.29455   0.79228   0.10189   0.00000  Uiso   1.00
O452   O     0.03878   0.87438   0.39811   0.00000  Uiso   1.00
O453   O     0.20488   0.77225   0.24999   0.00000  Uiso   1.00
O454   O     0.20490   0.89441   0.25000   0.00000  Uiso   1.00
O455   O     0.12843   0.77226   0.25000   0.00000  Uiso   1.00
O456   O     0.10661   0.83334   0.31612   0.00000  Uiso   1.00
O457   O     0.22672   0.83333   0.18387   0.00000  Uiso   1.00
O458   O     0.18305   0.83333   0.31612   0.00000  Uiso   1.00
O459   O     0.15028   0.83334   0.18388   0.00000  Uiso   1.00
O460   O     0.02981   0.87192   0.06363   0.00000  Uiso   1.00
Zn461  Zn    0.11562   0.83334   0.25000   0.00000  Uiso   1.00
Zn462  Zn    0.21771   0.83333   0.25000   0.00000  Uiso   1.00
C463   C     0.50009   0.91332   0.24963   0.00000  Uiso   1.00
C464   C     0.47353   0.97892   0.22791   0.00000  Uiso   1.00
C465   C     0.49998   0.70922   0.25049   0.00000  Uiso   1.00
C466   C     0.50002   0.95745   0.24951   0.00000  Uiso   1.00
C467   C     0.65421   0.80551   0.22284   0.00000  Uiso   1.00
C468   C     0.34579   0.86116   0.27716   0.00000  Uiso   1.00
C469   C     0.36880   0.80553   0.22282   0.00000  Uiso   1.00
C470   C     0.63120   0.86114   0.27718   0.00000  Uiso   1.00
C471   C     0.46853   0.83375   0.33851   0.00000  Uiso   1.00
C472   C     0.53147   0.83292   0.16148   0.00000  Uiso   1.00
C473   C     0.44731   0.83644   0.39031   0.00000  Uiso   1.00
C474   C     0.49991   0.75334   0.25037   0.00000  Uiso   1.00
C475   C     0.55269   0.83023   0.10969   0.00000  Uiso   1.00
C476   C     0.39110   0.86605   0.46509   0.00000  Uiso   1.00
C477   C     0.60890   0.80061   0.03491   0.00000  Uiso   1.00
C478   C     0.40340   0.85871   0.41715   0.00000  Uiso   1.00
C479   C     0.59660   0.80796   0.08285   0.00000  Uiso   1.00
C480   C     0.47654   0.82118   0.41252   0.00000  Uiso   1.00
C481   C     0.52346   0.84548   0.08748   0.00000  Uiso   1.00
C482   C     0.46956   0.83533   0.45765   0.00000  Uiso   1.00
C483   C     0.53044   0.83134   0.04235   0.00000  Uiso   1.00
C484   C     0.42352   0.85394   0.48607   0.00000  Uiso   1.00
C485   C     0.44346   0.84515   0.05407   0.00000  Uiso   1.00
C486   C     0.57648   0.81272   0.01393   0.00000  Uiso   1.00
C487   C     0.50652   0.83039   0.47557   0.00000  Uiso   1.00
C488   C     0.49348   0.83628   0.02443   0.00000  Uiso   1.00
C489   C     0.55654   0.82152   0.44593   0.00000  Uiso   1.00
C490   C     0.41003   0.85797   0.03492   0.00000  Uiso   1.00
C491   C     0.58997   0.80870   0.46508   0.00000  Uiso   1.00
C492   C     0.52647   0.97832   0.27147   0.00000  Uiso   1.00
C493   C     0.47353   0.68835   0.22853   0.00000  Uiso   1.00
C494   C     0.52647   0.68774   0.27209   0.00000  Uiso   1.00
F495   F     0.49050   0.87649   0.10918   0.00000  Uiso   1.00
F496   F     0.35694   0.88917   0.30425   0.00000  Uiso   1.00
F497   F     0.40296   0.77767   0.19545   0.00000  Uiso   1.00
F498   F     0.59704   0.88900   0.30455   0.00000  Uiso   1.00
F499   F     0.50950   0.79018   0.39082   0.00000  Uiso   1.00
F500   F     0.34776   0.88594   0.49047   0.00000  Uiso   1.00
F501   F     0.65224   0.78073   0.00953   0.00000  Uiso   1.00
F502   F     0.42542   0.83773   0.10125   0.00000  Uiso   1.00
F503   F     0.57458   0.82894   0.39875   0.00000  Uiso   1.00
F504   F     0.55113   0.70794   0.29464   0.00000  Uiso   1.00
F505   F     0.44887   0.95872   0.20536   0.00000  Uiso   1.00
F506   F     0.64306   0.77750   0.19575   0.00000  Uiso   1.00
H507   H     0.54642   0.96156   0.28869   0.00000  Uiso   1.00
H508   H     0.45358   0.70511   0.21131   0.00000  Uiso   1.00
H509   H     0.36075   0.87606   0.09624   0.00000  Uiso   1.00
H510   H     0.63925   0.79061   0.40376   0.00000  Uiso   1.00
H511   H     0.63275   0.81427   0.12203   0.00000  Uiso   1.00
H512   H     0.36725   0.85239   0.37797   0.00000  Uiso   1.00
N513   N     0.38093   0.83334   0.25001   0.00000  Uiso   1.00
N514   N     0.61907   0.83332   0.24999   0.00000  Uiso   1.00
O515   O     0.46179   0.89442   0.25000   0.00000  Uiso   1.00
O516   O     0.63686   0.79474   0.43637   0.00000  Uiso   1.00
O517   O     0.62789   0.79228   0.10189   0.00000  Uiso   1.00
O518   O     0.37211   0.87438   0.39811   0.00000  Uiso   1.00
O519   O     0.53821   0.77225   0.24999   0.00000  Uiso   1.00
O520   O     0.53823   0.89441   0.25000   0.00000  Uiso   1.00
O521   O     0.46177   0.77226   0.25000   0.00000  Uiso   1.00
O522   O     0.43994   0.83334   0.31612   0.00000  Uiso   1.00
O523   O     0.56006   0.83333   0.18387   0.00000  Uiso   1.00
O524   O     0.51639   0.83333   0.31612   0.00000  Uiso   1.00
O525   O     0.48361   0.83334   0.18388   0.00000  Uiso   1.00
O526   O     0.36315   0.87192   0.06363   0.00000  Uiso   1.00
Zn527  Zn    0.44896   0.83334   0.25000   0.00000  Uiso   1.00
Zn528  Zn    0.55104   0.83333   0.25000   0.00000  Uiso   1.00
C529   C     0.83343   0.91332   0.24963   0.00000  Uiso   1.00
C530   C     0.80687   0.97892   0.22791   0.00000  Uiso   1.00
C531   C     0.83332   0.70922   0.25049   0.00000  Uiso   1.00
C532   C     0.83335   0.95745   0.24951   0.00000  Uiso   1.00
C533   C     0.98754   0.80551   0.22284   0.00000  Uiso   1.00
C534   C     0.67913   0.86116   0.27716   0.00000  Uiso   1.00
C535   C     0.70213   0.80553   0.22282   0.00000  Uiso   1.00
C536   C     0.96454   0.86114   0.27718   0.00000  Uiso   1.00
C537   C     0.80186   0.83375   0.33851   0.00000  Uiso   1.00
C538   C     0.86480   0.83292   0.16148   0.00000  Uiso   1.00
C539   C     0.78064   0.83644   0.39031   0.00000  Uiso   1.00
C540   C     0.83324   0.75334   0.25037   0.00000  Uiso   1.00
C541   C     0.88602   0.83023   0.10969   0.00000  Uiso   1.00
C542   C     0.72443   0.86605   0.46509   0.00000  Uiso   1.00
C543   C     0.94224   0.80061   0.03491   0.00000  Uiso   1.00
C544   C     0.73674   0.85871   0.41715   0.00000  Uiso   1.00
C545   C     0.92993   0.80796   0.08285   0.00000  Uiso   1.00
C546   C     0.80987   0.82118   0.41252   0.00000  Uiso   1.00
C547   C     0.85680   0.84548   0.08748   0.00000  Uiso   1.00
C548   C     0.80290   0.83533   0.45765   0.00000  Uiso   1.00
C549   C     0.86377   0.83134   0.04235   0.00000  Uiso   1.00
C550   C     0.75685   0.85394   0.48607   0.00000  Uiso   1.00
C551   C     0.77679   0.84515   0.05407   0.00000  Uiso   1.00
C552   C     0.90981   0.81272   0.01393   0.00000  Uiso   1.00
C553   C     0.83985   0.83039   0.47557   0.00000  Uiso   1.00
C554   C     0.82682   0.83628   0.02443   0.00000  Uiso   1.00
C555   C     0.88987   0.82152   0.44593   0.00000  Uiso   1.00
C556   C     0.74336   0.85797   0.03492   0.00000  Uiso   1.00
C557   C     0.92331   0.80870   0.46508   0.00000  Uiso   1.00
C558   C     0.85980   0.97832   0.27147   0.00000  Uiso   1.00
C559   C     0.80686   0.68835   0.22853   0.00000  Uiso   1.00
C560   C     0.85980   0.68774   0.27209   0.00000  Uiso   1.00
F561   F     0.82383   0.87649   0.10918   0.00000  Uiso   1.00
F562   F     0.69027   0.88917   0.30425   0.00000  Uiso   1.00
F563   F     0.73629   0.77767   0.19545   0.00000  Uiso   1.00
F564   F     0.93037   0.88900   0.30455   0.00000  Uiso   1.00
F565   F     0.84283   0.79018   0.39082   0.00000  Uiso   1.00
F566   F     0.68109   0.88594   0.49047   0.00000  Uiso   1.00
F567   F     0.98557   0.78073   0.00953   0.00000  Uiso   1.00
F568   F     0.75875   0.83773   0.10125   0.00000  Uiso   1.00
F569   F     0.90792   0.82894   0.39875   0.00000  Uiso   1.00
F570   F     0.88446   0.70794   0.29464   0.00000  Uiso   1.00
F571   F     0.78221   0.95872   0.20536   0.00000  Uiso   1.00
F572   F     0.97640   0.77750   0.19575   0.00000  Uiso   1.00
H573   H     0.87976   0.96156   0.28869   0.00000  Uiso   1.00
H574   H     0.78691   0.70511   0.21131   0.00000  Uiso   1.00
H575   H     0.69408   0.87606   0.09624   0.00000  Uiso   1.00
H576   H     0.97258   0.79061   0.40376   0.00000  Uiso   1.00
H577   H     0.96608   0.81427   0.12203   0.00000  Uiso   1.00
H578   H     0.70059   0.85239   0.37797   0.00000  Uiso   1.00
N579   N     0.71426   0.83334   0.25001   0.00000  Uiso   1.00
N580   N     0.95241   0.83332   0.24999   0.00000  Uiso   1.00
O581   O     0.79512   0.89442   0.25000   0.00000  Uiso   1.00
O582   O     0.97019   0.79474   0.43637   0.00000  Uiso   1.00
O583   O     0.96122   0.79228   0.10189   0.00000  Uiso   1.00
O584   O     0.70545   0.87438   0.39811   0.00000  Uiso   1.00
O585   O     0.87154   0.77225   0.24999   0.00000  Uiso   1.00
O586   O     0.87157   0.89441   0.25000   0.00000  Uiso   1.00
O587   O     0.79510   0.77226   0.25000   0.00000  Uiso   1.00
O588   O     0.77328   0.83334   0.31612   0.00000  Uiso   1.00
O589   O     0.89339   0.83333   0.18387   0.00000  Uiso   1.00
O590   O     0.84972   0.83333   0.31612   0.00000  Uiso   1.00
O591   O     0.81695   0.83334   0.18388   0.00000  Uiso   1.00
O592   O     0.69648   0.87192   0.06363   0.00000  Uiso   1.00
Zn593  Zn    0.78229   0.83334   0.25000   0.00000  Uiso   1.00
Zn594  Zn    0.88438   0.83333   0.25000   0.00000  Uiso   1.00
C595   C     0.16676   0.24666   0.74963   0.00000  Uiso   1.00
C596   C     0.14020   0.31226   0.72791   0.00000  Uiso   1.00
C597   C     0.16665   0.04255   0.75049   0.00000  Uiso   1.00
C598   C     0.16668   0.29078   0.74951   0.00000  Uiso   1.00
C599   C     0.32087   0.13884   0.72284   0.00000  Uiso   1.00
C600   C     0.01246   0.19449   0.77716   0.00000  Uiso   1.00
C601   C     0.03546   0.13886   0.72282   0.00000  Uiso   1.00
C602   C     0.29787   0.19447   0.77718   0.00000  Uiso   1.00
C603   C     0.13520   0.16708   0.83851   0.00000  Uiso   1.00
C604   C     0.19814   0.16625   0.66148   0.00000  Uiso   1.00
C605   C     0.11398   0.16977   0.89031   0.00000  Uiso   1.00
C606   C     0.16657   0.08668   0.75037   0.00000  Uiso   1.00
C607   C     0.21936   0.16356   0.60969   0.00000  Uiso   1.00
C608   C     0.05776   0.19939   0.96509   0.00000  Uiso   1.00
C609   C     0.27557   0.13395   0.53491   0.00000  Uiso   1.00
C610   C     0.07007   0.19204   0.91715   0.00000  Uiso   1.00
C611   C     0.26326   0.14129   0.58285   0.00000  Uiso   1.00
C612   C     0.14321   0.15452   0.91252   0.00000  Uiso   1.00
C613   C     0.19013   0.17882   0.58748   0.00000  Uiso   1.00
C614   C     0.13623   0.16866   0.95765   0.00000  Uiso   1.00
C615   C     0.19710   0.16467   0.54235   0.00000  Uiso   1.00
C616   C     0.09019   0.18728   0.98607   0.00000  Uiso   1.00
C617   C     0.11013   0.17848   0.55407   0.00000  Uiso   1.00
C618   C     0.24315   0.14606   0.51393   0.00000  Uiso   1.00
C619   C     0.17318   0.16372   0.97557   0.00000  Uiso   1.00
C620   C     0.16015   0.16961   0.52443   0.00000  Uiso   1.00
C621   C     0.22321   0.15485   0.94593   0.00000  Uiso   1.00
C622   C     0.07669   0.19130   0.53492   0.00000  Uiso   1.00
C623   C     0.25664   0.14203   0.96508   0.00000  Uiso   1.00
C624   C     0.19314   0.31165   0.77147   0.00000  Uiso   1.00
C625   C     0.14020   0.02168   0.72853   0.00000  Uiso   1.00
C626   C     0.19313   0.02108   0.77209   0.00000  Uiso   1.00
F627   F     0.15717   0.20982   0.60918   0.00000  Uiso   1.00
F628   F     0.02360   0.22250   0.80425   0.00000  Uiso   1.00
F629   F     0.06963   0.11100   0.69545   0.00000  Uiso   1.00
F630   F     0.26371   0.22233   0.80455   0.00000  Uiso   1.00
F631   F     0.17617   0.12351   0.89082   0.00000  Uiso   1.00
F632   F     0.01443   0.21927   0.99047   0.00000  Uiso   1.00
F633   F     0.31891   0.11406   0.50953   0.00000  Uiso   1.00
F634   F     0.09208   0.17106   0.60125   0.00000  Uiso   1.00
F635   F     0.24125   0.16227   0.89875   0.00000  Uiso   1.00
F636   F     0.21780   0.04128   0.79464   0.00000  Uiso   1.00
F637   F     0.11554   0.29206   0.70536   0.00000  Uiso   1.00
F638   F     0.30973   0.11083   0.69575   0.00000  Uiso   1.00
H639   H     0.21309   0.29489   0.78869   0.00000  Uiso   1.00
H640   H     0.12024   0.03844   0.71131   0.00000  Uiso   1.00
H641   H     0.02742   0.20939   0.59624   0.00000  Uiso   1.00
H642   H     0.30592   0.12394   0.90376   0.00000  Uiso   1.00
H643   H     0.29941   0.14761   0.62203   0.00000  Uiso   1.00
H644   H     0.03392   0.18573   0.87797   0.00000  Uiso   1.00
N645   N     0.04759   0.16668   0.75001   0.00000  Uiso   1.00
N646   N     0.28574   0.16666   0.74999   0.00000  Uiso   1.00
O647   O     0.12846   0.22775   0.75000   0.00000  Uiso   1.00
O648   O     0.30352   0.12808   0.93637   0.00000  Uiso   1.00
O649   O     0.29455   0.12562   0.60189   0.00000  Uiso   1.00
O650   O     0.03878   0.20772   0.89811   0.00000  Uiso   1.00
O651   O     0.20488   0.10558   0.74999   0.00000  Uiso   1.00
O652   O     0.20490   0.22774   0.75000   0.00000  Uiso   1.00
O653   O     0.12843   0.10559   0.75000   0.00000  Uiso   1.00
O654   O     0.10661   0.16667   0.81612   0.00000  Uiso   1.00
O655   O     0.22672   0.16666   0.68387   0.00000  Uiso   1.00
O656   O     0.18305   0.16666   0.81612   0.00000  Uiso   1.00
O657   O     0.15028   0.16667   0.68388   0.00000  Uiso   1.00
O658   O     0.02981   0.20526   0.56363   0.00000  Uiso   1.00
Zn659  Zn    0.11562   0.16667   0.75000   0.00000  Uiso   1.00
Zn660  Zn    0.21771   0.16666   0.75000   0.00000  Uiso   1.00
C661   C     0.50009   0.24666   0.74963   0.00000  Uiso   1.00
C662   C     0.47353   0.31226   0.72791   0.00000  Uiso   1.00
C663   C     0.49998   0.04255   0.75049   0.00000  Uiso   1.00
C664   C     0.50002   0.29078   0.74951   0.00000  Uiso   1.00
C665   C     0.65421   0.13884   0.72284   0.00000  Uiso   1.00
C666   C     0.34579   0.19449   0.77716   0.00000  Uiso   1.00
C667   C     0.36880   0.13886   0.72282   0.00000  Uiso   1.00
C668   C     0.63120   0.19447   0.77718   0.00000  Uiso   1.00
C669   C     0.46853   0.16708   0.83851   0.00000  Uiso   1.00
C670   C     0.53147   0.16625   0.66148   0.00000  Uiso   1.00
C671   C     0.44731   0.16977   0.89031   0.00000  Uiso   1.00
C672   C     0.49991   0.08668   0.75037   0.00000  Uiso   1.00
C673   C     0.55269   0.16356   0.60969   0.00000  Uiso   1.00
C674   C     0.39110   0.19939   0.96509   0.00000  Uiso   1.00
C675   C     0.60890   0.13395   0.53491   0.00000  Uiso   1.00
C676   C     0.40340   0.19204   0.91715   0.00000  Uiso   1.00
C677   C     0.59660   0.14129   0.58285   0.00000  Uiso   1.00
C678   C     0.47654   0.15452   0.91252   0.00000  Uiso   1.00
C679   C     0.52346   0.17882   0.58748   0.00000  Uiso   1.00
C680   C     0.46956   0.16866   0.95765   0.00000  Uiso   1.00
C681   C     0.53044   0.16467   0.54235   0.00000  Uiso   1.00
C682   C     0.42352   0.18728   0.98607   0.00000  Uiso   1.00
C683   C     0.44346   0.17848   0.55407   0.00000  Uiso   1.00
C684   C     0.57648   0.14606   0.51393   0.00000  Uiso   1.00
C685   C     0.50652   0.16372   0.97557   0.00000  Uiso   1.00
C686   C     0.49348   0.16961   0.52443   0.00000  Uiso   1.00
C687   C     0.55654   0.15485   0.94593   0.00000  Uiso   1.00
C688   C     0.41003   0.19130   0.53492   0.00000  Uiso   1.00
C689   C     0.58997   0.14203   0.96508   0.00000  Uiso   1.00
C690   C     0.52647   0.31165   0.77147   0.00000  Uiso   1.00
C691   C     0.47353   0.02168   0.72853   0.00000  Uiso   1.00
C692   C     0.52647   0.02108   0.77209   0.00000  Uiso   1.00
F693   F     0.49050   0.20982   0.60918   0.00000  Uiso   1.00
F694   F     0.35694   0.22250   0.80425   0.00000  Uiso   1.00
F695   F     0.40296   0.11100   0.69545   0.00000  Uiso   1.00
F696   F     0.59704   0.22233   0.80455   0.00000  Uiso   1.00
F697   F     0.50950   0.12351   0.89082   0.00000  Uiso   1.00
F698   F     0.34776   0.21927   0.99047   0.00000  Uiso   1.00
F699   F     0.65224   0.11406   0.50953   0.00000  Uiso   1.00
F700   F     0.42542   0.17106   0.60125   0.00000  Uiso   1.00
F701   F     0.57458   0.16227   0.89875   0.00000  Uiso   1.00
F702   F     0.55113   0.04128   0.79464   0.00000  Uiso   1.00
F703   F     0.44887   0.29206   0.70536   0.00000  Uiso   1.00
F704   F     0.64306   0.11083   0.69575   0.00000  Uiso   1.00
H705   H     0.54642   0.29489   0.78869   0.00000  Uiso   1.00
H706   H     0.45358   0.03844   0.71131   0.00000  Uiso   1.00
H707   H     0.36075   0.20939   0.59624   0.00000  Uiso   1.00
H708   H     0.63925   0.12394   0.90376   0.00000  Uiso   1.00
H709   H     0.63275   0.14761   0.62203   0.00000  Uiso   1.00
H710   H     0.36725   0.18573   0.87797   0.00000  Uiso   1.00
N711   N     0.38093   0.16668   0.75001   0.00000  Uiso   1.00
N712   N     0.61907   0.16666   0.74999   0.00000  Uiso   1.00
O713   O     0.46179   0.22775   0.75000   0.00000  Uiso   1.00
O714   O     0.63686   0.12808   0.93637   0.00000  Uiso   1.00
O715   O     0.62789   0.12562   0.60189   0.00000  Uiso   1.00
O716   O     0.37211   0.20772   0.89811   0.00000  Uiso   1.00
O717   O     0.53821   0.10558   0.74999   0.00000  Uiso   1.00
O718   O     0.53823   0.22774   0.75000   0.00000  Uiso   1.00
O719   O     0.46177   0.10559   0.75000   0.00000  Uiso   1.00
O720   O     0.43994   0.16667   0.81612   0.00000  Uiso   1.00
O721   O     0.56006   0.16666   0.68387   0.00000  Uiso   1.00
O722   O     0.51639   0.16666   0.81612   0.00000  Uiso   1.00
O723   O     0.48361   0.16667   0.68388   0.00000  Uiso   1.00
O724   O     0.36315   0.20526   0.56363   0.00000  Uiso   1.00
Zn725  Zn    0.44896   0.16667   0.75000   0.00000  Uiso   1.00
Zn726  Zn    0.55104   0.16666   0.75000   0.00000  Uiso   1.00
C727   C     0.83343   0.24666   0.74963   0.00000  Uiso   1.00
C728   C     0.80687   0.31226   0.72791   0.00000  Uiso   1.00
C729   C     0.83332   0.04255   0.75049   0.00000  Uiso   1.00
C730   C     0.83335   0.29078   0.74951   0.00000  Uiso   1.00
C731   C     0.98754   0.13884   0.72284   0.00000  Uiso   1.00
C732   C     0.67913   0.19449   0.77716   0.00000  Uiso   1.00
C733   C     0.70213   0.13886   0.72282   0.00000  Uiso   1.00
C734   C     0.96454   0.19447   0.77718   0.00000  Uiso   1.00
C735   C     0.80186   0.16708   0.83851   0.00000  Uiso   1.00
C736   C     0.86480   0.16625   0.66148   0.00000  Uiso   1.00
C737   C     0.78064   0.16977   0.89031   0.00000  Uiso   1.00
C738   C     0.83324   0.08668   0.75037   0.00000  Uiso   1.00
C739   C     0.88602   0.16356   0.60969   0.00000  Uiso   1.00
C740   C     0.72443   0.19939   0.96509   0.00000  Uiso   1.00
C741   C     0.94224   0.13395   0.53491   0.00000  Uiso   1.00
C742   C     0.73674   0.19204   0.91715   0.00000  Uiso   1.00
C743   C     0.92993   0.14129   0.58285   0.00000  Uiso   1.00
C744   C     0.80987   0.15452   0.91252   0.00000  Uiso   1.00
C745   C     0.85680   0.17882   0.58748   0.00000  Uiso   1.00
C746   C     0.80290   0.16866   0.95765   0.00000  Uiso   1.00
C747   C     0.86377   0.16467   0.54235   0.00000  Uiso   1.00
C748   C     0.75685   0.18728   0.98607   0.00000  Uiso   1.00
C749   C     0.77679   0.17848   0.55407   0.00000  Uiso   1.00
C750   C     0.90981   0.14606   0.51393   0.00000  Uiso   1.00
C751   C     0.83985   0.16372   0.97557   0.00000  Uiso   1.00
C752   C     0.82682   0.16961   0.52443   0.00000  Uiso   1.00
C753   C     0.88987   0.15485   0.94593   0.00000  Uiso   1.00
C754   C     0.74336   0.19130   0.53492   0.00000  Uiso   1.00
C755   C     0.92331   0.14203   0.96508   0.00000  Uiso   1.00
C756   C     0.85980   0.31165   0.77147   0.00000  Uiso   1.00
C757   C     0.80686   0.02168   0.72853   0.00000  Uiso   1.00
C758   C     0.85980   0.02108   0.77209   0.00000  Uiso   1.00
F759   F     0.82383   0.20982   0.60918   0.00000  Uiso   1.00
F760   F     0.69027   0.22250   0.80425   0.00000  Uiso   1.00
F761   F     0.73629   0.11100   0.69545   0.00000  Uiso   1.00
F762   F     0.93037   0.22233   0.80455   0.00000  Uiso   1.00
F763   F     0.84283   0.12351   0.89082   0.00000  Uiso   1.00
F764   F     0.68109   0.21927   0.99047   0.00000  Uiso   1.00
F765   F     0.98557   0.11406   0.50953   0.00000  Uiso   1.00
F766   F     0.75875   0.17106   0.60125   0.00000  Uiso   1.00
F767   F     0.90792   0.16227   0.89875   0.00000  Uiso   1.00
F768   F     0.88446   0.04128   0.79464   0.00000  Uiso   1.00
F769   F     0.78221   0.29206   0.70536   0.00000  Uiso   1.00
F770   F     0.97640   0.11083   0.69575   0.00000  Uiso   1.00
H771   H     0.87976   0.29489   0.78869   0.00000  Uiso   1.00
H772   H     0.78691   0.03844   0.71131   0.00000  Uiso   1.00
H773   H     0.69408   0.20939   0.59624   0.00000  Uiso   1.00
H774   H     0.97258   0.12394   0.90376   0.00000  Uiso   1.00
H775   H     0.96608   0.14761   0.62203   0.00000  Uiso   1.00
H776   H     0.70059   0.18573   0.87797   0.00000  Uiso   1.00
N777   N     0.71426   0.16668   0.75001   0.00000  Uiso   1.00
N778   N     0.95241   0.16666   0.74999   0.00000  Uiso   1.00
O779   O     0.79512   0.22775   0.75000   0.00000  Uiso   1.00
O780   O     0.97019   0.12808   0.93637   0.00000  Uiso   1.00
O781   O     0.96122   0.12562   0.60189   0.00000  Uiso   1.00
O782   O     0.70545   0.20772   0.89811   0.00000  Uiso   1.00
O783   O     0.87154   0.10558   0.74999   0.00000  Uiso   1.00
O784   O     0.87157   0.22774   0.75000   0.00000  Uiso   1.00
O785   O     0.79510   0.10559   0.75000   0.00000  Uiso   1.00
O786   O     0.77328   0.16667   0.81612   0.00000  Uiso   1.00
O787   O     0.89339   0.16666   0.68387   0.00000  Uiso   1.00
O788   O     0.84972   0.16666   0.81612   0.00000  Uiso   1.00
O789   O     0.81695   0.16667   0.68388   0.00000  Uiso   1.00
O790   O     0.69648   0.20526   0.56363   0.00000  Uiso   1.00
Zn791  Zn    0.78229   0.16667   0.75000   0.00000  Uiso   1.00
Zn792  Zn    0.88438   0.16666   0.75000   0.00000  Uiso   1.00
C793   C     0.16676   0.57999   0.74963   0.00000  Uiso   1.00
C794   C     0.14020   0.64559   0.72791   0.00000  Uiso   1.00
C795   C     0.16665   0.37588   0.75049   0.00000  Uiso   1.00
C796   C     0.16668   0.62412   0.74951   0.00000  Uiso   1.00
C797   C     0.32087   0.47217   0.72284   0.00000  Uiso   1.00
C798   C     0.01246   0.52783   0.77716   0.00000  Uiso   1.00
C799   C     0.03546   0.47220   0.72282   0.00000  Uiso   1.00
C800   C     0.29787   0.52780   0.77718   0.00000  Uiso   1.00
C801   C     0.13520   0.50041   0.83851   0.00000  Uiso   1.00
C802   C     0.19814   0.49959   0.66148   0.00000  Uiso   1.00
C803   C     0.11398   0.50311   0.89031   0.00000  Uiso   1.00
C804   C     0.16657   0.42001   0.75037   0.00000  Uiso   1.00
C805   C     0.21936   0.49689   0.60969   0.00000  Uiso   1.00
C806   C     0.05776   0.53272   0.96509   0.00000  Uiso   1.00
C807   C     0.27557   0.46728   0.53491   0.00000  Uiso   1.00
C808   C     0.07007   0.52537   0.91715   0.00000  Uiso   1.00
C809   C     0.26326   0.47462   0.58285   0.00000  Uiso   1.00
C810   C     0.14321   0.48785   0.91252   0.00000  Uiso   1.00
C811   C     0.19013   0.51215   0.58748   0.00000  Uiso   1.00
C812   C     0.13623   0.50200   0.95765   0.00000  Uiso   1.00
C813   C     0.19710   0.49800   0.54235   0.00000  Uiso   1.00
C814   C     0.09019   0.52061   0.98607   0.00000  Uiso   1.00
C815   C     0.11013   0.51182   0.55407   0.00000  Uiso   1.00
C816   C     0.24315   0.47939   0.51393   0.00000  Uiso   1.00
C817   C     0.17318   0.49705   0.97557   0.00000  Uiso   1.00
C818   C     0.16015   0.50295   0.52443   0.00000  Uiso   1.00
C819   C     0.22321   0.48818   0.94593   0.00000  Uiso   1.00
C820   C     0.07669   0.52464   0.53492   0.00000  Uiso   1.00
C821   C     0.25664   0.47536   0.96508   0.00000  Uiso   1.00
C822   C     0.19314   0.64499   0.77147   0.00000  Uiso   1.00
C823   C     0.14020   0.35501   0.72853   0.00000  Uiso   1.00
C824   C     0.19313   0.35441   0.77209   0.00000  Uiso   1.00
F825   F     0.15717   0.54315   0.60918   0.00000  Uiso   1.00
F826   F     0.02360   0.55584   0.80425   0.00000  Uiso   1.00
F827   F     0.06963   0.44433   0.69545   0.00000  Uiso   1.00
F828   F     0.26371   0.55567   0.80455   0.00000  Uiso   1.00
F829   F     0.17617   0.45685   0.89082   0.00000  Uiso   1.00
F830   F     0.01443   0.55261   0.99047   0.00000  Uiso   1.00
F831   F     0.31891   0.44739   0.50953   0.00000  Uiso   1.00
F832   F     0.09208   0.50440   0.60125   0.00000  Uiso   1.00
F833   F     0.24125   0.49560   0.89875   0.00000  Uiso   1.00
F834   F     0.21780   0.37461   0.79464   0.00000  Uiso   1.00
F835   F     0.11554   0.62539   0.70536   0.00000  Uiso   1.00
F836   F     0.30973   0.44416   0.69575   0.00000  Uiso   1.00
H837   H     0.21309   0.62823   0.78869   0.00000  Uiso   1.00
H838   H     0.12024   0.37177   0.71131   0.00000  Uiso   1.00
H839   H     0.02742   0.54272   0.59624   0.00000  Uiso   1.00
H840   H     0.30592   0.45728   0.90376   0.00000  Uiso   1.00
H841   H     0.29941   0.48094   0.62203   0.00000  Uiso   1.00
H842   H     0.03392   0.51906   0.87797   0.00000  Uiso   1.00
N843   N     0.04759   0.50001   0.75001   0.00000  Uiso   1.00
N844   N     0.28574   0.49999   0.74999   0.00000  Uiso   1.00
O845   O     0.12846   0.56108   0.75000   0.00000  Uiso   1.00
O846   O     0.30352   0.46141   0.93637   0.00000  Uiso   1.00
O847   O     0.29455   0.45895   0.60189   0.00000  Uiso   1.00
O848   O     0.03878   0.54105   0.89811   0.00000  Uiso   1.00
O849   O     0.20488   0.43892   0.74999   0.00000  Uiso   1.00
O850   O     0.20490   0.56107   0.75000   0.00000  Uiso   1.00
O851   O     0.12843   0.43893   0.75000   0.00000  Uiso   1.00
O852   O     0.10661   0.50001   0.81612   0.00000  Uiso   1.00
O853   O     0.22672   0.49999   0.68387   0.00000  Uiso   1.00
O854   O     0.18305   0.50000   0.81612   0.00000  Uiso   1.00
O855   O     0.15028   0.50000   0.68388   0.00000  Uiso   1.00
O856   O     0.02981   0.53859   0.56363   0.00000  Uiso   1.00
Zn857  Zn    0.11562   0.50001   0.75000   0.00000  Uiso   1.00
Zn858  Zn    0.21771   0.49999   0.75000   0.00000  Uiso   1.00
C859   C     0.50009   0.57999   0.74963   0.00000  Uiso   1.00
C860   C     0.47353   0.64559   0.72791   0.00000  Uiso   1.00
C861   C     0.49998   0.37588   0.75049   0.00000  Uiso   1.00
C862   C     0.50002   0.62412   0.74951   0.00000  Uiso   1.00
C863   C     0.65421   0.47217   0.72284   0.00000  Uiso   1.00
C864   C     0.34579   0.52783   0.77716   0.00000  Uiso   1.00
C865   C     0.36880   0.47220   0.72282   0.00000  Uiso   1.00
C866   C     0.63120   0.52780   0.77718   0.00000  Uiso   1.00
C867   C     0.46853   0.50041   0.83851   0.00000  Uiso   1.00
C868   C     0.53147   0.49959   0.66148   0.00000  Uiso   1.00
C869   C     0.44731   0.50311   0.89031   0.00000  Uiso   1.00
C870   C     0.49991   0.42001   0.75037   0.00000  Uiso   1.00
C871   C     0.55269   0.49689   0.60969   0.00000  Uiso   1.00
C872   C     0.39110   0.53272   0.96509   0.00000  Uiso   1.00
C873   C     0.60890   0.46728   0.53491   0.00000  Uiso   1.00
C874   C     0.40340   0.52537   0.91715   0.00000  Uiso   1.00
C875   C     0.59660   0.47462   0.58285   0.00000  Uiso   1.00
C876   C     0.47654   0.48785   0.91252   0.00000  Uiso   1.00
C877   C     0.52346   0.51215   0.58748   0.00000  Uiso   1.00
C878   C     0.46956   0.50200   0.95765   0.00000  Uiso   1.00
C879   C     0.53044   0.49800   0.54235   0.00000  Uiso   1.00
C880   C     0.42352   0.52061   0.98607   0.00000  Uiso   1.00
C881   C     0.44346   0.51182   0.55407   0.00000  Uiso   1.00
C882   C     0.57648   0.47939   0.51393   0.00000  Uiso   1.00
C883   C     0.50652   0.49705   0.97557   0.00000  Uiso   1.00
C884   C     0.49348   0.50295   0.52443   0.00000  Uiso   1.00
C885   C     0.55654   0.48818   0.94593   0.00000  Uiso   1.00
C886   C     0.41003   0.52464   0.53492   0.00000  Uiso   1.00
C887   C     0.58997   0.47536   0.96508   0.00000  Uiso   1.00
C888   C     0.52647   0.64499   0.77147   0.00000  Uiso   1.00
C889   C     0.47353   0.35501   0.72853   0.00000  Uiso   1.00
C890   C     0.52647   0.35441   0.77209   0.00000  Uiso   1.00
F891   F     0.49050   0.54315   0.60918   0.00000  Uiso   1.00
F892   F     0.35694   0.55584   0.80425   0.00000  Uiso   1.00
F893   F     0.40296   0.44433   0.69545   0.00000  Uiso   1.00
F894   F     0.59704   0.55567   0.80455   0.00000  Uiso   1.00
F895   F     0.50950   0.45685   0.89082   0.00000  Uiso   1.00
F896   F     0.34776   0.55261   0.99047   0.00000  Uiso   1.00
F897   F     0.65224   0.44739   0.50953   0.00000  Uiso   1.00
F898   F     0.42542   0.50440   0.60125   0.00000  Uiso   1.00
F899   F     0.57458   0.49560   0.89875   0.00000  Uiso   1.00
F900   F     0.55113   0.37461   0.79464   0.00000  Uiso   1.00
F901   F     0.44887   0.62539   0.70536   0.00000  Uiso   1.00
F902   F     0.64306   0.44416   0.69575   0.00000  Uiso   1.00
H903   H     0.54642   0.62823   0.78869   0.00000  Uiso   1.00
H904   H     0.45358   0.37177   0.71131   0.00000  Uiso   1.00
H905   H     0.36075   0.54272   0.59624   0.00000  Uiso   1.00
H906   H     0.63925   0.45728   0.90376   0.00000  Uiso   1.00
H907   H     0.63275   0.48094   0.62203   0.00000  Uiso   1.00
H908   H     0.36725   0.51906   0.87797   0.00000  Uiso   1.00
N909   N     0.38093   0.50001   0.75001   0.00000  Uiso   1.00
N910   N     0.61907   0.49999   0.74999   0.00000  Uiso   1.00
O911   O     0.46179   0.56108   0.75000   0.00000  Uiso   1.00
O912   O     0.63686   0.46141   0.93637   0.00000  Uiso   1.00
O913   O     0.62789   0.45895   0.60189   0.00000  Uiso   1.00
O914   O     0.37211   0.54105   0.89811   0.00000  Uiso   1.00
O915   O     0.53821   0.43892   0.74999   0.00000  Uiso   1.00
O916   O     0.53823   0.56107   0.75000   0.00000  Uiso   1.00
O917   O     0.46177   0.43893   0.75000   0.00000  Uiso   1.00
O918   O     0.43994   0.50001   0.81612   0.00000  Uiso   1.00
O919   O     0.56006   0.49999   0.68387   0.00000  Uiso   1.00
O920   O     0.51639   0.50000   0.81612   0.00000  Uiso   1.00
O921   O     0.48361   0.50000   0.68388   0.00000  Uiso   1.00
O922   O     0.36315   0.53859   0.56363   0.00000  Uiso   1.00
Zn923  Zn    0.44896   0.50001   0.75000   0.00000  Uiso   1.00
Zn924  Zn    0.55104   0.49999   0.75000   0.00000  Uiso   1.00
C925   C     0.83343   0.57999   0.74963   0.00000  Uiso   1.00
C926   C     0.80687   0.64559   0.72791   0.00000  Uiso   1.00
C927   C     0.83332   0.37588   0.75049   0.00000  Uiso   1.00
C928   C     0.83335   0.62412   0.74951   0.00000  Uiso   1.00
C929   C     0.98754   0.47217   0.72284   0.00000  Uiso   1.00
C930   C     0.67913   0.52783   0.77716   0.00000  Uiso   1.00
C931   C     0.70213   0.47220   0.72282   0.00000  Uiso   1.00
C932   C     0.96454   0.52780   0.77718   0.00000  Uiso   1.00
C933   C     0.80186   0.50041   0.83851   0.00000  Uiso   1.00
C934   C     0.86480   0.49959   0.66148   0.00000  Uiso   1.00
C935   C     0.78064   0.50311   0.89031   0.00000  Uiso   1.00
C936   C     0.83324   0.42001   0.75037   0.00000  Uiso   1.00
C937   C     0.88602   0.49689   0.60969   0.00000  Uiso   1.00
C938   C     0.72443   0.53272   0.96509   0.00000  Uiso   1.00
C939   C     0.94224   0.46728   0.53491   0.00000  Uiso   1.00
C940   C     0.73674   0.52537   0.91715   0.00000  Uiso   1.00
C941   C     0.92993   0.47462   0.58285   0.00000  Uiso   1.00
C942   C     0.80987   0.48785   0.91252   0.00000  Uiso   1.00
C943   C     0.85680   0.51215   0.58748   0.00000  Uiso   1.00
C944   C     0.80290   0.50200   0.95765   0.00000  Uiso   1.00
C945   C     0.86377   0.49800   0.54235   0.00000  Uiso   1.00
C946   C     0.75685   0.52061   0.98607   0.00000  Uiso   1.00
C947   C     0.77679   0.51182   0.55407   0.00000  Uiso   1.00
C948   C     0.90981   0.47939   0.51393   0.00000  Uiso   1.00
C949   C     0.83985   0.49705   0.97557   0.00000  Uiso   1.00
C950   C     0.82682   0.50295   0.52443   0.00000  Uiso   1.00
C951   C     0.88987   0.48818   0.94593   0.00000  Uiso   1.00
C952   C     0.74336   0.52464   0.53492   0.00000  Uiso   1.00
C953   C     0.92331   0.47536   0.96508   0.00000  Uiso   1.00
C954   C     0.85980   0.64499   0.77147   0.00000  Uiso   1.00
C955   C     0.80686   0.35501   0.72853   0.00000  Uiso   1.00
C956   C     0.85980   0.35441   0.77209   0.00000  Uiso   1.00
F957   F     0.82383   0.54315   0.60918   0.00000  Uiso   1.00
F958   F     0.69027   0.55584   0.80425   0.00000  Uiso   1.00
F959   F     0.73629   0.44433   0.69545   0.00000  Uiso   1.00
F960   F     0.93037   0.55567   0.80455   0.00000  Uiso   1.00
F961   F     0.84283   0.45685   0.89082   0.00000  Uiso   1.00
F962   F     0.68109   0.55261   0.99047   0.00000  Uiso   1.00
F963   F     0.98557   0.44739   0.50953   0.00000  Uiso   1.00
F964   F     0.75875   0.50440   0.60125   0.00000  Uiso   1.00
F965   F     0.90792   0.49560   0.89875   0.00000  Uiso   1.00
F966   F     0.88446   0.37461   0.79464   0.00000  Uiso   1.00
F967   F     0.78221   0.62539   0.70536   0.00000  Uiso   1.00
F968   F     0.97640   0.44416   0.69575   0.00000  Uiso   1.00
H969   H     0.87976   0.62823   0.78869   0.00000  Uiso   1.00
H970   H     0.78691   0.37177   0.71131   0.00000  Uiso   1.00
H971   H     0.69408   0.54272   0.59624   0.00000  Uiso   1.00
H972   H     0.97258   0.45728   0.90376   0.00000  Uiso   1.00
H973   H     0.96608   0.48094   0.62203   0.00000  Uiso   1.00
H974   H     0.70059   0.51906   0.87797   0.00000  Uiso   1.00
N975   N     0.71426   0.50001   0.75001   0.00000  Uiso   1.00
N976   N     0.95241   0.49999   0.74999   0.00000  Uiso   1.00
O977   O     0.79512   0.56108   0.75000   0.00000  Uiso   1.00
O978   O     0.97019   0.46141   0.93637   0.00000  Uiso   1.00
O979   O     0.96122   0.45895   0.60189   0.00000  Uiso   1.00
O980   O     0.70545   0.54105   0.89811   0.00000  Uiso   1.00
O981   O     0.87154   0.43892   0.74999   0.00000  Uiso   1.00
O982   O     0.87157   0.56107   0.75000   0.00000  Uiso   1.00
O983   O     0.79510   0.43893   0.75000   0.00000  Uiso   1.00
O984   O     0.77328   0.50001   0.81612   0.00000  Uiso   1.00
O985   O     0.89339   0.49999   0.68387   0.00000  Uiso   1.00
O986   O     0.84972   0.50000   0.81612   0.00000  Uiso   1.00
O987   O     0.81695   0.50000   0.68388   0.00000  Uiso   1.00
O988   O     0.69648   0.53859   0.56363   0.00000  Uiso   1.00
Zn989  Zn    0.78229   0.50001   0.75000   0.00000  Uiso   1.00
Zn990  Zn    0.88438   0.49999   0.75000   0.00000  Uiso   1.00
C991   C     0.16676   0.91332   0.74963   0.00000  Uiso   1.00
C992   C     0.14020   0.97892   0.72791   0.00000  Uiso   1.00
C993   C     0.16665   0.70922   0.75049   0.00000  Uiso   1.00
C994   C     0.16668   0.95745   0.74951   0.00000  Uiso   1.00
C995   C     0.32087   0.80551   0.72284   0.00000  Uiso   1.00
C996   C     0.01246   0.86116   0.77716   0.00000  Uiso   1.00
C997   C     0.03546   0.80553   0.72282   0.00000  Uiso   1.00
C998   C     0.29787   0.86114   0.77718   0.00000  Uiso   1.00
C999   C     0.13520   0.83375   0.83851   0.00000  Uiso   1.00
C1000  C     0.19814   0.83292   0.66148   0.00000  Uiso   1.00
C1001  C     0.11398   0.83644   0.89031   0.00000  Uiso   1.00
C1002  C     0.16657   0.75334   0.75037   0.00000  Uiso   1.00
C1003  C     0.21936   0.83023   0.60969   0.00000  Uiso   1.00
C1004  C     0.05776   0.86605   0.96509   0.00000  Uiso   1.00
C1005  C     0.27557   0.80061   0.53491   0.00000  Uiso   1.00
C1006  C     0.07007   0.85871   0.91715   0.00000  Uiso   1.00
C1007  C     0.26326   0.80796   0.58285   0.00000  Uiso   1.00
C1008  C     0.14321   0.82118   0.91252   0.00000  Uiso   1.00
C1009  C     0.19013   0.84548   0.58748   0.00000  Uiso   1.00
C1010  C     0.13623   0.83533   0.95765   0.00000  Uiso   1.00
C1011  C     0.19710   0.83134   0.54235   0.00000  Uiso   1.00
C1012  C     0.09019   0.85394   0.98607   0.00000  Uiso   1.00
C1013  C     0.11013   0.84515   0.55407   0.00000  Uiso   1.00
C1014  C     0.24315   0.81272   0.51393   0.00000  Uiso   1.00
C1015  C     0.17318   0.83039   0.97557   0.00000  Uiso   1.00
C1016  C     0.16015   0.83628   0.52443   0.00000  Uiso   1.00
C1017  C     0.22321   0.82152   0.94593   0.00000  Uiso   1.00
C1018  C     0.07669   0.85797   0.53492   0.00000  Uiso   1.00
C1019  C     0.25664   0.80870   0.96508   0.00000  Uiso   1.00
C1020  C     0.19314   0.97832   0.77147   0.00000  Uiso   1.00
C1021  C     0.14020   0.68835   0.72853   0.00000  Uiso   1.00
C1022  C     0.19313   0.68774   0.77209   0.00000  Uiso   1.00
F1023  F     0.15717   0.87649   0.60918   0.00000  Uiso   1.00
F1024  F     0.02360   0.88917   0.80425   0.00000  Uiso   1.00
F1025  F     0.06963   0.77767   0.69545   0.00000  Uiso   1.00
F1026  F     0.26371   0.88900   0.80455   0.00000  Uiso   1.00
F1027  F     0.17617   0.79018   0.89082   0.00000  Uiso   1.00
F1028  F     0.01443   0.88594   0.99047   0.00000  Uiso   1.00
F1029  F     0.31891   0.78073   0.50953   0.00000  Uiso   1.00
F1030  F     0.09208   0.83773   0.60125   0.00000  Uiso   1.00
F1031  F     0.24125   0.82894   0.89875   0.00000  Uiso   1.00
F1032  F     0.21780   0.70794   0.79464   0.00000  Uiso   1.00
F1033  F     0.11554   0.95872   0.70536   0.00000  Uiso   1.00
F1034  F     0.30973   0.77750   0.69575   0.00000  Uiso   1.00
H1035  H     0.21309   0.96156   0.78869   0.00000  Uiso   1.00
H1036  H     0.12024   0.70511   0.71131   0.00000  Uiso   1.00
H1037  H     0.02742   0.87606   0.59624   0.00000  Uiso   1.00
H1038  H     0.30592   0.79061   0.90376   0.00000  Uiso   1.00
H1039  H     0.29941   0.81427   0.62203   0.00000  Uiso   1.00
H1040  H     0.03392   0.85239   0.87797   0.00000  Uiso   1.00
N1041  N     0.04759   0.83334   0.75001   0.00000  Uiso   1.00
N1042  N     0.28574   0.83332   0.74999   0.00000  Uiso   1.00
O1043  O     0.12846   0.89442   0.75000   0.00000  Uiso   1.00
O1044  O     0.30352   0.79474   0.93637   0.00000  Uiso   1.00
O1045  O     0.29455   0.79228   0.60189   0.00000  Uiso   1.00
O1046  O     0.03878   0.87438   0.89811   0.00000  Uiso   1.00
O1047  O     0.20488   0.77225   0.74999   0.00000  Uiso   1.00
O1048  O     0.20490   0.89441   0.75000   0.00000  Uiso   1.00
O1049  O     0.12843   0.77226   0.75000   0.00000  Uiso   1.00
O1050  O     0.10661   0.83334   0.81612   0.00000  Uiso   1.00
O1051  O     0.22672   0.83333   0.68387   0.00000  Uiso   1.00
O1052  O     0.18305   0.83333   0.81612   0.00000  Uiso   1.00
O1053  O     0.15028   0.83334   0.68388   0.00000  Uiso   1.00
O1054  O     0.02981   0.87192   0.56363   0.00000  Uiso   1.00
Zn1055 Zn    0.11562   0.83334   0.75000   0.00000  Uiso   1.00
Zn1056 Zn    0.21771   0.83333   0.75000   0.00000  Uiso   1.00
C1057  C     0.50009   0.91332   0.74963   0.00000  Uiso   1.00
C1058  C     0.47353   0.97892   0.72791   0.00000  Uiso   1.00
C1059  C     0.49998   0.70922   0.75049   0.00000  Uiso   1.00
C1060  C     0.50002   0.95745   0.74951   0.00000  Uiso   1.00
C1061  C     0.65421   0.80551   0.72284   0.00000  Uiso   1.00
C1062  C     0.34579   0.86116   0.77716   0.00000  Uiso   1.00
C1063  C     0.36880   0.80553   0.72282   0.00000  Uiso   1.00
C1064  C     0.63120   0.86114   0.77718   0.00000  Uiso   1.00
C1065  C     0.46853   0.83375   0.83851   0.00000  Uiso   1.00
C1066  C     0.53147   0.83292   0.66148   0.00000  Uiso   1.00
C1067  C     0.44731   0.83644   0.89031   0.00000  Uiso   1.00
C1068  C     0.49991   0.75334   0.75037   0.00000  Uiso   1.00
C1069  C     0.55269   0.83023   0.60969   0.00000  Uiso   1.00
C1070  C     0.39110   0.86605   0.96509   0.00000  Uiso   1.00
C1071  C     0.60890   0.80061   0.53491   0.00000  Uiso   1.00
C1072  C     0.40340   0.85871   0.91715   0.00000  Uiso   1.00
C1073  C     0.59660   0.80796   0.58285   0.00000  Uiso   1.00
C1074  C     0.47654   0.82118   0.91252   0.00000  Uiso   1.00
C1075  C     0.52346   0.84548   0.58748   0.00000  Uiso   1.00
C1076  C     0.46956   0.83533   0.95765   0.00000  Uiso   1.00
C1077  C     0.53044   0.83134   0.54235   0.00000  Uiso   1.00
C1078  C     0.42352   0.85394   0.98607   0.00000  Uiso   1.00
C1079  C     0.44346   0.84515   0.55407   0.00000  Uiso   1.00
C1080  C     0.57648   0.81272   0.51393   0.00000  Uiso   1.00
C1081  C     0.50652   0.83039   0.97557   0.00000  Uiso   1.00
C1082  C     0.49348   0.83628   0.52443   0.00000  Uiso   1.00
C1083  C     0.55654   0.82152   0.94593   0.00000  Uiso   1.00
C1084  C     0.41003   0.85797   0.53492   0.00000  Uiso   1.00
C1085  C     0.58997   0.80870   0.96508   0.00000  Uiso   1.00
C1086  C     0.52647   0.97832   0.77147   0.00000  Uiso   1.00
C1087  C     0.47353   0.68835   0.72853   0.00000  Uiso   1.00
C1088  C     0.52647   0.68774   0.77209   0.00000  Uiso   1.00
F1089  F     0.49050   0.87649   0.60918   0.00000  Uiso   1.00
F1090  F     0.35694   0.88917   0.80425   0.00000  Uiso   1.00
F1091  F     0.40296   0.77767   0.69545   0.00000  Uiso   1.00
F1092  F     0.59704   0.88900   0.80455   0.00000  Uiso   1.00
F1093  F     0.50950   0.79018   0.89082   0.00000  Uiso   1.00
F1094  F     0.34776   0.88594   0.99047   0.00000  Uiso   1.00
F1095  F     0.65224   0.78073   0.50953   0.00000  Uiso   1.00
F1096  F     0.42542   0.83773   0.60125   0.00000  Uiso   1.00
F1097  F     0.57458   0.82894   0.89875   0.00000  Uiso   1.00
F1098  F     0.55113   0.70794   0.79464   0.00000  Uiso   1.00
F1099  F     0.44887   0.95872   0.70536   0.00000  Uiso   1.00
F1100  F     0.64306   0.77750   0.69575   0.00000  Uiso   1.00
H1101  H     0.54642   0.96156   0.78869   0.00000  Uiso   1.00
H1102  H     0.45358   0.70511   0.71131   0.00000  Uiso   1.00
H1103  H     0.36075   0.87606   0.59624   0.00000  Uiso   1.00
H1104  H     0.63925   0.79061   0.90376   0.00000  Uiso   1.00
H1105  H     0.63275   0.81427   0.62203   0.00000  Uiso   1.00
H1106  H     0.36725   0.85239   0.87797   0.00000  Uiso   1.00
N1107  N     0.38093   0.83334   0.75001   0.00000  Uiso   1.00
N1108  N     0.61907   0.83332   0.74999   0.00000  Uiso   1.00
O1109  O     0.46179   0.89442   0.75000   0.00000  Uiso   1.00
O1110  O     0.63686   0.79474   0.93637   0.00000  Uiso   1.00
O1111  O     0.62789   0.79228   0.60189   0.00000  Uiso   1.00
O1112  O     0.37211   0.87438   0.89811   0.00000  Uiso   1.00
O1113  O     0.53821   0.77225   0.74999   0.00000  Uiso   1.00
O1114  O     0.53823   0.89441   0.75000   0.00000  Uiso   1.00
O1115  O     0.46177   0.77226   0.75000   0.00000  Uiso   1.00
O1116  O     0.43994   0.83334   0.81612   0.00000  Uiso   1.00
O1117  O     0.56006   0.83333   0.68387   0.00000  Uiso   1.00
O1118  O     0.51639   0.83333   0.81612   0.00000  Uiso   1.00
O1119  O     0.48361   0.83334   0.68388   0.00000  Uiso   1.00
O1120  O     0.36315   0.87192   0.56363   0.00000  Uiso   1.00
Zn1121 Zn    0.44896   0.83334   0.75000   0.00000  Uiso   1.00
Zn1122 Zn    0.55104   0.83333   0.75000   0.00000  Uiso   1.00
C1123  C     0.83343   0.91332   0.74963   0.00000  Uiso   1.00
C1124  C     0.80687   0.97892   0.72791   0.00000  Uiso   1.00
C1125  C     0.83332   0.70922   0.75049   0.00000  Uiso   1.00
C1126  C     0.83335   0.95745   0.74951   0.00000  Uiso   1.00
C1127  C     0.98754   0.80551   0.72284   0.00000  Uiso   1.00
C1128  C     0.67913   0.86116   0.77716   0.00000  Uiso   1.00
C1129  C     0.70213   0.80553   0.72282   0.00000  Uiso   1.00
C1130  C     0.96454   0.86114   0.77718   0.00000  Uiso   1.00
C1131  C     0.80186   0.83375   0.83851   0.00000  Uiso   1.00
C1132  C     0.86480   0.83292   0.66148   0.00000  Uiso   1.00
C1133  C     0.78064   0.83644   0.89031   0.00000  Uiso   1.00
C1134  C     0.83324   0.75334   0.75037   0.00000  Uiso   1.00
C1135  C     0.88602   0.83023   0.60969   0.00000  Uiso   1.00
C1136  C     0.72443   0.86605   0.96509   0.00000  Uiso   1.00
C1137  C     0.94224   0.80061   0.53491   0.00000  Uiso   1.00
C1138  C     0.73674   0.85871   0.91715   0.00000  Uiso   1.00
C1139  C     0.92993   0.80796   0.58285   0.00000  Uiso   1.00
C1140  C     0.80987   0.82118   0.91252   0.00000  Uiso   1.00
C1141  C     0.85680   0.84548   0.58748   0.00000  Uiso   1.00
C1142  C     0.80290   0.83533   0.95765   0.00000  Uiso   1.00
C1143  C     0.86377   0.83134   0.54235   0.00000  Uiso   1.00
C1144  C     0.75685   0.85394   0.98607   0.00000  Uiso   1.00
C1145  C     0.77679   0.84515   0.55407   0.00000  Uiso   1.00
C1146  C     0.90981   0.81272   0.51393   0.00000  Uiso   1.00
C1147  C     0.83985   0.83039   0.97557   0.00000  Uiso   1.00
C1148  C     0.82682   0.83628   0.52443   0.00000  Uiso   1.00
C1149  C     0.88987   0.82152   0.94593   0.00000  Uiso   1.00
C1150  C     0.74336   0.85797   0.53492   0.00000  Uiso   1.00
C1151  C     0.92331   0.80870   0.96508   0.00000  Uiso   1.00
C1152  C     0.85980   0.97832   0.77147   0.00000  Uiso   1.00
C1153  C     0.80686   0.68835   0.72853   0.00000  Uiso   1.00
C1154  C     0.85980   0.68774   0.77209   0.00000  Uiso   1.00
F1155  F     0.82383   0.87649   0.60918   0.00000  Uiso   1.00
F1156  F     0.69027   0.88917   0.80425   0.00000  Uiso   1.00
F1157  F     0.73629   0.77767   0.69545   0.00000  Uiso   1.00
F1158  F     0.93037   0.88900   0.80455   0.00000  Uiso   1.00
F1159  F     0.84283   0.79018   0.89082   0.00000  Uiso   1.00
F1160  F     0.68109   0.88594   0.99047   0.00000  Uiso   1.00
F1161  F     0.98557   0.78073   0.50953   0.00000  Uiso   1.00
F1162  F     0.75875   0.83773   0.60125   0.00000  Uiso   1.00
F1163  F     0.90792   0.82894   0.89875   0.00000  Uiso   1.00
F1164  F     0.88446   0.70794   0.79464   0.00000  Uiso   1.00
F1165  F     0.78221   0.95872   0.70536   0.00000  Uiso   1.00
F1166  F     0.97640   0.77750   0.69575   0.00000  Uiso   1.00
H1167  H     0.87976   0.96156   0.78869   0.00000  Uiso   1.00
H1168  H     0.78691   0.70511   0.71131   0.00000  Uiso   1.00
H1169  H     0.69408   0.87606   0.59624   0.00000  Uiso   1.00
H1170  H     0.97258   0.79061   0.90376   0.00000  Uiso   1.00
H1171  H     0.96608   0.81427   0.62203   0.00000  Uiso   1.00
H1172  H     0.70059   0.85239   0.87797   0.00000  Uiso   1.00
N1173  N     0.71426   0.83334   0.75001   0.00000  Uiso   1.00
N1174  N     0.95241   0.83332   0.74999   0.00000  Uiso   1.00
O1175  O     0.79512   0.89442   0.75000   0.00000  Uiso   1.00
O1176  O     0.97019   0.79474   0.93637   0.00000  Uiso   1.00
O1177  O     0.96122   0.79228   0.60189   0.00000  Uiso   1.00
O1178  O     0.70545   0.87438   0.89811   0.00000  Uiso   1.00
O1179  O     0.87154   0.77225   0.74999   0.00000  Uiso   1.00
O1180  O     0.87157   0.89441   0.75000   0.00000  Uiso   1.00
O1181  O     0.79510   0.77226   0.75000   0.00000  Uiso   1.00
O1182  O     0.77328   0.83334   0.81612   0.00000  Uiso   1.00
O1183  O     0.89339   0.83333   0.68387   0.00000  Uiso   1.00
O1184  O     0.84972   0.83333   0.81612   0.00000  Uiso   1.00
O1185  O     0.81695   0.83334   0.68388   0.00000  Uiso   1.00
O1186  O     0.69648   0.87192   0.56363   0.00000  Uiso   1.00
Zn1187 Zn    0.78229   0.83334   0.75000   0.00000  Uiso   1.00
Zn1188 Zn    0.88438   0.83333   0.75000   0.00000  Uiso   1.00
loop_
_geom_bond_atom_site_label_1
_geom_bond_atom_site_label_2
_geom_bond_distance
_geom_bond_site_symmetry_2
_ccdc_geom_bond_type
C1     O58     1.283   .     A
C1     C4      1.415   .     S
C1     O53     1.282   .     A
C2     C4      1.399   .     A
C2     F43     1.359   .     S
C2     C229    1.371   .     S
C3     C31     1.396   .     A
C3     C32     1.399   .     A
C3     C12     1.415   .     S
C4     C30     1.396   .     A
C5     N52     1.366   .     A
C5     F44     1.355   .     S
C5     C73     1.417   .     S
C6     N51     1.366   .     A
C6     F34     1.355   .     S
C6     C140    1.417   1_455 S
C7     N51     1.368   .     A
C7     F35     1.355   .     S
C7     C137    1.417   1_455 S
C8     N52     1.368   .     A
C8     F36     1.355   .     S
C8     C72     1.417   .     S
C9     O60     1.291   .     A
C9     C11     1.469   .     S
C9     O62     1.301   .     A
C10    O63     1.301   .     A
C10    O61     1.291   .     A
C10    C13     1.469   .     S
C11    C18     1.392   .     A
C11    C16     1.417   .     A
C12    O57     1.282   .     A
C12    O59     1.283   .     A
C13    C17     1.417   .     A
C13    C19     1.392   .     A
C14    F38     1.359   .     S
C14    C22     1.412   .     A
C14    C16     1.396   .     A
C15    F39     1.359   .     S
C15    C24     1.412   .     A
C15    C17     1.396   .     A
C16    O56     1.377   .     S
C17    O55     1.377   .     S
C18    C20     1.400   .     A
C18    F37     1.361   .     S
C19    C21     1.400   .     A
C19    F33     1.361   .     S
C20    C25     1.419   .     A
C20    C22     1.418   .     A
C21    C26     1.419   .     A
C21    C24     1.418   .     A
C22    C622    1.404   .     S
C23    C28     1.403   .     A
C23    C26     1.419   .     A
C23    F40     1.359   .     S
C24    C623    1.404   1_554 S
C25    C27     1.419   .     A
C25    C620    1.413   .     S
C26    C619    1.413   1_554 S
C27    F41     1.359   .     S
C27    C29     1.403   .     A
C28    O64     1.383   .     S
C28    C616    1.404   1_554 S
C29    O54     1.383   .     S
C29    C618    1.404   .     S
C30    H45     1.084   .     S
C30    C230    1.371   .     S
C31    H46     1.084   .     S
C31    C398    1.371   1_545 S
C32    F42     1.359   .     S
C32    C426    1.371   1_545 S
H47    O64     0.991   .     S
H48    O54     0.991   .     S
H49    O55     0.988   .     S
H50    O56     0.988   .     S
N51    Zn65    2.012   .     S
N52    Zn66    2.012   .     S
O53    Zn65    1.996   .     S
O57    Zn66    1.996   .     S
O58    Zn66    1.994   .     S
O59    Zn65    1.994   .     S
O60    Zn65    1.954   .     S
O61    Zn66    1.954   .     S
O62    Zn66    1.883   .     S
O63    Zn65    1.883   .     S
C67    O124    1.283   .     A
C67    C70     1.415   .     S
C67    O119    1.282   .     A
C68    C70     1.399   .     A
C68    F109    1.359   .     S
C68    C295    1.371   .     S
C69    C97     1.396   .     A
C69    C98     1.399   .     A
C69    C78     1.415   .     S
C70    C96     1.396   .     A
C71    N118    1.366   .     A
C71    F110    1.355   .     S
C71    C139    1.417   .     S
C72    N117    1.366   .     A
C72    F100    1.355   .     S
C73    N117    1.368   .     A
C73    F101    1.355   .     S
C74    N118    1.368   .     A
C74    F102    1.355   .     S
C74    C138    1.417   .     S
C75    O126    1.291   .     A
C75    C77     1.469   .     S
C75    O128    1.301   .     A
C76    O129    1.301   .     A
C76    O127    1.291   .     A
C76    C79     1.469   .     S
C77    C84     1.392   .     A
C77    C82     1.417   .     A
C78    O123    1.282   .     A
C78    O125    1.283   .     A
C79    C83     1.417   .     A
C79    C85     1.392   .     A
C80    F104    1.359   .     S
C80    C88     1.412   .     A
C80    C82     1.396   .     A
C81    F105    1.359   .     S
C81    C90     1.412   .     A
C81    C83     1.396   .     A
C82    O122    1.377   .     S
C83    O121    1.377   .     S
C84    C86     1.400   .     A
C84    F103    1.361   .     S
C85    C87     1.400   .     A
C85    F99     1.361   .     S
C86    C91     1.419   .     A
C86    C88     1.418   .     A
C87    C92     1.419   .     A
C87    C90     1.418   .     A
C88    C688    1.404   .     S
C89    C94     1.403   .     A
C89    C92     1.419   .     A
C89    F106    1.359   .     S
C90    C689    1.404   1_554 S
C91    C93     1.419   .     A
C91    C686    1.413   .     S
C92    C685    1.413   1_554 S
C93    F107    1.359   .     S
C93    C95     1.403   .     A
C94    O130    1.383   .     S
C94    C682    1.404   1_554 S
C95    O120    1.383   .     S
C95    C684    1.404   .     S
C96    H111    1.084   .     S
C96    C296    1.371   .     S
C97    H112    1.084   .     S
C97    C464    1.371   1_545 S
C98    F108    1.359   .     S
C98    C492    1.371   1_545 S
H113   O130    0.991   .     S
H114   O120    0.991   .     S
H115   O121    0.988   .     S
H116   O122    0.988   .     S
N117   Zn131   2.012   .     S
N118   Zn132   2.012   .     S
O119   Zn131   1.996   .     S
O123   Zn132   1.996   .     S
O124   Zn132   1.994   .     S
O125   Zn131   1.994   .     S
O126   Zn131   1.954   .     S
O127   Zn132   1.954   .     S
O128   Zn132   1.883   .     S
O129   Zn131   1.883   .     S
C133   O190    1.283   .     A
C133   C136    1.415   .     S
C133   O185    1.282   .     A
C134   C136    1.399   .     A
C134   F175    1.359   .     S
C134   C361    1.371   .     S
C135   C163    1.396   .     A
C135   C164    1.399   .     A
C135   C144    1.415   .     S
C136   C162    1.396   .     A
C137   N184    1.366   .     A
C137   F176    1.355   .     S
C137   C7      1.417   1_655 S
C138   N183    1.366   .     A
C138   F166    1.355   .     S
C139   N183    1.368   .     A
C139   F167    1.355   .     S
C140   N184    1.368   .     A
C140   F168    1.355   .     S
C140   C6      1.417   1_655 S
C141   O192    1.291   .     A
C141   C143    1.469   .     S
C141   O194    1.301   .     A
C142   O195    1.301   .     A
C142   O193    1.291   .     A
C142   C145    1.469   .     S
C143   C150    1.392   .     A
C143   C148    1.417   .     A
C144   O189    1.282   .     A
C144   O191    1.283   .     A
C145   C149    1.417   .     A
C145   C151    1.392   .     A
C146   F170    1.359   .     S
C146   C154    1.412   .     A
C146   C148    1.396   .     A
C147   F171    1.359   .     S
C147   C156    1.412   .     A
C147   C149    1.396   .     A
C148   O188    1.377   .     S
C149   O187    1.377   .     S
C150   C152    1.400   .     A
C150   F169    1.361   .     S
C151   C153    1.400   .     A
C151   F165    1.361   .     S
C152   C157    1.419   .     A
C152   C154    1.418   .     A
C153   C158    1.419   .     A
C153   C156    1.418   .     A
C154   C754    1.404   .     S
C155   C160    1.403   .     A
C155   C158    1.419   .     A
C155   F172    1.359   .     S
C156   C755    1.404   1_554 S
C157   C159    1.419   .     A
C157   C752    1.413   .     S
C158   C751    1.413   1_554 S
C159   F173    1.359   .     S
C159   C161    1.403   .     A
C160   O196    1.383   .     S
C160   C748    1.404   1_554 S
C161   O186    1.383   .     S
C161   C750    1.404   .     S
C162   H177    1.084   .     S
C162   C362    1.371   .     S
C163   H178    1.084   .     S
C163   C530    1.371   1_545 S
C164   F174    1.359   .     S
C164   C558    1.371   1_545 S
H179   O196    0.991   .     S
H180   O186    0.991   .     S
H181   O187    0.988   .     S
H182   O188    0.988   .     S
N183   Zn197   2.012   .     S
N184   Zn198   2.012   .     S
O185   Zn197   1.996   .     S
O189   Zn198   1.996   .     S
O190   Zn198   1.994   .     S
O191   Zn197   1.994   .     S
O192   Zn197   1.954   .     S
O193   Zn198   1.954   .     S
O194   Zn198   1.883   .     S
O195   Zn197   1.883   .     S
C199   O256    1.283   .     A
C199   C202    1.415   .     S
C199   O251    1.282   .     A
C200   C202    1.399   .     A
C200   F241    1.359   .     S
C200   C427    1.371   .     S
C201   C229    1.396   .     A
C201   C230    1.399   .     A
C201   C210    1.415   .     S
C202   C228    1.396   .     A
C203   N250    1.366   .     A
C203   F242    1.355   .     S
C203   C271    1.417   .     S
C204   N249    1.366   .     A
C204   F232    1.355   .     S
C204   C338    1.417   1_455 S
C205   N249    1.368   .     A
C205   F233    1.355   .     S
C205   C335    1.417   1_455 S
C206   N250    1.368   .     A
C206   F234    1.355   .     S
C206   C270    1.417   .     S
C207   O258    1.291   .     A
C207   C209    1.469   .     S
C207   O260    1.301   .     A
C208   O261    1.301   .     A
C208   O259    1.291   .     A
C208   C211    1.469   .     S
C209   C216    1.392   .     A
C209   C214    1.417   .     A
C210   O255    1.282   .     A
C210   O257    1.283   .     A
C211   C215    1.417   .     A
C211   C217    1.392   .     A
C212   F236    1.359   .     S
C212   C220    1.412   .     A
C212   C214    1.396   .     A
C213   F237    1.359   .     S
C213   C222    1.412   .     A
C213   C215    1.396   .     A
C214   O254    1.377   .     S
C215   O253    1.377   .     S
C216   C218    1.400   .     A
C216   F235    1.361   .     S
C217   C219    1.400   .     A
C217   F231    1.361   .     S
C218   C223    1.419   .     A
C218   C220    1.418   .     A
C219   C224    1.419   .     A
C219   C222    1.418   .     A
C220   C820    1.404   .     S
C221   C226    1.403   .     A
C221   C224    1.419   .     A
C221   F238    1.359   .     S
C222   C821    1.404   1_554 S
C223   C225    1.419   .     A
C223   C818    1.413   .     S
C224   C817    1.413   1_554 S
C225   F239    1.359   .     S
C225   C227    1.403   .     A
C226   O262    1.383   .     S
C226   C814    1.404   1_554 S
C227   O252    1.383   .     S
C227   C816    1.404   .     S
C228   H243    1.084   .     S
C228   C428    1.371   .     S
C229   H244    1.084   .     S
C230   F240    1.359   .     S
H245   O262    0.991   .     S
H246   O252    0.991   .     S
H247   O253    0.988   .     S
H248   O254    0.988   .     S
N249   Zn263   2.012   .     S
N250   Zn264   2.012   .     S
O251   Zn263   1.996   .     S
O255   Zn264   1.996   .     S
O256   Zn264   1.994   .     S
O257   Zn263   1.994   .     S
O258   Zn263   1.954   .     S
O259   Zn264   1.954   .     S
O260   Zn264   1.883   .     S
O261   Zn263   1.883   .     S
C265   O322    1.283   .     A
C265   C268    1.415   .     S
C265   O317    1.282   .     A
C266   C268    1.399   .     A
C266   F307    1.359   .     S
C266   C493    1.371   .     S
C267   C295    1.396   .     A
C267   C296    1.399   .     A
C267   C276    1.415   .     S
C268   C294    1.396   .     A
C269   N316    1.366   .     A
C269   F308    1.355   .     S
C269   C337    1.417   .     S
C270   N315    1.366   .     A
C270   F298    1.355   .     S
C271   N315    1.368   .     A
C271   F299    1.355   .     S
C272   N316    1.368   .     A
C272   F300    1.355   .     S
C272   C336    1.417   .     S
C273   O324    1.291   .     A
C273   C275    1.469   .     S
C273   O326    1.301   .     A
C274   O327    1.301   .     A
C274   O325    1.291   .     A
C274   C277    1.469   .     S
C275   C282    1.392   .     A
C275   C280    1.417   .     A
C276   O321    1.282   .     A
C276   O323    1.283   .     A
C277   C281    1.417   .     A
C277   C283    1.392   .     A
C278   F302    1.359   .     S
C278   C286    1.412   .     A
C278   C280    1.396   .     A
C279   F303    1.359   .     S
C279   C288    1.412   .     A
C279   C281    1.396   .     A
C280   O320    1.377   .     S
C281   O319    1.377   .     S
C282   C284    1.400   .     A
C282   F301    1.361   .     S
C283   C285    1.400   .     A
C283   F297    1.361   .     S
C284   C289    1.419   .     A
C284   C286    1.418   .     A
C285   C290    1.419   .     A
C285   C288    1.418   .     A
C286   C886    1.404   .     S
C287   C292    1.403   .     A
C287   C290    1.419   .     A
C287   F304    1.359   .     S
C288   C887    1.404   1_554 S
C289   C291    1.419   .     A
C289   C884    1.413   .     S
C290   C883    1.413   1_554 S
C291   F305    1.359   .     S
C291   C293    1.403   .     A
C292   O328    1.383   .     S
C292   C880    1.404   1_554 S
C293   O318    1.383   .     S
C293   C882    1.404   .     S
C294   H309    1.084   .     S
C294   C494    1.371   .     S
C295   H310    1.084   .     S
C296   F306    1.359   .     S
H311   O328    0.991   .     S
H312   O318    0.991   .     S
H313   O319    0.988   .     S
H314   O320    0.988   .     S
N315   Zn329   2.012   .     S
N316   Zn330   2.012   .     S
O317   Zn329   1.996   .     S
O321   Zn330   1.996   .     S
O322   Zn330   1.994   .     S
O323   Zn329   1.994   .     S
O324   Zn329   1.954   .     S
O325   Zn330   1.954   .     S
O326   Zn330   1.883   .     S
O327   Zn329   1.883   .     S
C331   O388    1.283   .     A
C331   C334    1.415   .     S
C331   O383    1.282   .     A
C332   C334    1.399   .     A
C332   F373    1.359   .     S
C332   C559    1.371   .     S
C333   C361    1.396   .     A
C333   C362    1.399   .     A
C333   C342    1.415   .     S
C334   C360    1.396   .     A
C335   N382    1.366   .     A
C335   F374    1.355   .     S
C335   C205    1.417   1_655 S
C336   N381    1.366   .     A
C336   F364    1.355   .     S
C337   N381    1.368   .     A
C337   F365    1.355   .     S
C338   N382    1.368   .     A
C338   F366    1.355   .     S
C338   C204    1.417   1_655 S
C339   O390    1.291   .     A
C339   C341    1.469   .     S
C339   O392    1.301   .     A
C340   O393    1.301   .     A
C340   O391    1.291   .     A
C340   C343    1.469   .     S
C341   C348    1.392   .     A
C341   C346    1.417   .     A
C342   O387    1.282   .     A
C342   O389    1.283   .     A
C343   C347    1.417   .     A
C343   C349    1.392   .     A
C344   F368    1.359   .     S
C344   C352    1.412   .     A
C344   C346    1.396   .     A
C345   F369    1.359   .     S
C345   C354    1.412   .     A
C345   C347    1.396   .     A
C346   O386    1.377   .     S
C347   O385    1.377   .     S
C348   C350    1.400   .     A
C348   F367    1.361   .     S
C349   C351    1.400   .     A
C349   F363    1.361   .     S
C350   C355    1.419   .     A
C350   C352    1.418   .     A
C351   C356    1.419   .     A
C351   C354    1.418   .     A
C352   C952    1.404   .     S
C353   C358    1.403   .     A
C353   C356    1.419   .     A
C353   F370    1.359   .     S
C354   C953    1.404   1_554 S
C355   C357    1.419   .     A
C355   C950    1.413   .     S
C356   C949    1.413   1_554 S
C357   F371    1.359   .     S
C357   C359    1.403   .     A
C358   O394    1.383   .     S
C358   C946    1.404   1_554 S
C359   O384    1.383   .     S
C359   C948    1.404   .     S
C360   H375    1.084   .     S
C360   C560    1.371   .     S
C361   H376    1.084   .     S
C362   F372    1.359   .     S
H377   O394    0.991   .     S
H378   O384    0.991   .     S
H379   O385    0.988   .     S
H380   O386    0.988   .     S
N381   Zn395   2.012   .     S
N382   Zn396   2.012   .     S
O383   Zn395   1.996   .     S
O387   Zn396   1.996   .     S
O388   Zn396   1.994   .     S
O389   Zn395   1.994   .     S
O390   Zn395   1.954   .     S
O391   Zn396   1.954   .     S
O392   Zn396   1.883   .     S
O393   Zn395   1.883   .     S
C397   O454    1.283   .     A
C397   C400    1.415   .     S
C397   O449    1.282   .     A
C398   C400    1.399   .     A
C398   F439    1.359   .     S
C398   C31     1.371   1_565 S
C399   C427    1.396   .     A
C399   C428    1.399   .     A
C399   C408    1.415   .     S
C400   C426    1.396   .     A
C401   N448    1.366   .     A
C401   F440    1.355   .     S
C401   C469    1.417   .     S
C402   N447    1.366   .     A
C402   F430    1.355   .     S
C402   C536    1.417   1_455 S
C403   N447    1.368   .     A
C403   F431    1.355   .     S
C403   C533    1.417   1_455 S
C404   N448    1.368   .     A
C404   F432    1.355   .     S
C404   C468    1.417   .     S
C405   O456    1.291   .     A
C405   C407    1.469   .     S
C405   O458    1.301   .     A
C406   O459    1.301   .     A
C406   O457    1.291   .     A
C406   C409    1.469   .     S
C407   C414    1.392   .     A
C407   C412    1.417   .     A
C408   O453    1.282   .     A
C408   O455    1.283   .     A
C409   C413    1.417   .     A
C409   C415    1.392   .     A
C410   F434    1.359   .     S
C410   C418    1.412   .     A
C410   C412    1.396   .     A
C411   F435    1.359   .     S
C411   C420    1.412   .     A
C411   C413    1.396   .     A
C412   O452    1.377   .     S
C413   O451    1.377   .     S
C414   C416    1.400   .     A
C414   F433    1.361   .     S
C415   C417    1.400   .     A
C415   F429    1.361   .     S
C416   C421    1.419   .     A
C416   C418    1.418   .     A
C417   C422    1.419   .     A
C417   C420    1.418   .     A
C418   C1018   1.404   .     S
C419   C424    1.403   .     A
C419   C422    1.419   .     A
C419   F436    1.359   .     S
C420   C1019   1.404   1_554 S
C421   C423    1.419   .     A
C421   C1016   1.413   .     S
C422   C1015   1.413   1_554 S
C423   F437    1.359   .     S
C423   C425    1.403   .     A
C424   O460    1.383   .     S
C424   C1012   1.404   1_554 S
C425   O450    1.383   .     S
C425   C1014   1.404   .     S
C426   H441    1.084   .     S
C426   C32     1.371   1_565 S
C427   H442    1.084   .     S
C428   F438    1.359   .     S
H443   O460    0.991   .     S
H444   O450    0.991   .     S
H445   O451    0.988   .     S
H446   O452    0.988   .     S
N447   Zn461   2.012   .     S
N448   Zn462   2.012   .     S
O449   Zn461   1.996   .     S
O453   Zn462   1.996   .     S
O454   Zn462   1.994   .     S
O455   Zn461   1.994   .     S
O456   Zn461   1.954   .     S
O457   Zn462   1.954   .     S
O458   Zn462   1.883   .     S
O459   Zn461   1.883   .     S
C463   O520    1.283   .     A
C463   C466    1.415   .     S
C463   O515    1.282   .     A
C464   C466    1.399   .     A
C464   F505    1.359   .     S
C464   C97     1.371   1_565 S
C465   C493    1.396   .     A
C465   C494    1.399   .     A
C465   C474    1.415   .     S
C466   C492    1.396   .     A
C467   N514    1.366   .     A
C467   F506    1.355   .     S
C467   C535    1.417   .     S
C468   N513    1.366   .     A
C468   F496    1.355   .     S
C469   N513    1.368   .     A
C469   F497    1.355   .     S
C470   N514    1.368   .     A
C470   F498    1.355   .     S
C470   C534    1.417   .     S
C471   O522    1.291   .     A
C471   C473    1.469   .     S
C471   O524    1.301   .     A
C472   O525    1.301   .     A
C472   O523    1.291   .     A
C472   C475    1.469   .     S
C473   C480    1.392   .     A
C473   C478    1.417   .     A
C474   O519    1.282   .     A
C474   O521    1.283   .     A
C475   C479    1.417   .     A
C475   C481    1.392   .     A
C476   F500    1.359   .     S
C476   C484    1.412   .     A
C476   C478    1.396   .     A
C477   F501    1.359   .     S
C477   C486    1.412   .     A
C477   C479    1.396   .     A
C478   O518    1.377   .     S
C479   O517    1.377   .     S
C480   C482    1.400   .     A
C480   F499    1.361   .     S
C481   C483    1.400   .     A
C481   F495    1.361   .     S
C482   C487    1.419   .     A
C482   C484    1.418   .     A
C483   C488    1.419   .     A
C483   C486    1.418   .     A
C484   C1084   1.404   .     S
C485   C490    1.403   .     A
C485   C488    1.419   .     A
C485   F502    1.359   .     S
C486   C1085   1.404   1_554 S
C487   C489    1.419   .     A
C487   C1082   1.413   .     S
C488   C1081   1.413   1_554 S
C489   F503    1.359   .     S
C489   C491    1.403   .     A
C490   O526    1.383   .     S
C490   C1078   1.404   1_554 S
C491   O516    1.383   .     S
C491   C1080   1.404   .     S
C492   H507    1.084   .     S
C492   C98     1.371   1_565 S
C493   H508    1.084   .     S
C494   F504    1.359   .     S
H509   O526    0.991   .     S
H510   O516    0.991   .     S
H511   O517    0.988   .     S
H512   O518    0.988   .     S
N513   Zn527   2.012   .     S
N514   Zn528   2.012   .     S
O515   Zn527   1.996   .     S
O519   Zn528   1.996   .     S
O520   Zn528   1.994   .     S
O521   Zn527   1.994   .     S
O522   Zn527   1.954   .     S
O523   Zn528   1.954   .     S
O524   Zn528   1.883   .     S
O525   Zn527   1.883   .     S
C529   O586    1.283   .     A
C529   C532    1.415   .     S
C529   O581    1.282   .     A
C530   C532    1.399   .     A
C530   F571    1.359   .     S
C530   C163    1.371   1_565 S
C531   C559    1.396   .     A
C531   C560    1.399   .     A
C531   C540    1.415   .     S
C532   C558    1.396   .     A
C533   N580    1.366   .     A
C533   F572    1.355   .     S
C533   C403    1.417   1_655 S
C534   N579    1.366   .     A
C534   F562    1.355   .     S
C535   N579    1.368   .     A
C535   F563    1.355   .     S
C536   N580    1.368   .     A
C536   F564    1.355   .     S
C536   C402    1.417   1_655 S
C537   O588    1.291   .     A
C537   C539    1.469   .     S
C537   O590    1.301   .     A
C538   O591    1.301   .     A
C538   O589    1.291   .     A
C538   C541    1.469   .     S
C539   C546    1.392   .     A
C539   C544    1.417   .     A
C540   O585    1.282   .     A
C540   O587    1.283   .     A
C541   C545    1.417   .     A
C541   C547    1.392   .     A
C542   F566    1.359   .     S
C542   C550    1.412   .     A
C542   C544    1.396   .     A
C543   F567    1.359   .     S
C543   C552    1.412   .     A
C543   C545    1.396   .     A
C544   O584    1.377   .     S
C545   O583    1.377   .     S
C546   C548    1.400   .     A
C546   F565    1.361   .     S
C547   C549    1.400   .     A
C547   F561    1.361   .     S
C548   C553    1.419   .     A
C548   C550    1.418   .     A
C549   C554    1.419   .     A
C549   C552    1.418   .     A
C550   C1150   1.404   .     S
C551   C556    1.403   .     A
C551   C554    1.419   .     A
C551   F568    1.359   .     S
C552   C1151   1.404   1_554 S
C553   C555    1.419   .     A
C553   C1148   1.413   .     S
C554   C1147   1.413   1_554 S
C555   F569    1.359   .     S
C555   C557    1.403   .     A
C556   O592    1.383   .     S
C556   C1144   1.404   1_554 S
C557   O582    1.383   .     S
C557   C1146   1.404   .     S
C558   H573    1.084   .     S
C558   C164    1.371   1_565 S
C559   H574    1.084   .     S
C560   F570    1.359   .     S
H575   O592    0.991   .     S
H576   O582    0.991   .     S
H577   O583    0.988   .     S
H578   O584    0.988   .     S
N579   Zn593   2.012   .     S
N580   Zn594   2.012   .     S
O581   Zn593   1.996   .     S
O585   Zn594   1.996   .     S
O586   Zn594   1.994   .     S
O587   Zn593   1.994   .     S
O588   Zn593   1.954   .     S
O589   Zn594   1.954   .     S
O590   Zn594   1.883   .     S
O591   Zn593   1.883   .     S
C595   O652    1.283   .     A
C595   C598    1.415   .     S
C595   O647    1.282   .     A
C596   C598    1.399   .     A
C596   F637    1.359   .     S
C596   C823    1.371   .     S
C597   C625    1.396   .     A
C597   C626    1.399   .     A
C597   C606    1.415   .     S
C598   C624    1.396   .     A
C599   N646    1.366   .     A
C599   F638    1.355   .     S
C599   C667    1.417   .     S
C600   N645    1.366   .     A
C600   F628    1.355   .     S
C600   C734    1.417   1_455 S
C601   N645    1.368   .     A
C601   F629    1.355   .     S
C601   C731    1.417   1_455 S
C602   N646    1.368   .     A
C602   F630    1.355   .     S
C602   C666    1.417   .     S
C603   O654    1.291   .     A
C603   C605    1.469   .     S
C603   O656    1.301   .     A
C604   O657    1.301   .     A
C604   O655    1.291   .     A
C604   C607    1.469   .     S
C605   C612    1.392   .     A
C605   C610    1.417   .     A
C606   O651    1.282   .     A
C606   O653    1.283   .     A
C607   C611    1.417   .     A
C607   C613    1.392   .     A
C608   F632    1.359   .     S
C608   C616    1.412   .     A
C608   C610    1.396   .     A
C609   F633    1.359   .     S
C609   C618    1.412   .     A
C609   C611    1.396   .     A
C610   O650    1.377   .     S
C611   O649    1.377   .     S
C612   C614    1.400   .     A
C612   F631    1.361   .     S
C613   C615    1.400   .     A
C613   F627    1.361   .     S
C614   C619    1.419   .     A
C614   C616    1.418   .     A
C615   C620    1.419   .     A
C615   C618    1.418   .     A
C616   C28     1.404   1_556 S
C617   C622    1.403   .     A
C617   C620    1.419   .     A
C617   F634    1.359   .     S
C619   C621    1.419   .     A
C619   C26     1.413   1_556 S
C621   F635    1.359   .     S
C621   C623    1.403   .     A
C622   O658    1.383   .     S
C623   O648    1.383   .     S
C623   C24     1.404   1_556 S
C624   H639    1.084   .     S
C624   C824    1.371   .     S
C625   H640    1.084   .     S
C625   C992    1.371   1_545 S
C626   F636    1.359   .     S
C626   C1020   1.371   1_545 S
H641   O658    0.991   .     S
H642   O648    0.991   .     S
H643   O649    0.988   .     S
H644   O650    0.988   .     S
N645   Zn659   2.012   .     S
N646   Zn660   2.012   .     S
O647   Zn659   1.996   .     S
O651   Zn660   1.996   .     S
O652   Zn660   1.994   .     S
O653   Zn659   1.994   .     S
O654   Zn659   1.954   .     S
O655   Zn660   1.954   .     S
O656   Zn660   1.883   .     S
O657   Zn659   1.883   .     S
C661   O718    1.283   .     A
C661   C664    1.415   .     S
C661   O713    1.282   .     A
C662   C664    1.399   .     A
C662   F703    1.359   .     S
C662   C889    1.371   .     S
C663   C691    1.396   .     A
C663   C692    1.399   .     A
C663   C672    1.415   .     S
C664   C690    1.396   .     A
C665   N712    1.366   .     A
C665   F704    1.355   .     S
C665   C733    1.417   .     S
C666   N711    1.366   .     A
C666   F694    1.355   .     S
C667   N711    1.368   .     A
C667   F695    1.355   .     S
C668   N712    1.368   .     A
C668   F696    1.355   .     S
C668   C732    1.417   .     S
C669   O720    1.291   .     A
C669   C671    1.469   .     S
C669   O722    1.301   .     A
C670   O723    1.301   .     A
C670   O721    1.291   .     A
C670   C673    1.469   .     S
C671   C678    1.392   .     A
C671   C676    1.417   .     A
C672   O717    1.282   .     A
C672   O719    1.283   .     A
C673   C677    1.417   .     A
C673   C679    1.392   .     A
C674   F698    1.359   .     S
C674   C682    1.412   .     A
C674   C676    1.396   .     A
C675   F699    1.359   .     S
C675   C684    1.412   .     A
C675   C677    1.396   .     A
C676   O716    1.377   .     S
C677   O715    1.377   .     S
C678   C680    1.400   .     A
C678   F697    1.361   .     S
C679   C681    1.400   .     A
C679   F693    1.361   .     S
C680   C685    1.419   .     A
C680   C682    1.418   .     A
C681   C686    1.419   .     A
C681   C684    1.418   .     A
C682   C94     1.404   1_556 S
C683   C688    1.403   .     A
C683   C686    1.419   .     A
C683   F700    1.359   .     S
C685   C687    1.419   .     A
C685   C92     1.413   1_556 S
C687   F701    1.359   .     S
C687   C689    1.403   .     A
C688   O724    1.383   .     S
C689   O714    1.383   .     S
C689   C90     1.404   1_556 S
C690   H705    1.084   .     S
C690   C890    1.371   .     S
C691   H706    1.084   .     S
C691   C1058   1.371   1_545 S
C692   F702    1.359   .     S
C692   C1086   1.371   1_545 S
H707   O724    0.991   .     S
H708   O714    0.991   .     S
H709   O715    0.988   .     S
H710   O716    0.988   .     S
N711   Zn725   2.012   .     S
N712   Zn726   2.012   .     S
O713   Zn725   1.996   .     S
O717   Zn726   1.996   .     S
O718   Zn726   1.994   .     S
O719   Zn725   1.994   .     S
O720   Zn725   1.954   .     S
O721   Zn726   1.954   .     S
O722   Zn726   1.883   .     S
O723   Zn725   1.883   .     S
C727   O784    1.283   .     A
C727   C730    1.415   .     S
C727   O779    1.282   .     A
C728   C730    1.399   .     A
C728   F769    1.359   .     S
C728   C955    1.371   .     S
C729   C757    1.396   .     A
C729   C758    1.399   .     A
C729   C738    1.415   .     S
C730   C756    1.396   .     A
C731   N778    1.366   .     A
C731   F770    1.355   .     S
C731   C601    1.417   1_655 S
C732   N777    1.366   .     A
C732   F760    1.355   .     S
C733   N777    1.368   .     A
C733   F761    1.355   .     S
C734   N778    1.368   .     A
C734   F762    1.355   .     S
C734   C600    1.417   1_655 S
C735   O786    1.291   .     A
C735   C737    1.469   .     S
C735   O788    1.301   .     A
C736   O789    1.301   .     A
C736   O787    1.291   .     A
C736   C739    1.469   .     S
C737   C744    1.392   .     A
C737   C742    1.417   .     A
C738   O783    1.282   .     A
C738   O785    1.283   .     A
C739   C743    1.417   .     A
C739   C745    1.392   .     A
C740   F764    1.359   .     S
C740   C748    1.412   .     A
C740   C742    1.396   .     A
C741   F765    1.359   .     S
C741   C750    1.412   .     A
C741   C743    1.396   .     A
C742   O782    1.377   .     S
C743   O781    1.377   .     S
C744   C746    1.400   .     A
C744   F763    1.361   .     S
C745   C747    1.400   .     A
C745   F759    1.361   .     S
C746   C751    1.419   .     A
C746   C748    1.418   .     A
C747   C752    1.419   .     A
C747   C750    1.418   .     A
C748   C160    1.404   1_556 S
C749   C754    1.403   .     A
C749   C752    1.419   .     A
C749   F766    1.359   .     S
C751   C753    1.419   .     A
C751   C158    1.413   1_556 S
C753   F767    1.359   .     S
C753   C755    1.403   .     A
C754   O790    1.383   .     S
C755   O780    1.383   .     S
C755   C156    1.404   1_556 S
C756   H771    1.084   .     S
C756   C956    1.371   .     S
C757   H772    1.084   .     S
C757   C1124   1.371   1_545 S
C758   F768    1.359   .     S
C758   C1152   1.371   1_545 S
H773   O790    0.991   .     S
H774   O780    0.991   .     S
H775   O781    0.988   .     S
H776   O782    0.988   .     S
N777   Zn791   2.012   .     S
N778   Zn792   2.012   .     S
O779   Zn791   1.996   .     S
O783   Zn792   1.996   .     S
O784   Zn792   1.994   .     S
O785   Zn791   1.994   .     S
O786   Zn791   1.954   .     S
O787   Zn792   1.954   .     S
O788   Zn792   1.883   .     S
O789   Zn791   1.883   .     S
C793   O850    1.283   .     A
C793   C796    1.415   .     S
C793   O845    1.282   .     A
C794   C796    1.399   .     A
C794   F835    1.359   .     S
C794   C1021   1.371   .     S
C795   C823    1.396   .     A
C795   C824    1.399   .     A
C795   C804    1.415   .     S
C796   C822    1.396   .     A
C797   N844    1.366   .     A
C797   F836    1.355   .     S
C797   C865    1.417   .     S
C798   N843    1.366   .     A
C798   F826    1.355   .     S
C798   C932    1.417   1_455 S
C799   N843    1.368   .     A
C799   F827    1.355   .     S
C799   C929    1.417   1_455 S
C800   N844    1.368   .     A
C800   F828    1.355   .     S
C800   C864    1.417   .     S
C801   O852    1.291   .     A
C801   C803    1.469   .     S
C801   O854    1.301   .     A
C802   O855    1.301   .     A
C802   O853    1.291   .     A
C802   C805    1.469   .     S
C803   C810    1.392   .     A
C803   C808    1.417   .     A
C804   O849    1.282   .     A
C804   O851    1.283   .     A
C805   C809    1.417   .     A
C805   C811    1.392   .     A
C806   F830    1.359   .     S
C806   C814    1.412   .     A
C806   C808    1.396   .     A
C807   F831    1.359   .     S
C807   C816    1.412   .     A
C807   C809    1.396   .     A
C808   O848    1.377   .     S
C809   O847    1.377   .     S
C810   C812    1.400   .     A
C810   F829    1.361   .     S
C811   C813    1.400   .     A
C811   F825    1.361   .     S
C812   C817    1.419   .     A
C812   C814    1.418   .     A
C813   C818    1.419   .     A
C813   C816    1.418   .     A
C814   C226    1.404   1_556 S
C815   C820    1.403   .     A
C815   C818    1.419   .     A
C815   F832    1.359   .     S
C817   C819    1.419   .     A
C817   C224    1.413   1_556 S
C819   F833    1.359   .     S
C819   C821    1.403   .     A
C820   O856    1.383   .     S
C821   O846    1.383   .     S
C821   C222    1.404   1_556 S
C822   H837    1.084   .     S
C822   C1022   1.371   .     S
C823   H838    1.084   .     S
C824   F834    1.359   .     S
H839   O856    0.991   .     S
H840   O846    0.991   .     S
H841   O847    0.988   .     S
H842   O848    0.988   .     S
N843   Zn857   2.012   .     S
N844   Zn858   2.012   .     S
O845   Zn857   1.996   .     S
O849   Zn858   1.996   .     S
O850   Zn858   1.994   .     S
O851   Zn857   1.994   .     S
O852   Zn857   1.954   .     S
O853   Zn858   1.954   .     S
O854   Zn858   1.883   .     S
O855   Zn857   1.883   .     S
C859   O916    1.283   .     A
C859   C862    1.415   .     S
C859   O911    1.282   .     A
C860   C862    1.399   .     A
C860   F901    1.359   .     S
C860   C1087   1.371   .     S
C861   C889    1.396   .     A
C861   C890    1.399   .     A
C861   C870    1.415   .     S
C862   C888    1.396   .     A
C863   N910    1.366   .     A
C863   F902    1.355   .     S
C863   C931    1.417   .     S
C864   N909    1.366   .     A
C864   F892    1.355   .     S
C865   N909    1.368   .     A
C865   F893    1.355   .     S
C866   N910    1.368   .     A
C866   F894    1.355   .     S
C866   C930    1.417   .     S
C867   O918    1.291   .     A
C867   C869    1.469   .     S
C867   O920    1.301   .     A
C868   O921    1.301   .     A
C868   O919    1.291   .     A
C868   C871    1.469   .     S
C869   C876    1.392   .     A
C869   C874    1.417   .     A
C870   O915    1.282   .     A
C870   O917    1.283   .     A
C871   C875    1.417   .     A
C871   C877    1.392   .     A
C872   F896    1.359   .     S
C872   C880    1.412   .     A
C872   C874    1.396   .     A
C873   F897    1.359   .     S
C873   C882    1.412   .     A
C873   C875    1.396   .     A
C874   O914    1.377   .     S
C875   O913    1.377   .     S
C876   C878    1.400   .     A
C876   F895    1.361   .     S
C877   C879    1.400   .     A
C877   F891    1.361   .     S
C878   C883    1.419   .     A
C878   C880    1.418   .     A
C879   C884    1.419   .     A
C879   C882    1.418   .     A
C880   C292    1.404   1_556 S
C881   C886    1.403   .     A
C881   C884    1.419   .     A
C881   F898    1.359   .     S
C883   C885    1.419   .     A
C883   C290    1.413   1_556 S
C885   F899    1.359   .     S
C885   C887    1.403   .     A
C886   O922    1.383   .     S
C887   O912    1.383   .     S
C887   C288    1.404   1_556 S
C888   H903    1.084   .     S
C888   C1088   1.371   .     S
C889   H904    1.084   .     S
C890   F900    1.359   .     S
H905   O922    0.991   .     S
H906   O912    0.991   .     S
H907   O913    0.988   .     S
H908   O914    0.988   .     S
N909   Zn923   2.012   .     S
N910   Zn924   2.012   .     S
O911   Zn923   1.996   .     S
O915   Zn924   1.996   .     S
O916   Zn924   1.994   .     S
O917   Zn923   1.994   .     S
O918   Zn923   1.954   .     S
O919   Zn924   1.954   .     S
O920   Zn924   1.883   .     S
O921   Zn923   1.883   .     S
C925   O982    1.283   .     A
C925   C928    1.415   .     S
C925   O977    1.282   .     A
C926   C928    1.399   .     A
C926   F967    1.359   .     S
C926   C1153   1.371   .     S
C927   C955    1.396   .     A
C927   C956    1.399   .     A
C927   C936    1.415   .     S
C928   C954    1.396   .     A
C929   N976    1.366   .     A
C929   F968    1.355   .     S
C929   C799    1.417   1_655 S
C930   N975    1.366   .     A
C930   F958    1.355   .     S
C931   N975    1.368   .     A
C931   F959    1.355   .     S
C932   N976    1.368   .     A
C932   F960    1.355   .     S
C932   C798    1.417   1_655 S
C933   O984    1.291   .     A
C933   C935    1.469   .     S
C933   O986    1.301   .     A
C934   O987    1.301   .     A
C934   O985    1.291   .     A
C934   C937    1.469   .     S
C935   C942    1.392   .     A
C935   C940    1.417   .     A
C936   O981    1.282   .     A
C936   O983    1.283   .     A
C937   C941    1.417   .     A
C937   C943    1.392   .     A
C938   F962    1.359   .     S
C938   C946    1.412   .     A
C938   C940    1.396   .     A
C939   F963    1.359   .     S
C939   C948    1.412   .     A
C939   C941    1.396   .     A
C940   O980    1.377   .     S
C941   O979    1.377   .     S
C942   C944    1.400   .     A
C942   F961    1.361   .     S
C943   C945    1.400   .     A
C943   F957    1.361   .     S
C944   C949    1.419   .     A
C944   C946    1.418   .     A
C945   C950    1.419   .     A
C945   C948    1.418   .     A
C946   C358    1.404   1_556 S
C947   C952    1.403   .     A
C947   C950    1.419   .     A
C947   F964    1.359   .     S
C949   C951    1.419   .     A
C949   C356    1.413   1_556 S
C951   F965    1.359   .     S
C951   C953    1.403   .     A
C952   O988    1.383   .     S
C953   O978    1.383   .     S
C953   C354    1.404   1_556 S
C954   H969    1.084   .     S
C954   C1154   1.371   .     S
C955   H970    1.084   .     S
C956   F966    1.359   .     S
H971   O988    0.991   .     S
H972   O978    0.991   .     S
H973   O979    0.988   .     S
H974   O980    0.988   .     S
N975   Zn989   2.012   .     S
N976   Zn990   2.012   .     S
O977   Zn989   1.996   .     S
O981   Zn990   1.996   .     S
O982   Zn990   1.994   .     S
O983   Zn989   1.994   .     S
O984   Zn989   1.954   .     S
O985   Zn990   1.954   .     S
O986   Zn990   1.883   .     S
O987   Zn989   1.883   .     S
C991   O1048   1.283   .     A
C991   C994    1.415   .     S
C991   O1043   1.282   .     A
C992   C994    1.399   .     A
C992   F1033   1.359   .     S
C992   C625    1.371   1_565 S
C993   C1021   1.396   .     A
C993   C1022   1.399   .     A
C993   C1002   1.415   .     S
C994   C1020   1.396   .     A
C995   N1042   1.366   .     A
C995   F1034   1.355   .     S
C995   C1063   1.417   .     S
C996   N1041   1.366   .     A
C996   F1024   1.355   .     S
C996   C1130   1.417   1_455 S
C997   N1041   1.368   .     A
C997   F1025   1.355   .     S
C997   C1127   1.417   1_455 S
C998   N1042   1.368   .     A
C998   F1026   1.355   .     S
C998   C1062   1.417   .     S
C999   O1050   1.291   .     A
C999   C1001   1.469   .     S
C999   O1052   1.301   .     A
C1000  O1053   1.301   .     A
C1000  O1051   1.291   .     A
C1000  C1003   1.469   .     S
C1001  C1008   1.392   .     A
C1001  C1006   1.417   .     A
C1002  O1047   1.282   .     A
C1002  O1049   1.283   .     A
C1003  C1007   1.417   .     A
C1003  C1009   1.392   .     A
C1004  F1028   1.359   .     S
C1004  C1012   1.412   .     A
C1004  C1006   1.396   .     A
C1005  F1029   1.359   .     S
C1005  C1014   1.412   .     A
C1005  C1007   1.396   .     A
C1006  O1046   1.377   .     S
C1007  O1045   1.377   .     S
C1008  C1010   1.400   .     A
C1008  F1027   1.361   .     S
C1009  C1011   1.400   .     A
C1009  F1023   1.361   .     S
C1010  C1015   1.419   .     A
C1010  C1012   1.418   .     A
C1011  C1016   1.419   .     A
C1011  C1014   1.418   .     A
C1012  C424    1.404   1_556 S
C1013  C1018   1.403   .     A
C1013  C1016   1.419   .     A
C1013  F1030   1.359   .     S
C1015  C1017   1.419   .     A
C1015  C422    1.413   1_556 S
C1017  F1031   1.359   .     S
C1017  C1019   1.403   .     A
C1018  O1054   1.383   .     S
C1019  O1044   1.383   .     S
C1019  C420    1.404   1_556 S
C1020  H1035   1.084   .     S
C1020  C626    1.371   1_565 S
C1021  H1036   1.084   .     S
C1022  F1032   1.359   .     S
H1037  O1054   0.991   .     S
H1038  O1044   0.991   .     S
H1039  O1045   0.988   .     S
H1040  O1046   0.988   .     S
N1041  Zn1055  2.012   .     S
N1042  Zn1056  2.012   .     S
O1043  Zn1055  1.996   .     S
O1047  Zn1056  1.996   .     S
O1048  Zn1056  1.994   .     S
O1049  Zn1055  1.994   .     S
O1050  Zn1055  1.954   .     S
O1051  Zn1056  1.954   .     S
O1052  Zn1056  1.883   .     S
O1053  Zn1055  1.883   .     S
C1057  O1114   1.283   .     A
C1057  C1060   1.415   .     S
C1057  O1109   1.282   .     A
C1058  C1060   1.399   .     A
C1058  F1099   1.359   .     S
C1058  C691    1.371   1_565 S
C1059  C1087   1.396   .     A
C1059  C1088   1.399   .     A
C1059  C1068   1.415   .     S
C1060  C1086   1.396   .     A
C1061  N1108   1.366   .     A
C1061  F1100   1.355   .     S
C1061  C1129   1.417   .     S
C1062  N1107   1.366   .     A
C1062  F1090   1.355   .     S
C1063  N1107   1.368   .     A
C1063  F1091   1.355   .     S
C1064  N1108   1.368   .     A
C1064  F1092   1.355   .     S
C1064  C1128   1.417   .     S
C1065  O1116   1.291   .     A
C1065  C1067   1.469   .     S
C1065  O1118   1.301   .     A
C1066  O1119   1.301   .     A
C1066  O1117   1.291   .     A
C1066  C1069   1.469   .     S
C1067  C1074   1.392   .     A
C1067  C1072   1.417   .     A
C1068  O1113   1.282   .     A
C1068  O1115   1.283   .     A
C1069  C1073   1.417   .     A
C1069  C1075   1.392   .     A
C1070  F1094   1.359   .     S
C1070  C1078   1.412   .     A
C1070  C1072   1.396   .     A
C1071  F1095   1.359   .     S
C1071  C1080   1.412   .     A
C1071  C1073   1.396   .     A
C1072  O1112   1.377   .     S
C1073  O1111   1.377   .     S
C1074  C1076   1.400   .     A
C1074  F1093   1.361   .     S
C1075  C1077   1.400   .     A
C1075  F1089   1.361   .     S
C1076  C1081   1.419   .     A
C1076  C1078   1.418   .     A
C1077  C1082   1.419   .     A
C1077  C1080   1.418   .     A
C1078  C490    1.404   1_556 S
C1079  C1084   1.403   .     A
C1079  C1082   1.419   .     A
C1079  F1096   1.359   .     S
C1081  C1083   1.419   .     A
C1081  C488    1.413   1_556 S
C1083  F1097   1.359   .     S
C1083  C1085   1.403   .     A
C1084  O1120   1.383   .     S
C1085  O1110   1.383   .     S
C1085  C486    1.404   1_556 S
C1086  H1101   1.084   .     S
C1086  C692    1.371   1_565 S
C1087  H1102   1.084   .     S
C1088  F1098   1.359   .     S
H1103  O1120   0.991   .     S
H1104  O1110   0.991   .     S
H1105  O1111   0.988   .     S
H1106  O1112   0.988   .     S
N1107  Zn1121  2.012   .     S
N1108  Zn1122  2.012   .     S
O1109  Zn1121  1.996   .     S
O1113  Zn1122  1.996   .     S
O1114  Zn1122  1.994   .     S
O1115  Zn1121  1.994   .     S
O1116  Zn1121  1.954   .     S
O1117  Zn1122  1.954   .     S
O1118  Zn1122  1.883   .     S
O1119  Zn1121  1.883   .     S
C1123  O1180   1.283   .     A
C1123  C1126   1.415   .     S
C1123  O1175   1.282   .     A
C1124  C1126   1.399   .     A
C1124  F1165   1.359   .     S
C1124  C757    1.371   1_565 S
C1125  C1153   1.396   .     A
C1125  C1154   1.399   .     A
C1125  C1134   1.415   .     S
C1126  C1152   1.396   .     A
C1127  N1174   1.366   .     A
C1127  F1166   1.355   .     S
C1127  C997    1.417   1_655 S
C1128  N1173   1.366   .     A
C1128  F1156   1.355   .     S
C1129  N1173   1.368   .     A
C1129  F1157   1.355   .     S
C1130  N1174   1.368   .     A
C1130  F1158   1.355   .     S
C1130  C996    1.417   1_655 S
C1131  O1182   1.291   .     A
C1131  C1133   1.469   .     S
C1131  O1184   1.301   .     A
C1132  O1185   1.301   .     A
C1132  O1183   1.291   .     A
C1132  C1135   1.469   .     S
C1133  C1140   1.392   .     A
C1133  C1138   1.417   .     A
C1134  O1179   1.282   .     A
C1134  O1181   1.283   .     A
C1135  C1139   1.417   .     A
C1135  C1141   1.392   .     A
C1136  F1160   1.359   .     S
C1136  C1144   1.412   .     A
C1136  C1138   1.396   .     A
C1137  F1161   1.359   .     S
C1137  C1146   1.412   .     A
C1137  C1139   1.396   .     A
C1138  O1178   1.377   .     S
C1139  O1177   1.377   .     S
C1140  C1142   1.400   .     A
C1140  F1159   1.361   .     S
C1141  C1143   1.400   .     A
C1141  F1155   1.361   .     S
C1142  C1147   1.419   .     A
C1142  C1144   1.418   .     A
C1143  C1148   1.419   .     A
C1143  C1146   1.418   .     A
C1144  C556    1.404   1_556 S
C1145  C1150   1.403   .     A
C1145  C1148   1.419   .     A
C1145  F1162   1.359   .     S
C1147  C1149   1.419   .     A
C1147  C554    1.413   1_556 S
C1149  F1163   1.359   .     S
C1149  C1151   1.403   .     A
C1150  O1186   1.383   .     S
C1151  O1176   1.383   .     S
C1151  C552    1.404   1_556 S
C1152  H1167   1.084   .     S
C1152  C758    1.371   1_565 S
C1153  H1168   1.084   .     S
C1154  F1164   1.359   .     S
H1169  O1186   0.991   .     S
H1170  O1176   0.991   .     S
H1171  O1177   0.988   .     S
H1172  O1178   0.988   .     S
N1173  Zn1187  2.012   .     S
N1174  Zn1188  2.012   .     S
O1175  Zn1187  1.996   .     S
O1179  Zn1188  1.996   .     S
O1180  Zn1188  1.994   .     S
O1181  Zn1187  1.994   .     S
O1182  Zn1187  1.954   .     S
O1183  Zn1188  1.954   .     S
O1184  Zn1188  1.883   .     S
O1185  Zn1187  1.883   .     S
