data_str_m3_o1_o17_pcu_sym.149
_audit_creation_date              2020-01-03
_audit_creation_method            'Materials Studio'
_symmetry_space_group_name_H-M    'P1'
_symmetry_Int_Tables_number       1
_symmetry_cell_setting            triclinic
loop_
_symmetry_equiv_pos_as_xyz
  x,y,z
_cell_length_a                    32.1545
_cell_length_b                    29.5191
_cell_length_c                    29.9600
_cell_angle_alpha                 89.7892
_cell_angle_beta                  90.0177
_cell_angle_gamma                 90.0509
loop_
_atom_site_label
_atom_site_type_symbol
_atom_site_fract_x
_atom_site_fract_y
_atom_site_fract_z
_atom_site_U_iso_or_equiv
_atom_site_adp_type
_atom_site_occupancy
C1     C     0.08662   0.16666   0.24994   0.00000  Uiso   1.00
C2     C     0.24671   0.16668   0.25006   0.00000  Uiso   1.00
C3     C     0.10819   0.22020   0.02134   0.00000  Uiso   1.00
C4     C     0.22515   0.11313   0.47866   0.00000  Uiso   1.00
C5     C     0.02125   0.12583   0.24378   0.00000  Uiso   1.00
C6     C     0.31208   0.20750   0.25622   0.00000  Uiso   1.00
C7     C     0.31200   0.12583   0.24388   0.00000  Uiso   1.00
C8     C     0.02134   0.20750   0.25612   0.00000  Uiso   1.00
C9     C     0.29086   0.16667   0.25008   0.00000  Uiso   1.00
C10    C     0.04247   0.16666   0.24992   0.00000  Uiso   1.00
C11    C     0.19518   0.02391   0.27453   0.00000  Uiso   1.00
C12    C     0.13816   0.30942   0.22547   0.00000  Uiso   1.00
C13    C     0.13816   0.02405   0.22545   0.00000  Uiso   1.00
C14    C     0.19517   0.30928   0.27455   0.00000  Uiso   1.00
C15    C     0.16581   0.16675   0.16353   0.00000  Uiso   1.00
C16    C     0.16753   0.16658   0.33647   0.00000  Uiso   1.00
C17    C     0.19796   0.13998   0.40733   0.00000  Uiso   1.00
C18    C     0.13538   0.19335   0.09268   0.00000  Uiso   1.00
C19    C     0.16882   0.16642   0.38419   0.00000  Uiso   1.00
C20    C     0.16451   0.16691   0.11581   0.00000  Uiso   1.00
C21    C     0.14003   0.19325   0.40620   0.00000  Uiso   1.00
C22    C     0.19330   0.14008   0.09380   0.00000  Uiso   1.00
C23    C     0.13863   0.19381   0.45247   0.00000  Uiso   1.00
C24    C     0.19471   0.13953   0.04753   0.00000  Uiso   1.00
C25    C     0.16723   0.16670   0.47664   0.00000  Uiso   1.00
C26    C     0.16610   0.16664   0.02337   0.00000  Uiso   1.00
C27    C     0.19705   0.13973   0.45407   0.00000  Uiso   1.00
C28    C     0.13629   0.19360   0.04593   0.00000  Uiso   1.00
C29    C     0.10915   0.22055   0.47507   0.00000  Uiso   1.00
C30    C     0.22418   0.11278   0.02493   0.00000  Uiso   1.00
H31    H     0.11824   0.21312   0.38664   0.00000  Uiso   1.00
H32    H     0.21509   0.12021   0.11336   0.00000  Uiso   1.00
H33    H     0.08529   0.24113   0.03795   0.00000  Uiso   1.00
H34    H     0.24804   0.09221   0.46205   0.00000  Uiso   1.00
H35    H     0.03741   0.09406   0.23873   0.00000  Uiso   1.00
H36    H     0.29592   0.23927   0.26127   0.00000  Uiso   1.00
H37    H     0.29578   0.09405   0.23890   0.00000  Uiso   1.00
H38    H     0.03756   0.23928   0.26110   0.00000  Uiso   1.00
H39    H     0.21799   0.04202   0.29410   0.00000  Uiso   1.00
H40    H     0.11535   0.29132   0.20590   0.00000  Uiso   1.00
H41    H     0.11538   0.04228   0.20582   0.00000  Uiso   1.00
H42    H     0.21795   0.29106   0.29418   0.00000  Uiso   1.00
N43    N     0.16667   0.28573   0.25000   0.00000  Uiso   1.00
N44    N     0.16667   0.04760   0.25000   0.00000  Uiso   1.00
O45    O     0.10559   0.20487   0.25000   0.00000  Uiso   1.00
O46    O     0.22774   0.12846   0.25001   0.00000  Uiso   1.00
O47    O     0.22774   0.20487   0.25001   0.00000  Uiso   1.00
O48    O     0.10559   0.12846   0.25000   0.00000  Uiso   1.00
O49    O     0.16666   0.20489   0.18393   0.00000  Uiso   1.00
O50    O     0.16667   0.12844   0.31608   0.00000  Uiso   1.00
O51    O     0.16667   0.20489   0.31608   0.00000  Uiso   1.00
O52    O     0.16666   0.12844   0.18393   0.00000  Uiso   1.00
Zn53   Zn    0.16667   0.21771   0.25000   0.00000  Uiso   1.00
Zn54   Zn    0.16667   0.11563   0.25000   0.00000  Uiso   1.00
C55    C     0.22948   0.11492   0.38293   0.00000  Uiso   1.00
N56    N     0.25463   0.09508   0.36350   0.00000  Uiso   1.00
C57    C     0.10385   0.21841   0.11707   0.00000  Uiso   1.00
N58    N     0.07870   0.23825   0.13650   0.00000  Uiso   1.00
C59    C     0.07937   0.24879   0.45180   0.00000  Uiso   1.00
N60    N     0.05556   0.27137   0.43321   0.00000  Uiso   1.00
C61    C     0.25396   0.08454   0.04821   0.00000  Uiso   1.00
N62    N     0.27778   0.06196   0.06679   0.00000  Uiso   1.00
C63    C     0.41996   0.16666   0.24994   0.00000  Uiso   1.00
C64    C     0.58004   0.16668   0.25006   0.00000  Uiso   1.00
C65    C     0.44152   0.22020   0.02134   0.00000  Uiso   1.00
C66    C     0.55848   0.11313   0.47866   0.00000  Uiso   1.00
C67    C     0.35459   0.12583   0.24378   0.00000  Uiso   1.00
C68    C     0.64541   0.20750   0.25622   0.00000  Uiso   1.00
C69    C     0.64533   0.12583   0.24388   0.00000  Uiso   1.00
C70    C     0.35467   0.20750   0.25612   0.00000  Uiso   1.00
C71    C     0.62419   0.16667   0.25008   0.00000  Uiso   1.00
C72    C     0.37581   0.16666   0.24992   0.00000  Uiso   1.00
C73    C     0.52851   0.02391   0.27453   0.00000  Uiso   1.00
C74    C     0.47149   0.30942   0.22547   0.00000  Uiso   1.00
C75    C     0.47150   0.02405   0.22545   0.00000  Uiso   1.00
C76    C     0.52850   0.30928   0.27455   0.00000  Uiso   1.00
C77    C     0.49914   0.16675   0.16353   0.00000  Uiso   1.00
C78    C     0.50086   0.16658   0.33647   0.00000  Uiso   1.00
C79    C     0.53129   0.13998   0.40733   0.00000  Uiso   1.00
C80    C     0.46871   0.19335   0.09268   0.00000  Uiso   1.00
C81    C     0.50216   0.16642   0.38419   0.00000  Uiso   1.00
C82    C     0.49784   0.16691   0.11581   0.00000  Uiso   1.00
C83    C     0.47336   0.19325   0.40620   0.00000  Uiso   1.00
C84    C     0.52664   0.14008   0.09380   0.00000  Uiso   1.00
C85    C     0.47196   0.19381   0.45247   0.00000  Uiso   1.00
C86    C     0.52804   0.13953   0.04753   0.00000  Uiso   1.00
C87    C     0.50057   0.16670   0.47664   0.00000  Uiso   1.00
C88    C     0.49943   0.16664   0.02337   0.00000  Uiso   1.00
C89    C     0.53038   0.13973   0.45407   0.00000  Uiso   1.00
C90    C     0.46962   0.19360   0.04593   0.00000  Uiso   1.00
C91    C     0.44249   0.22055   0.47507   0.00000  Uiso   1.00
C92    C     0.55751   0.11278   0.02493   0.00000  Uiso   1.00
H93    H     0.45158   0.21312   0.38664   0.00000  Uiso   1.00
H94    H     0.54842   0.12021   0.11336   0.00000  Uiso   1.00
H95    H     0.41863   0.24113   0.03795   0.00000  Uiso   1.00
H96    H     0.58137   0.09221   0.46205   0.00000  Uiso   1.00
H97    H     0.37074   0.09406   0.23873   0.00000  Uiso   1.00
H98    H     0.62926   0.23927   0.26127   0.00000  Uiso   1.00
H99    H     0.62911   0.09405   0.23890   0.00000  Uiso   1.00
H100   H     0.37089   0.23928   0.26110   0.00000  Uiso   1.00
H101   H     0.55132   0.04202   0.29410   0.00000  Uiso   1.00
H102   H     0.44868   0.29132   0.20590   0.00000  Uiso   1.00
H103   H     0.44871   0.04228   0.20582   0.00000  Uiso   1.00
H104   H     0.55129   0.29106   0.29418   0.00000  Uiso   1.00
N105   N     0.50000   0.28573   0.25000   0.00000  Uiso   1.00
N106   N     0.50000   0.04760   0.25000   0.00000  Uiso   1.00
O107   O     0.43892   0.20487   0.25000   0.00000  Uiso   1.00
O108   O     0.56108   0.12846   0.25001   0.00000  Uiso   1.00
O109   O     0.56108   0.20487   0.25001   0.00000  Uiso   1.00
O110   O     0.43892   0.12846   0.25000   0.00000  Uiso   1.00
O111   O     0.49999   0.20489   0.18393   0.00000  Uiso   1.00
O112   O     0.50001   0.12844   0.31608   0.00000  Uiso   1.00
O113   O     0.50001   0.20489   0.31608   0.00000  Uiso   1.00
O114   O     0.49999   0.12844   0.18393   0.00000  Uiso   1.00
Zn115  Zn    0.50000   0.21771   0.25000   0.00000  Uiso   1.00
Zn116  Zn    0.50000   0.11563   0.25000   0.00000  Uiso   1.00
C117   C     0.56281   0.11492   0.38293   0.00000  Uiso   1.00
N118   N     0.58797   0.09508   0.36350   0.00000  Uiso   1.00
C119   C     0.43719   0.21841   0.11707   0.00000  Uiso   1.00
N120   N     0.41203   0.23825   0.13650   0.00000  Uiso   1.00
C121   C     0.41271   0.24879   0.45180   0.00000  Uiso   1.00
N122   N     0.38889   0.27137   0.43321   0.00000  Uiso   1.00
C123   C     0.58729   0.08454   0.04821   0.00000  Uiso   1.00
N124   N     0.61111   0.06196   0.06679   0.00000  Uiso   1.00
C125   C     0.75329   0.16666   0.24994   0.00000  Uiso   1.00
C126   C     0.91338   0.16668   0.25006   0.00000  Uiso   1.00
C127   C     0.77485   0.22020   0.02134   0.00000  Uiso   1.00
C128   C     0.89181   0.11313   0.47866   0.00000  Uiso   1.00
C129   C     0.68792   0.12583   0.24378   0.00000  Uiso   1.00
C130   C     0.97875   0.20750   0.25622   0.00000  Uiso   1.00
C131   C     0.97866   0.12583   0.24388   0.00000  Uiso   1.00
C132   C     0.68800   0.20750   0.25612   0.00000  Uiso   1.00
C133   C     0.95753   0.16667   0.25008   0.00000  Uiso   1.00
C134   C     0.70914   0.16666   0.24992   0.00000  Uiso   1.00
C135   C     0.86184   0.02391   0.27453   0.00000  Uiso   1.00
C136   C     0.80482   0.30942   0.22547   0.00000  Uiso   1.00
C137   C     0.80483   0.02405   0.22545   0.00000  Uiso   1.00
C138   C     0.86184   0.30928   0.27455   0.00000  Uiso   1.00
C139   C     0.83247   0.16675   0.16353   0.00000  Uiso   1.00
C140   C     0.83419   0.16658   0.33647   0.00000  Uiso   1.00
C141   C     0.86462   0.13998   0.40733   0.00000  Uiso   1.00
C142   C     0.80204   0.19335   0.09268   0.00000  Uiso   1.00
C143   C     0.83549   0.16642   0.38419   0.00000  Uiso   1.00
C144   C     0.83118   0.16691   0.11581   0.00000  Uiso   1.00
C145   C     0.80670   0.19325   0.40620   0.00000  Uiso   1.00
C146   C     0.85997   0.14008   0.09380   0.00000  Uiso   1.00
C147   C     0.80529   0.19381   0.45247   0.00000  Uiso   1.00
C148   C     0.86137   0.13953   0.04753   0.00000  Uiso   1.00
C149   C     0.83390   0.16670   0.47664   0.00000  Uiso   1.00
C150   C     0.83277   0.16664   0.02337   0.00000  Uiso   1.00
C151   C     0.86371   0.13973   0.45407   0.00000  Uiso   1.00
C152   C     0.80295   0.19360   0.04593   0.00000  Uiso   1.00
C153   C     0.77582   0.22055   0.47507   0.00000  Uiso   1.00
C154   C     0.89085   0.11278   0.02493   0.00000  Uiso   1.00
H155   H     0.78491   0.21312   0.38664   0.00000  Uiso   1.00
H156   H     0.88175   0.12021   0.11336   0.00000  Uiso   1.00
H157   H     0.75196   0.24113   0.03795   0.00000  Uiso   1.00
H158   H     0.91471   0.09221   0.46205   0.00000  Uiso   1.00
H159   H     0.70408   0.09406   0.23873   0.00000  Uiso   1.00
H160   H     0.96259   0.23927   0.26127   0.00000  Uiso   1.00
H161   H     0.96244   0.09405   0.23890   0.00000  Uiso   1.00
H162   H     0.70422   0.23928   0.26110   0.00000  Uiso   1.00
H163   H     0.88465   0.04202   0.29410   0.00000  Uiso   1.00
H164   H     0.78201   0.29132   0.20590   0.00000  Uiso   1.00
H165   H     0.78205   0.04228   0.20582   0.00000  Uiso   1.00
H166   H     0.88462   0.29106   0.29418   0.00000  Uiso   1.00
N167   N     0.83333   0.28573   0.25000   0.00000  Uiso   1.00
N168   N     0.83333   0.04760   0.25000   0.00000  Uiso   1.00
O169   O     0.77226   0.20487   0.25000   0.00000  Uiso   1.00
O170   O     0.89441   0.12846   0.25001   0.00000  Uiso   1.00
O171   O     0.89441   0.20487   0.25001   0.00000  Uiso   1.00
O172   O     0.77226   0.12846   0.25000   0.00000  Uiso   1.00
O173   O     0.83333   0.20489   0.18393   0.00000  Uiso   1.00
O174   O     0.83334   0.12844   0.31608   0.00000  Uiso   1.00
O175   O     0.83334   0.20489   0.31608   0.00000  Uiso   1.00
O176   O     0.83333   0.12844   0.18393   0.00000  Uiso   1.00
Zn177  Zn    0.83333   0.21771   0.25000   0.00000  Uiso   1.00
Zn178  Zn    0.83333   0.11563   0.25000   0.00000  Uiso   1.00
C179   C     0.89615   0.11492   0.38293   0.00000  Uiso   1.00
N180   N     0.92130   0.09508   0.36350   0.00000  Uiso   1.00
C181   C     0.77052   0.21841   0.11707   0.00000  Uiso   1.00
N182   N     0.74537   0.23825   0.13650   0.00000  Uiso   1.00
C183   C     0.74604   0.24879   0.45180   0.00000  Uiso   1.00
N184   N     0.72222   0.27137   0.43321   0.00000  Uiso   1.00
C185   C     0.92063   0.08454   0.04821   0.00000  Uiso   1.00
N186   N     0.94444   0.06196   0.06679   0.00000  Uiso   1.00
C187   C     0.08662   0.49999   0.24994   0.00000  Uiso   1.00
C188   C     0.24671   0.50001   0.25006   0.00000  Uiso   1.00
C189   C     0.10819   0.55353   0.02134   0.00000  Uiso   1.00
C190   C     0.22515   0.44646   0.47866   0.00000  Uiso   1.00
C191   C     0.02125   0.45917   0.24378   0.00000  Uiso   1.00
C192   C     0.31208   0.54083   0.25622   0.00000  Uiso   1.00
C193   C     0.31200   0.45917   0.24388   0.00000  Uiso   1.00
C194   C     0.02134   0.54083   0.25612   0.00000  Uiso   1.00
C195   C     0.29086   0.50000   0.25008   0.00000  Uiso   1.00
C196   C     0.04247   0.50000   0.24992   0.00000  Uiso   1.00
C197   C     0.19518   0.35724   0.27453   0.00000  Uiso   1.00
C198   C     0.13816   0.64275   0.22547   0.00000  Uiso   1.00
C199   C     0.13816   0.35738   0.22545   0.00000  Uiso   1.00
C200   C     0.19517   0.64262   0.27455   0.00000  Uiso   1.00
C201   C     0.16581   0.50008   0.16353   0.00000  Uiso   1.00
C202   C     0.16753   0.49992   0.33647   0.00000  Uiso   1.00
C203   C     0.19796   0.47332   0.40733   0.00000  Uiso   1.00
C204   C     0.13538   0.52668   0.09268   0.00000  Uiso   1.00
C205   C     0.16882   0.49975   0.38419   0.00000  Uiso   1.00
C206   C     0.16451   0.50025   0.11581   0.00000  Uiso   1.00
C207   C     0.14003   0.52658   0.40620   0.00000  Uiso   1.00
C208   C     0.19330   0.47342   0.09380   0.00000  Uiso   1.00
C209   C     0.13863   0.52714   0.45247   0.00000  Uiso   1.00
C210   C     0.19471   0.47286   0.04753   0.00000  Uiso   1.00
C211   C     0.16723   0.50003   0.47664   0.00000  Uiso   1.00
C212   C     0.16610   0.49997   0.02337   0.00000  Uiso   1.00
C213   C     0.19705   0.47306   0.45407   0.00000  Uiso   1.00
C214   C     0.13629   0.52694   0.04593   0.00000  Uiso   1.00
C215   C     0.10915   0.55388   0.47507   0.00000  Uiso   1.00
C216   C     0.22418   0.44612   0.02493   0.00000  Uiso   1.00
H217   H     0.11824   0.54646   0.38664   0.00000  Uiso   1.00
H218   H     0.21509   0.45354   0.11336   0.00000  Uiso   1.00
H219   H     0.08529   0.57446   0.03795   0.00000  Uiso   1.00
H220   H     0.24804   0.42554   0.46205   0.00000  Uiso   1.00
H221   H     0.03741   0.42739   0.23873   0.00000  Uiso   1.00
H222   H     0.29592   0.57261   0.26127   0.00000  Uiso   1.00
H223   H     0.29578   0.42738   0.23890   0.00000  Uiso   1.00
H224   H     0.03756   0.57262   0.26110   0.00000  Uiso   1.00
H225   H     0.21799   0.37535   0.29410   0.00000  Uiso   1.00
H226   H     0.11535   0.62465   0.20590   0.00000  Uiso   1.00
H227   H     0.11538   0.37561   0.20582   0.00000  Uiso   1.00
H228   H     0.21795   0.62439   0.29418   0.00000  Uiso   1.00
N229   N     0.16667   0.61907   0.25000   0.00000  Uiso   1.00
N230   N     0.16667   0.38093   0.25000   0.00000  Uiso   1.00
O231   O     0.10559   0.53821   0.25000   0.00000  Uiso   1.00
O232   O     0.22774   0.46179   0.25001   0.00000  Uiso   1.00
O233   O     0.22774   0.53821   0.25001   0.00000  Uiso   1.00
O234   O     0.10559   0.46179   0.25000   0.00000  Uiso   1.00
O235   O     0.16666   0.53823   0.18393   0.00000  Uiso   1.00
O236   O     0.16667   0.46177   0.31608   0.00000  Uiso   1.00
O237   O     0.16667   0.53823   0.31608   0.00000  Uiso   1.00
O238   O     0.16666   0.46177   0.18393   0.00000  Uiso   1.00
Zn239  Zn    0.16667   0.55104   0.25000   0.00000  Uiso   1.00
Zn240  Zn    0.16667   0.44896   0.25000   0.00000  Uiso   1.00
C241   C     0.22948   0.44825   0.38293   0.00000  Uiso   1.00
N242   N     0.25463   0.42842   0.36350   0.00000  Uiso   1.00
C243   C     0.10385   0.55175   0.11707   0.00000  Uiso   1.00
N244   N     0.07870   0.57158   0.13650   0.00000  Uiso   1.00
C245   C     0.07937   0.58212   0.45180   0.00000  Uiso   1.00
N246   N     0.05556   0.60471   0.43321   0.00000  Uiso   1.00
C247   C     0.25396   0.41788   0.04821   0.00000  Uiso   1.00
N248   N     0.27778   0.39529   0.06679   0.00000  Uiso   1.00
C249   C     0.41996   0.49999   0.24994   0.00000  Uiso   1.00
C250   C     0.58004   0.50001   0.25006   0.00000  Uiso   1.00
C251   C     0.44152   0.55353   0.02134   0.00000  Uiso   1.00
C252   C     0.55848   0.44646   0.47866   0.00000  Uiso   1.00
C253   C     0.35459   0.45917   0.24378   0.00000  Uiso   1.00
C254   C     0.64541   0.54083   0.25622   0.00000  Uiso   1.00
C255   C     0.64533   0.45917   0.24388   0.00000  Uiso   1.00
C256   C     0.35467   0.54083   0.25612   0.00000  Uiso   1.00
C257   C     0.62419   0.50000   0.25008   0.00000  Uiso   1.00
C258   C     0.37581   0.50000   0.24992   0.00000  Uiso   1.00
C259   C     0.52851   0.35724   0.27453   0.00000  Uiso   1.00
C260   C     0.47149   0.64275   0.22547   0.00000  Uiso   1.00
C261   C     0.47150   0.35738   0.22545   0.00000  Uiso   1.00
C262   C     0.52850   0.64262   0.27455   0.00000  Uiso   1.00
C263   C     0.49914   0.50008   0.16353   0.00000  Uiso   1.00
C264   C     0.50086   0.49992   0.33647   0.00000  Uiso   1.00
C265   C     0.53129   0.47332   0.40733   0.00000  Uiso   1.00
C266   C     0.46871   0.52668   0.09268   0.00000  Uiso   1.00
C267   C     0.50216   0.49975   0.38419   0.00000  Uiso   1.00
C268   C     0.49784   0.50025   0.11581   0.00000  Uiso   1.00
C269   C     0.47336   0.52658   0.40620   0.00000  Uiso   1.00
C270   C     0.52664   0.47342   0.09380   0.00000  Uiso   1.00
C271   C     0.47196   0.52714   0.45247   0.00000  Uiso   1.00
C272   C     0.52804   0.47286   0.04753   0.00000  Uiso   1.00
C273   C     0.50057   0.50003   0.47664   0.00000  Uiso   1.00
C274   C     0.49943   0.49997   0.02337   0.00000  Uiso   1.00
C275   C     0.53038   0.47306   0.45407   0.00000  Uiso   1.00
C276   C     0.46962   0.52694   0.04593   0.00000  Uiso   1.00
C277   C     0.44249   0.55388   0.47507   0.00000  Uiso   1.00
C278   C     0.55751   0.44612   0.02493   0.00000  Uiso   1.00
H279   H     0.45158   0.54646   0.38664   0.00000  Uiso   1.00
H280   H     0.54842   0.45354   0.11336   0.00000  Uiso   1.00
H281   H     0.41863   0.57446   0.03795   0.00000  Uiso   1.00
H282   H     0.58137   0.42554   0.46205   0.00000  Uiso   1.00
H283   H     0.37074   0.42739   0.23873   0.00000  Uiso   1.00
H284   H     0.62926   0.57261   0.26127   0.00000  Uiso   1.00
H285   H     0.62911   0.42738   0.23890   0.00000  Uiso   1.00
H286   H     0.37089   0.57262   0.26110   0.00000  Uiso   1.00
H287   H     0.55132   0.37535   0.29410   0.00000  Uiso   1.00
H288   H     0.44868   0.62465   0.20590   0.00000  Uiso   1.00
H289   H     0.44871   0.37561   0.20582   0.00000  Uiso   1.00
H290   H     0.55129   0.62439   0.29418   0.00000  Uiso   1.00
N291   N     0.50000   0.61907   0.25000   0.00000  Uiso   1.00
N292   N     0.50000   0.38093   0.25000   0.00000  Uiso   1.00
O293   O     0.43892   0.53821   0.25000   0.00000  Uiso   1.00
O294   O     0.56108   0.46179   0.25001   0.00000  Uiso   1.00
O295   O     0.56108   0.53821   0.25001   0.00000  Uiso   1.00
O296   O     0.43892   0.46179   0.25000   0.00000  Uiso   1.00
O297   O     0.49999   0.53823   0.18393   0.00000  Uiso   1.00
O298   O     0.50001   0.46177   0.31608   0.00000  Uiso   1.00
O299   O     0.50001   0.53823   0.31608   0.00000  Uiso   1.00
O300   O     0.49999   0.46177   0.18393   0.00000  Uiso   1.00
Zn301  Zn    0.50000   0.55104   0.25000   0.00000  Uiso   1.00
Zn302  Zn    0.50000   0.44896   0.25000   0.00000  Uiso   1.00
C303   C     0.56281   0.44825   0.38293   0.00000  Uiso   1.00
N304   N     0.58797   0.42842   0.36350   0.00000  Uiso   1.00
C305   C     0.43719   0.55175   0.11707   0.00000  Uiso   1.00
N306   N     0.41203   0.57158   0.13650   0.00000  Uiso   1.00
C307   C     0.41271   0.58212   0.45180   0.00000  Uiso   1.00
N308   N     0.38889   0.60471   0.43321   0.00000  Uiso   1.00
C309   C     0.58729   0.41788   0.04821   0.00000  Uiso   1.00
N310   N     0.61111   0.39529   0.06679   0.00000  Uiso   1.00
C311   C     0.75329   0.49999   0.24994   0.00000  Uiso   1.00
C312   C     0.91338   0.50001   0.25006   0.00000  Uiso   1.00
C313   C     0.77485   0.55353   0.02134   0.00000  Uiso   1.00
C314   C     0.89181   0.44646   0.47866   0.00000  Uiso   1.00
C315   C     0.68792   0.45917   0.24378   0.00000  Uiso   1.00
C316   C     0.97875   0.54083   0.25622   0.00000  Uiso   1.00
C317   C     0.97866   0.45917   0.24388   0.00000  Uiso   1.00
C318   C     0.68800   0.54083   0.25612   0.00000  Uiso   1.00
C319   C     0.95753   0.50000   0.25008   0.00000  Uiso   1.00
C320   C     0.70914   0.50000   0.24992   0.00000  Uiso   1.00
C321   C     0.86184   0.35724   0.27453   0.00000  Uiso   1.00
C322   C     0.80482   0.64275   0.22547   0.00000  Uiso   1.00
C323   C     0.80483   0.35738   0.22545   0.00000  Uiso   1.00
C324   C     0.86184   0.64262   0.27455   0.00000  Uiso   1.00
C325   C     0.83247   0.50008   0.16353   0.00000  Uiso   1.00
C326   C     0.83419   0.49992   0.33647   0.00000  Uiso   1.00
C327   C     0.86462   0.47332   0.40733   0.00000  Uiso   1.00
C328   C     0.80204   0.52668   0.09268   0.00000  Uiso   1.00
C329   C     0.83549   0.49975   0.38419   0.00000  Uiso   1.00
C330   C     0.83118   0.50025   0.11581   0.00000  Uiso   1.00
C331   C     0.80670   0.52658   0.40620   0.00000  Uiso   1.00
C332   C     0.85997   0.47342   0.09380   0.00000  Uiso   1.00
C333   C     0.80529   0.52714   0.45247   0.00000  Uiso   1.00
C334   C     0.86137   0.47286   0.04753   0.00000  Uiso   1.00
C335   C     0.83390   0.50003   0.47664   0.00000  Uiso   1.00
C336   C     0.83277   0.49997   0.02337   0.00000  Uiso   1.00
C337   C     0.86371   0.47306   0.45407   0.00000  Uiso   1.00
C338   C     0.80295   0.52694   0.04593   0.00000  Uiso   1.00
C339   C     0.77582   0.55388   0.47507   0.00000  Uiso   1.00
C340   C     0.89085   0.44612   0.02493   0.00000  Uiso   1.00
H341   H     0.78491   0.54646   0.38664   0.00000  Uiso   1.00
H342   H     0.88175   0.45354   0.11336   0.00000  Uiso   1.00
H343   H     0.75196   0.57446   0.03795   0.00000  Uiso   1.00
H344   H     0.91471   0.42554   0.46205   0.00000  Uiso   1.00
H345   H     0.70408   0.42739   0.23873   0.00000  Uiso   1.00
H346   H     0.96259   0.57261   0.26127   0.00000  Uiso   1.00
H347   H     0.96244   0.42738   0.23890   0.00000  Uiso   1.00
H348   H     0.70422   0.57262   0.26110   0.00000  Uiso   1.00
H349   H     0.88465   0.37535   0.29410   0.00000  Uiso   1.00
H350   H     0.78201   0.62465   0.20590   0.00000  Uiso   1.00
H351   H     0.78205   0.37561   0.20582   0.00000  Uiso   1.00
H352   H     0.88462   0.62439   0.29418   0.00000  Uiso   1.00
N353   N     0.83333   0.61907   0.25000   0.00000  Uiso   1.00
N354   N     0.83333   0.38093   0.25000   0.00000  Uiso   1.00
O355   O     0.77226   0.53821   0.25000   0.00000  Uiso   1.00
O356   O     0.89441   0.46179   0.25001   0.00000  Uiso   1.00
O357   O     0.89441   0.53821   0.25001   0.00000  Uiso   1.00
O358   O     0.77226   0.46179   0.25000   0.00000  Uiso   1.00
O359   O     0.83333   0.53823   0.18393   0.00000  Uiso   1.00
O360   O     0.83334   0.46177   0.31608   0.00000  Uiso   1.00
O361   O     0.83334   0.53823   0.31608   0.00000  Uiso   1.00
O362   O     0.83333   0.46177   0.18393   0.00000  Uiso   1.00
Zn363  Zn    0.83333   0.55104   0.25000   0.00000  Uiso   1.00
Zn364  Zn    0.83333   0.44896   0.25000   0.00000  Uiso   1.00
C365   C     0.89615   0.44825   0.38293   0.00000  Uiso   1.00
N366   N     0.92130   0.42842   0.36350   0.00000  Uiso   1.00
C367   C     0.77052   0.55175   0.11707   0.00000  Uiso   1.00
N368   N     0.74537   0.57158   0.13650   0.00000  Uiso   1.00
C369   C     0.74604   0.58212   0.45180   0.00000  Uiso   1.00
N370   N     0.72222   0.60471   0.43321   0.00000  Uiso   1.00
C371   C     0.92063   0.41788   0.04821   0.00000  Uiso   1.00
N372   N     0.94444   0.39529   0.06679   0.00000  Uiso   1.00
C373   C     0.08662   0.83332   0.24994   0.00000  Uiso   1.00
C374   C     0.24671   0.83334   0.25006   0.00000  Uiso   1.00
C375   C     0.10819   0.88687   0.02134   0.00000  Uiso   1.00
C376   C     0.22515   0.77980   0.47866   0.00000  Uiso   1.00
C377   C     0.02125   0.79250   0.24378   0.00000  Uiso   1.00
C378   C     0.31208   0.87417   0.25622   0.00000  Uiso   1.00
C379   C     0.31200   0.79250   0.24388   0.00000  Uiso   1.00
C380   C     0.02134   0.87417   0.25612   0.00000  Uiso   1.00
C381   C     0.29086   0.83334   0.25008   0.00000  Uiso   1.00
C382   C     0.04247   0.83333   0.24992   0.00000  Uiso   1.00
C383   C     0.19518   0.69058   0.27453   0.00000  Uiso   1.00
C384   C     0.13816   0.97609   0.22547   0.00000  Uiso   1.00
C385   C     0.13816   0.69072   0.22545   0.00000  Uiso   1.00
C386   C     0.19517   0.97595   0.27455   0.00000  Uiso   1.00
C387   C     0.16581   0.83342   0.16353   0.00000  Uiso   1.00
C388   C     0.16753   0.83325   0.33647   0.00000  Uiso   1.00
C389   C     0.19796   0.80665   0.40733   0.00000  Uiso   1.00
C390   C     0.13538   0.86002   0.09268   0.00000  Uiso   1.00
C391   C     0.16882   0.83309   0.38419   0.00000  Uiso   1.00
C392   C     0.16451   0.83358   0.11581   0.00000  Uiso   1.00
C393   C     0.14003   0.85992   0.40620   0.00000  Uiso   1.00
C394   C     0.19330   0.80675   0.09380   0.00000  Uiso   1.00
C395   C     0.13863   0.86047   0.45247   0.00000  Uiso   1.00
C396   C     0.19471   0.80619   0.04753   0.00000  Uiso   1.00
C397   C     0.16723   0.83336   0.47664   0.00000  Uiso   1.00
C398   C     0.16610   0.83330   0.02337   0.00000  Uiso   1.00
C399   C     0.19705   0.80640   0.45407   0.00000  Uiso   1.00
C400   C     0.13629   0.86027   0.04593   0.00000  Uiso   1.00
C401   C     0.10915   0.88722   0.47507   0.00000  Uiso   1.00
C402   C     0.22418   0.77945   0.02493   0.00000  Uiso   1.00
H403   H     0.11824   0.87979   0.38664   0.00000  Uiso   1.00
H404   H     0.21509   0.78688   0.11336   0.00000  Uiso   1.00
H405   H     0.08529   0.90779   0.03795   0.00000  Uiso   1.00
H406   H     0.24804   0.75887   0.46205   0.00000  Uiso   1.00
H407   H     0.03741   0.76073   0.23873   0.00000  Uiso   1.00
H408   H     0.29592   0.90594   0.26127   0.00000  Uiso   1.00
H409   H     0.29578   0.76072   0.23890   0.00000  Uiso   1.00
H410   H     0.03756   0.90595   0.26110   0.00000  Uiso   1.00
H411   H     0.21799   0.70868   0.29410   0.00000  Uiso   1.00
H412   H     0.11535   0.95798   0.20590   0.00000  Uiso   1.00
H413   H     0.11538   0.70894   0.20582   0.00000  Uiso   1.00
H414   H     0.21795   0.95772   0.29418   0.00000  Uiso   1.00
N415   N     0.16667   0.95240   0.25000   0.00000  Uiso   1.00
N416   N     0.16667   0.71427   0.25000   0.00000  Uiso   1.00
O417   O     0.10559   0.87154   0.25000   0.00000  Uiso   1.00
O418   O     0.22774   0.79513   0.25001   0.00000  Uiso   1.00
O419   O     0.22774   0.87154   0.25001   0.00000  Uiso   1.00
O420   O     0.10559   0.79513   0.25000   0.00000  Uiso   1.00
O421   O     0.16666   0.87156   0.18393   0.00000  Uiso   1.00
O422   O     0.16667   0.79511   0.31608   0.00000  Uiso   1.00
O423   O     0.16667   0.87156   0.31608   0.00000  Uiso   1.00
O424   O     0.16666   0.79511   0.18393   0.00000  Uiso   1.00
Zn425  Zn    0.16667   0.88437   0.25000   0.00000  Uiso   1.00
Zn426  Zn    0.16667   0.78229   0.25000   0.00000  Uiso   1.00
C427   C     0.22948   0.78159   0.38293   0.00000  Uiso   1.00
N428   N     0.25463   0.76175   0.36350   0.00000  Uiso   1.00
C429   C     0.10385   0.88508   0.11707   0.00000  Uiso   1.00
N430   N     0.07870   0.90492   0.13650   0.00000  Uiso   1.00
C431   C     0.07937   0.91546   0.45180   0.00000  Uiso   1.00
N432   N     0.05556   0.93804   0.43321   0.00000  Uiso   1.00
C433   C     0.25396   0.75121   0.04821   0.00000  Uiso   1.00
N434   N     0.27778   0.72862   0.06679   0.00000  Uiso   1.00
C435   C     0.41996   0.83332   0.24994   0.00000  Uiso   1.00
C436   C     0.58004   0.83334   0.25006   0.00000  Uiso   1.00
C437   C     0.44152   0.88687   0.02134   0.00000  Uiso   1.00
C438   C     0.55848   0.77980   0.47866   0.00000  Uiso   1.00
C439   C     0.35459   0.79250   0.24378   0.00000  Uiso   1.00
C440   C     0.64541   0.87417   0.25622   0.00000  Uiso   1.00
C441   C     0.64533   0.79250   0.24388   0.00000  Uiso   1.00
C442   C     0.35467   0.87417   0.25612   0.00000  Uiso   1.00
C443   C     0.62419   0.83334   0.25008   0.00000  Uiso   1.00
C444   C     0.37581   0.83333   0.24992   0.00000  Uiso   1.00
C445   C     0.52851   0.69058   0.27453   0.00000  Uiso   1.00
C446   C     0.47149   0.97609   0.22547   0.00000  Uiso   1.00
C447   C     0.47150   0.69072   0.22545   0.00000  Uiso   1.00
C448   C     0.52850   0.97595   0.27455   0.00000  Uiso   1.00
C449   C     0.49914   0.83342   0.16353   0.00000  Uiso   1.00
C450   C     0.50086   0.83325   0.33647   0.00000  Uiso   1.00
C451   C     0.53129   0.80665   0.40733   0.00000  Uiso   1.00
C452   C     0.46871   0.86002   0.09268   0.00000  Uiso   1.00
C453   C     0.50216   0.83309   0.38419   0.00000  Uiso   1.00
C454   C     0.49784   0.83358   0.11581   0.00000  Uiso   1.00
C455   C     0.47336   0.85992   0.40620   0.00000  Uiso   1.00
C456   C     0.52664   0.80675   0.09380   0.00000  Uiso   1.00
C457   C     0.47196   0.86047   0.45247   0.00000  Uiso   1.00
C458   C     0.52804   0.80619   0.04753   0.00000  Uiso   1.00
C459   C     0.50057   0.83336   0.47664   0.00000  Uiso   1.00
C460   C     0.49943   0.83330   0.02337   0.00000  Uiso   1.00
C461   C     0.53038   0.80640   0.45407   0.00000  Uiso   1.00
C462   C     0.46962   0.86027   0.04593   0.00000  Uiso   1.00
C463   C     0.44249   0.88722   0.47507   0.00000  Uiso   1.00
C464   C     0.55751   0.77945   0.02493   0.00000  Uiso   1.00
H465   H     0.45158   0.87979   0.38664   0.00000  Uiso   1.00
H466   H     0.54842   0.78688   0.11336   0.00000  Uiso   1.00
H467   H     0.41863   0.90779   0.03795   0.00000  Uiso   1.00
H468   H     0.58137   0.75887   0.46205   0.00000  Uiso   1.00
H469   H     0.37074   0.76073   0.23873   0.00000  Uiso   1.00
H470   H     0.62926   0.90594   0.26127   0.00000  Uiso   1.00
H471   H     0.62911   0.76072   0.23890   0.00000  Uiso   1.00
H472   H     0.37089   0.90595   0.26110   0.00000  Uiso   1.00
H473   H     0.55132   0.70868   0.29410   0.00000  Uiso   1.00
H474   H     0.44868   0.95798   0.20590   0.00000  Uiso   1.00
H475   H     0.44871   0.70894   0.20582   0.00000  Uiso   1.00
H476   H     0.55129   0.95772   0.29418   0.00000  Uiso   1.00
N477   N     0.50000   0.95240   0.25000   0.00000  Uiso   1.00
N478   N     0.50000   0.71427   0.25000   0.00000  Uiso   1.00
O479   O     0.43892   0.87154   0.25000   0.00000  Uiso   1.00
O480   O     0.56108   0.79513   0.25001   0.00000  Uiso   1.00
O481   O     0.56108   0.87154   0.25001   0.00000  Uiso   1.00
O482   O     0.43892   0.79513   0.25000   0.00000  Uiso   1.00
O483   O     0.49999   0.87156   0.18393   0.00000  Uiso   1.00
O484   O     0.50001   0.79511   0.31608   0.00000  Uiso   1.00
O485   O     0.50001   0.87156   0.31608   0.00000  Uiso   1.00
O486   O     0.49999   0.79511   0.18393   0.00000  Uiso   1.00
Zn487  Zn    0.50000   0.88437   0.25000   0.00000  Uiso   1.00
Zn488  Zn    0.50000   0.78229   0.25000   0.00000  Uiso   1.00
C489   C     0.56281   0.78159   0.38293   0.00000  Uiso   1.00
N490   N     0.58797   0.76175   0.36350   0.00000  Uiso   1.00
C491   C     0.43719   0.88508   0.11707   0.00000  Uiso   1.00
N492   N     0.41203   0.90492   0.13650   0.00000  Uiso   1.00
C493   C     0.41271   0.91546   0.45180   0.00000  Uiso   1.00
N494   N     0.38889   0.93804   0.43321   0.00000  Uiso   1.00
C495   C     0.58729   0.75121   0.04821   0.00000  Uiso   1.00
N496   N     0.61111   0.72862   0.06679   0.00000  Uiso   1.00
C497   C     0.75329   0.83332   0.24994   0.00000  Uiso   1.00
C498   C     0.91338   0.83334   0.25006   0.00000  Uiso   1.00
C499   C     0.77485   0.88687   0.02134   0.00000  Uiso   1.00
C500   C     0.89181   0.77980   0.47866   0.00000  Uiso   1.00
C501   C     0.68792   0.79250   0.24378   0.00000  Uiso   1.00
C502   C     0.97875   0.87417   0.25622   0.00000  Uiso   1.00
C503   C     0.97866   0.79250   0.24388   0.00000  Uiso   1.00
C504   C     0.68800   0.87417   0.25612   0.00000  Uiso   1.00
C505   C     0.95753   0.83334   0.25008   0.00000  Uiso   1.00
C506   C     0.70914   0.83333   0.24992   0.00000  Uiso   1.00
C507   C     0.86184   0.69058   0.27453   0.00000  Uiso   1.00
C508   C     0.80482   0.97609   0.22547   0.00000  Uiso   1.00
C509   C     0.80483   0.69072   0.22545   0.00000  Uiso   1.00
C510   C     0.86184   0.97595   0.27455   0.00000  Uiso   1.00
C511   C     0.83247   0.83342   0.16353   0.00000  Uiso   1.00
C512   C     0.83419   0.83325   0.33647   0.00000  Uiso   1.00
C513   C     0.86462   0.80665   0.40733   0.00000  Uiso   1.00
C514   C     0.80204   0.86002   0.09268   0.00000  Uiso   1.00
C515   C     0.83549   0.83309   0.38419   0.00000  Uiso   1.00
C516   C     0.83118   0.83358   0.11581   0.00000  Uiso   1.00
C517   C     0.80670   0.85992   0.40620   0.00000  Uiso   1.00
C518   C     0.85997   0.80675   0.09380   0.00000  Uiso   1.00
C519   C     0.80529   0.86047   0.45247   0.00000  Uiso   1.00
C520   C     0.86137   0.80619   0.04753   0.00000  Uiso   1.00
C521   C     0.83390   0.83336   0.47664   0.00000  Uiso   1.00
C522   C     0.83277   0.83330   0.02337   0.00000  Uiso   1.00
C523   C     0.86371   0.80640   0.45407   0.00000  Uiso   1.00
C524   C     0.80295   0.86027   0.04593   0.00000  Uiso   1.00
C525   C     0.77582   0.88722   0.47507   0.00000  Uiso   1.00
C526   C     0.89085   0.77945   0.02493   0.00000  Uiso   1.00
H527   H     0.78491   0.87979   0.38664   0.00000  Uiso   1.00
H528   H     0.88175   0.78688   0.11336   0.00000  Uiso   1.00
H529   H     0.75196   0.90779   0.03795   0.00000  Uiso   1.00
H530   H     0.91471   0.75887   0.46205   0.00000  Uiso   1.00
H531   H     0.70408   0.76073   0.23873   0.00000  Uiso   1.00
H532   H     0.96259   0.90594   0.26127   0.00000  Uiso   1.00
H533   H     0.96244   0.76072   0.23890   0.00000  Uiso   1.00
H534   H     0.70422   0.90595   0.26110   0.00000  Uiso   1.00
H535   H     0.88465   0.70868   0.29410   0.00000  Uiso   1.00
H536   H     0.78201   0.95798   0.20590   0.00000  Uiso   1.00
H537   H     0.78205   0.70894   0.20582   0.00000  Uiso   1.00
H538   H     0.88462   0.95772   0.29418   0.00000  Uiso   1.00
N539   N     0.83333   0.95240   0.25000   0.00000  Uiso   1.00
N540   N     0.83333   0.71427   0.25000   0.00000  Uiso   1.00
O541   O     0.77226   0.87154   0.25000   0.00000  Uiso   1.00
O542   O     0.89441   0.79513   0.25001   0.00000  Uiso   1.00
O543   O     0.89441   0.87154   0.25001   0.00000  Uiso   1.00
O544   O     0.77226   0.79513   0.25000   0.00000  Uiso   1.00
O545   O     0.83333   0.87156   0.18393   0.00000  Uiso   1.00
O546   O     0.83334   0.79511   0.31608   0.00000  Uiso   1.00
O547   O     0.83334   0.87156   0.31608   0.00000  Uiso   1.00
O548   O     0.83333   0.79511   0.18393   0.00000  Uiso   1.00
Zn549  Zn    0.83333   0.88437   0.25000   0.00000  Uiso   1.00
Zn550  Zn    0.83333   0.78229   0.25000   0.00000  Uiso   1.00
C551   C     0.89615   0.78159   0.38293   0.00000  Uiso   1.00
N552   N     0.92130   0.76175   0.36350   0.00000  Uiso   1.00
C553   C     0.77052   0.88508   0.11707   0.00000  Uiso   1.00
N554   N     0.74537   0.90492   0.13650   0.00000  Uiso   1.00
C555   C     0.74604   0.91546   0.45180   0.00000  Uiso   1.00
N556   N     0.72222   0.93804   0.43321   0.00000  Uiso   1.00
C557   C     0.92063   0.75121   0.04821   0.00000  Uiso   1.00
N558   N     0.94444   0.72862   0.06679   0.00000  Uiso   1.00
C559   C     0.08662   0.16666   0.74994   0.00000  Uiso   1.00
C560   C     0.24671   0.16668   0.75006   0.00000  Uiso   1.00
C561   C     0.10819   0.22020   0.52134   0.00000  Uiso   1.00
C562   C     0.22515   0.11313   0.97866   0.00000  Uiso   1.00
C563   C     0.02125   0.12583   0.74378   0.00000  Uiso   1.00
C564   C     0.31208   0.20750   0.75622   0.00000  Uiso   1.00
C565   C     0.31200   0.12583   0.74388   0.00000  Uiso   1.00
C566   C     0.02134   0.20750   0.75612   0.00000  Uiso   1.00
C567   C     0.29086   0.16667   0.75008   0.00000  Uiso   1.00
C568   C     0.04247   0.16666   0.74992   0.00000  Uiso   1.00
C569   C     0.19518   0.02391   0.77453   0.00000  Uiso   1.00
C570   C     0.13816   0.30942   0.72547   0.00000  Uiso   1.00
C571   C     0.13816   0.02405   0.72545   0.00000  Uiso   1.00
C572   C     0.19517   0.30928   0.77455   0.00000  Uiso   1.00
C573   C     0.16581   0.16675   0.66353   0.00000  Uiso   1.00
C574   C     0.16753   0.16658   0.83647   0.00000  Uiso   1.00
C575   C     0.19796   0.13998   0.90733   0.00000  Uiso   1.00
C576   C     0.13538   0.19335   0.59268   0.00000  Uiso   1.00
C577   C     0.16882   0.16642   0.88419   0.00000  Uiso   1.00
C578   C     0.16451   0.16691   0.61581   0.00000  Uiso   1.00
C579   C     0.14003   0.19325   0.90620   0.00000  Uiso   1.00
C580   C     0.19330   0.14008   0.59380   0.00000  Uiso   1.00
C581   C     0.13863   0.19381   0.95247   0.00000  Uiso   1.00
C582   C     0.19471   0.13953   0.54753   0.00000  Uiso   1.00
C583   C     0.16723   0.16670   0.97664   0.00000  Uiso   1.00
C584   C     0.16610   0.16664   0.52337   0.00000  Uiso   1.00
C585   C     0.19705   0.13973   0.95407   0.00000  Uiso   1.00
C586   C     0.13629   0.19360   0.54593   0.00000  Uiso   1.00
C587   C     0.10915   0.22055   0.97507   0.00000  Uiso   1.00
C588   C     0.22418   0.11278   0.52493   0.00000  Uiso   1.00
H589   H     0.11824   0.21312   0.88664   0.00000  Uiso   1.00
H590   H     0.21509   0.12021   0.61336   0.00000  Uiso   1.00
H591   H     0.08529   0.24113   0.53795   0.00000  Uiso   1.00
H592   H     0.24804   0.09221   0.96205   0.00000  Uiso   1.00
H593   H     0.03741   0.09406   0.73873   0.00000  Uiso   1.00
H594   H     0.29592   0.23927   0.76127   0.00000  Uiso   1.00
H595   H     0.29578   0.09405   0.73890   0.00000  Uiso   1.00
H596   H     0.03756   0.23928   0.76110   0.00000  Uiso   1.00
H597   H     0.21799   0.04202   0.79410   0.00000  Uiso   1.00
H598   H     0.11535   0.29132   0.70590   0.00000  Uiso   1.00
H599   H     0.11538   0.04228   0.70582   0.00000  Uiso   1.00
H600   H     0.21795   0.29106   0.79418   0.00000  Uiso   1.00
N601   N     0.16667   0.28573   0.75000   0.00000  Uiso   1.00
N602   N     0.16667   0.04760   0.75000   0.00000  Uiso   1.00
O603   O     0.10559   0.20487   0.75000   0.00000  Uiso   1.00
O604   O     0.22774   0.12846   0.75001   0.00000  Uiso   1.00
O605   O     0.22774   0.20487   0.75001   0.00000  Uiso   1.00
O606   O     0.10559   0.12846   0.75000   0.00000  Uiso   1.00
O607   O     0.16666   0.20489   0.68393   0.00000  Uiso   1.00
O608   O     0.16667   0.12844   0.81608   0.00000  Uiso   1.00
O609   O     0.16667   0.20489   0.81608   0.00000  Uiso   1.00
O610   O     0.16666   0.12844   0.68393   0.00000  Uiso   1.00
Zn611  Zn    0.16667   0.21771   0.75000   0.00000  Uiso   1.00
Zn612  Zn    0.16667   0.11563   0.75000   0.00000  Uiso   1.00
C613   C     0.22948   0.11492   0.88293   0.00000  Uiso   1.00
N614   N     0.25463   0.09508   0.86350   0.00000  Uiso   1.00
C615   C     0.10385   0.21841   0.61707   0.00000  Uiso   1.00
N616   N     0.07870   0.23825   0.63650   0.00000  Uiso   1.00
C617   C     0.07937   0.24879   0.95180   0.00000  Uiso   1.00
N618   N     0.05556   0.27137   0.93321   0.00000  Uiso   1.00
C619   C     0.25396   0.08454   0.54821   0.00000  Uiso   1.00
N620   N     0.27778   0.06196   0.56679   0.00000  Uiso   1.00
C621   C     0.41996   0.16666   0.74994   0.00000  Uiso   1.00
C622   C     0.58004   0.16668   0.75006   0.00000  Uiso   1.00
C623   C     0.44152   0.22020   0.52134   0.00000  Uiso   1.00
C624   C     0.55848   0.11313   0.97866   0.00000  Uiso   1.00
C625   C     0.35459   0.12583   0.74378   0.00000  Uiso   1.00
C626   C     0.64541   0.20750   0.75622   0.00000  Uiso   1.00
C627   C     0.64533   0.12583   0.74388   0.00000  Uiso   1.00
C628   C     0.35467   0.20750   0.75612   0.00000  Uiso   1.00
C629   C     0.62419   0.16667   0.75008   0.00000  Uiso   1.00
C630   C     0.37581   0.16666   0.74992   0.00000  Uiso   1.00
C631   C     0.52851   0.02391   0.77453   0.00000  Uiso   1.00
C632   C     0.47149   0.30942   0.72547   0.00000  Uiso   1.00
C633   C     0.47150   0.02405   0.72545   0.00000  Uiso   1.00
C634   C     0.52850   0.30928   0.77455   0.00000  Uiso   1.00
C635   C     0.49914   0.16675   0.66353   0.00000  Uiso   1.00
C636   C     0.50086   0.16658   0.83647   0.00000  Uiso   1.00
C637   C     0.53129   0.13998   0.90733   0.00000  Uiso   1.00
C638   C     0.46871   0.19335   0.59268   0.00000  Uiso   1.00
C639   C     0.50216   0.16642   0.88419   0.00000  Uiso   1.00
C640   C     0.49784   0.16691   0.61581   0.00000  Uiso   1.00
C641   C     0.47336   0.19325   0.90620   0.00000  Uiso   1.00
C642   C     0.52664   0.14008   0.59380   0.00000  Uiso   1.00
C643   C     0.47196   0.19381   0.95247   0.00000  Uiso   1.00
C644   C     0.52804   0.13953   0.54753   0.00000  Uiso   1.00
C645   C     0.50057   0.16670   0.97664   0.00000  Uiso   1.00
C646   C     0.49943   0.16664   0.52337   0.00000  Uiso   1.00
C647   C     0.53038   0.13973   0.95407   0.00000  Uiso   1.00
C648   C     0.46962   0.19360   0.54593   0.00000  Uiso   1.00
C649   C     0.44249   0.22055   0.97507   0.00000  Uiso   1.00
C650   C     0.55751   0.11278   0.52493   0.00000  Uiso   1.00
H651   H     0.45158   0.21312   0.88664   0.00000  Uiso   1.00
H652   H     0.54842   0.12021   0.61336   0.00000  Uiso   1.00
H653   H     0.41863   0.24113   0.53795   0.00000  Uiso   1.00
H654   H     0.58137   0.09221   0.96205   0.00000  Uiso   1.00
H655   H     0.37074   0.09406   0.73873   0.00000  Uiso   1.00
H656   H     0.62926   0.23927   0.76127   0.00000  Uiso   1.00
H657   H     0.62911   0.09405   0.73890   0.00000  Uiso   1.00
H658   H     0.37089   0.23928   0.76110   0.00000  Uiso   1.00
H659   H     0.55132   0.04202   0.79410   0.00000  Uiso   1.00
H660   H     0.44868   0.29132   0.70590   0.00000  Uiso   1.00
H661   H     0.44871   0.04228   0.70582   0.00000  Uiso   1.00
H662   H     0.55129   0.29106   0.79418   0.00000  Uiso   1.00
N663   N     0.50000   0.28573   0.75000   0.00000  Uiso   1.00
N664   N     0.50000   0.04760   0.75000   0.00000  Uiso   1.00
O665   O     0.43892   0.20487   0.75000   0.00000  Uiso   1.00
O666   O     0.56108   0.12846   0.75001   0.00000  Uiso   1.00
O667   O     0.56108   0.20487   0.75001   0.00000  Uiso   1.00
O668   O     0.43892   0.12846   0.75000   0.00000  Uiso   1.00
O669   O     0.49999   0.20489   0.68393   0.00000  Uiso   1.00
O670   O     0.50001   0.12844   0.81608   0.00000  Uiso   1.00
O671   O     0.50001   0.20489   0.81608   0.00000  Uiso   1.00
O672   O     0.49999   0.12844   0.68393   0.00000  Uiso   1.00
Zn673  Zn    0.50000   0.21771   0.75000   0.00000  Uiso   1.00
Zn674  Zn    0.50000   0.11563   0.75000   0.00000  Uiso   1.00
C675   C     0.56281   0.11492   0.88293   0.00000  Uiso   1.00
N676   N     0.58797   0.09508   0.86350   0.00000  Uiso   1.00
C677   C     0.43719   0.21841   0.61707   0.00000  Uiso   1.00
N678   N     0.41203   0.23825   0.63650   0.00000  Uiso   1.00
C679   C     0.41271   0.24879   0.95180   0.00000  Uiso   1.00
N680   N     0.38889   0.27137   0.93321   0.00000  Uiso   1.00
C681   C     0.58729   0.08454   0.54821   0.00000  Uiso   1.00
N682   N     0.61111   0.06196   0.56679   0.00000  Uiso   1.00
C683   C     0.75329   0.16666   0.74994   0.00000  Uiso   1.00
C684   C     0.91338   0.16668   0.75006   0.00000  Uiso   1.00
C685   C     0.77485   0.22020   0.52134   0.00000  Uiso   1.00
C686   C     0.89181   0.11313   0.97866   0.00000  Uiso   1.00
C687   C     0.68792   0.12583   0.74378   0.00000  Uiso   1.00
C688   C     0.97875   0.20750   0.75622   0.00000  Uiso   1.00
C689   C     0.97866   0.12583   0.74388   0.00000  Uiso   1.00
C690   C     0.68800   0.20750   0.75612   0.00000  Uiso   1.00
C691   C     0.95753   0.16667   0.75008   0.00000  Uiso   1.00
C692   C     0.70914   0.16666   0.74992   0.00000  Uiso   1.00
C693   C     0.86184   0.02391   0.77453   0.00000  Uiso   1.00
C694   C     0.80482   0.30942   0.72547   0.00000  Uiso   1.00
C695   C     0.80483   0.02405   0.72545   0.00000  Uiso   1.00
C696   C     0.86184   0.30928   0.77455   0.00000  Uiso   1.00
C697   C     0.83247   0.16675   0.66353   0.00000  Uiso   1.00
C698   C     0.83419   0.16658   0.83647   0.00000  Uiso   1.00
C699   C     0.86462   0.13998   0.90733   0.00000  Uiso   1.00
C700   C     0.80204   0.19335   0.59268   0.00000  Uiso   1.00
C701   C     0.83549   0.16642   0.88419   0.00000  Uiso   1.00
C702   C     0.83118   0.16691   0.61581   0.00000  Uiso   1.00
C703   C     0.80670   0.19325   0.90620   0.00000  Uiso   1.00
C704   C     0.85997   0.14008   0.59380   0.00000  Uiso   1.00
C705   C     0.80529   0.19381   0.95247   0.00000  Uiso   1.00
C706   C     0.86137   0.13953   0.54753   0.00000  Uiso   1.00
C707   C     0.83390   0.16670   0.97664   0.00000  Uiso   1.00
C708   C     0.83277   0.16664   0.52337   0.00000  Uiso   1.00
C709   C     0.86371   0.13973   0.95407   0.00000  Uiso   1.00
C710   C     0.80295   0.19360   0.54593   0.00000  Uiso   1.00
C711   C     0.77582   0.22055   0.97507   0.00000  Uiso   1.00
C712   C     0.89085   0.11278   0.52493   0.00000  Uiso   1.00
H713   H     0.78491   0.21312   0.88664   0.00000  Uiso   1.00
H714   H     0.88175   0.12021   0.61336   0.00000  Uiso   1.00
H715   H     0.75196   0.24113   0.53795   0.00000  Uiso   1.00
H716   H     0.91471   0.09221   0.96205   0.00000  Uiso   1.00
H717   H     0.70408   0.09406   0.73873   0.00000  Uiso   1.00
H718   H     0.96259   0.23927   0.76127   0.00000  Uiso   1.00
H719   H     0.96244   0.09405   0.73890   0.00000  Uiso   1.00
H720   H     0.70422   0.23928   0.76110   0.00000  Uiso   1.00
H721   H     0.88465   0.04202   0.79410   0.00000  Uiso   1.00
H722   H     0.78201   0.29132   0.70590   0.00000  Uiso   1.00
H723   H     0.78205   0.04228   0.70582   0.00000  Uiso   1.00
H724   H     0.88462   0.29106   0.79418   0.00000  Uiso   1.00
N725   N     0.83333   0.28573   0.75000   0.00000  Uiso   1.00
N726   N     0.83333   0.04760   0.75000   0.00000  Uiso   1.00
O727   O     0.77226   0.20487   0.75000   0.00000  Uiso   1.00
O728   O     0.89441   0.12846   0.75001   0.00000  Uiso   1.00
O729   O     0.89441   0.20487   0.75001   0.00000  Uiso   1.00
O730   O     0.77226   0.12846   0.75000   0.00000  Uiso   1.00
O731   O     0.83333   0.20489   0.68393   0.00000  Uiso   1.00
O732   O     0.83334   0.12844   0.81608   0.00000  Uiso   1.00
O733   O     0.83334   0.20489   0.81608   0.00000  Uiso   1.00
O734   O     0.83333   0.12844   0.68393   0.00000  Uiso   1.00
Zn735  Zn    0.83333   0.21771   0.75000   0.00000  Uiso   1.00
Zn736  Zn    0.83333   0.11563   0.75000   0.00000  Uiso   1.00
C737   C     0.89615   0.11492   0.88293   0.00000  Uiso   1.00
N738   N     0.92130   0.09508   0.86350   0.00000  Uiso   1.00
C739   C     0.77052   0.21841   0.61707   0.00000  Uiso   1.00
N740   N     0.74537   0.23825   0.63650   0.00000  Uiso   1.00
C741   C     0.74604   0.24879   0.95180   0.00000  Uiso   1.00
N742   N     0.72222   0.27137   0.93321   0.00000  Uiso   1.00
C743   C     0.92063   0.08454   0.54821   0.00000  Uiso   1.00
N744   N     0.94444   0.06196   0.56679   0.00000  Uiso   1.00
C745   C     0.08662   0.49999   0.74994   0.00000  Uiso   1.00
C746   C     0.24671   0.50001   0.75006   0.00000  Uiso   1.00
C747   C     0.10819   0.55353   0.52134   0.00000  Uiso   1.00
C748   C     0.22515   0.44646   0.97866   0.00000  Uiso   1.00
C749   C     0.02125   0.45917   0.74378   0.00000  Uiso   1.00
C750   C     0.31208   0.54083   0.75622   0.00000  Uiso   1.00
C751   C     0.31200   0.45917   0.74388   0.00000  Uiso   1.00
C752   C     0.02134   0.54083   0.75612   0.00000  Uiso   1.00
C753   C     0.29086   0.50000   0.75008   0.00000  Uiso   1.00
C754   C     0.04247   0.50000   0.74992   0.00000  Uiso   1.00
C755   C     0.19518   0.35724   0.77453   0.00000  Uiso   1.00
C756   C     0.13816   0.64275   0.72547   0.00000  Uiso   1.00
C757   C     0.13816   0.35738   0.72545   0.00000  Uiso   1.00
C758   C     0.19517   0.64262   0.77455   0.00000  Uiso   1.00
C759   C     0.16581   0.50008   0.66353   0.00000  Uiso   1.00
C760   C     0.16753   0.49992   0.83647   0.00000  Uiso   1.00
C761   C     0.19796   0.47332   0.90733   0.00000  Uiso   1.00
C762   C     0.13538   0.52668   0.59268   0.00000  Uiso   1.00
C763   C     0.16882   0.49975   0.88419   0.00000  Uiso   1.00
C764   C     0.16451   0.50025   0.61581   0.00000  Uiso   1.00
C765   C     0.14003   0.52658   0.90620   0.00000  Uiso   1.00
C766   C     0.19330   0.47342   0.59380   0.00000  Uiso   1.00
C767   C     0.13863   0.52714   0.95247   0.00000  Uiso   1.00
C768   C     0.19471   0.47286   0.54753   0.00000  Uiso   1.00
C769   C     0.16723   0.50003   0.97664   0.00000  Uiso   1.00
C770   C     0.16610   0.49997   0.52337   0.00000  Uiso   1.00
C771   C     0.19705   0.47306   0.95407   0.00000  Uiso   1.00
C772   C     0.13629   0.52694   0.54593   0.00000  Uiso   1.00
C773   C     0.10915   0.55388   0.97507   0.00000  Uiso   1.00
C774   C     0.22418   0.44612   0.52493   0.00000  Uiso   1.00
H775   H     0.11824   0.54646   0.88664   0.00000  Uiso   1.00
H776   H     0.21509   0.45354   0.61336   0.00000  Uiso   1.00
H777   H     0.08529   0.57446   0.53795   0.00000  Uiso   1.00
H778   H     0.24804   0.42554   0.96205   0.00000  Uiso   1.00
H779   H     0.03741   0.42739   0.73873   0.00000  Uiso   1.00
H780   H     0.29592   0.57261   0.76127   0.00000  Uiso   1.00
H781   H     0.29578   0.42738   0.73890   0.00000  Uiso   1.00
H782   H     0.03756   0.57262   0.76110   0.00000  Uiso   1.00
H783   H     0.21799   0.37535   0.79410   0.00000  Uiso   1.00
H784   H     0.11535   0.62465   0.70590   0.00000  Uiso   1.00
H785   H     0.11538   0.37561   0.70582   0.00000  Uiso   1.00
H786   H     0.21795   0.62439   0.79418   0.00000  Uiso   1.00
N787   N     0.16667   0.61907   0.75000   0.00000  Uiso   1.00
N788   N     0.16667   0.38093   0.75000   0.00000  Uiso   1.00
O789   O     0.10559   0.53821   0.75000   0.00000  Uiso   1.00
O790   O     0.22774   0.46179   0.75001   0.00000  Uiso   1.00
O791   O     0.22774   0.53821   0.75001   0.00000  Uiso   1.00
O792   O     0.10559   0.46179   0.75000   0.00000  Uiso   1.00
O793   O     0.16666   0.53823   0.68393   0.00000  Uiso   1.00
O794   O     0.16667   0.46177   0.81608   0.00000  Uiso   1.00
O795   O     0.16667   0.53823   0.81608   0.00000  Uiso   1.00
O796   O     0.16666   0.46177   0.68393   0.00000  Uiso   1.00
Zn797  Zn    0.16667   0.55104   0.75000   0.00000  Uiso   1.00
Zn798  Zn    0.16667   0.44896   0.75000   0.00000  Uiso   1.00
C799   C     0.22948   0.44825   0.88293   0.00000  Uiso   1.00
N800   N     0.25463   0.42842   0.86350   0.00000  Uiso   1.00
C801   C     0.10385   0.55175   0.61707   0.00000  Uiso   1.00
N802   N     0.07870   0.57158   0.63650   0.00000  Uiso   1.00
C803   C     0.07937   0.58212   0.95180   0.00000  Uiso   1.00
N804   N     0.05556   0.60471   0.93321   0.00000  Uiso   1.00
C805   C     0.25396   0.41788   0.54821   0.00000  Uiso   1.00
N806   N     0.27778   0.39529   0.56679   0.00000  Uiso   1.00
C807   C     0.41996   0.49999   0.74994   0.00000  Uiso   1.00
C808   C     0.58004   0.50001   0.75006   0.00000  Uiso   1.00
C809   C     0.44152   0.55353   0.52134   0.00000  Uiso   1.00
C810   C     0.55848   0.44646   0.97866   0.00000  Uiso   1.00
C811   C     0.35459   0.45917   0.74378   0.00000  Uiso   1.00
C812   C     0.64541   0.54083   0.75622   0.00000  Uiso   1.00
C813   C     0.64533   0.45917   0.74388   0.00000  Uiso   1.00
C814   C     0.35467   0.54083   0.75612   0.00000  Uiso   1.00
C815   C     0.62419   0.50000   0.75008   0.00000  Uiso   1.00
C816   C     0.37581   0.50000   0.74992   0.00000  Uiso   1.00
C817   C     0.52851   0.35724   0.77453   0.00000  Uiso   1.00
C818   C     0.47149   0.64275   0.72547   0.00000  Uiso   1.00
C819   C     0.47150   0.35738   0.72545   0.00000  Uiso   1.00
C820   C     0.52850   0.64262   0.77455   0.00000  Uiso   1.00
C821   C     0.49914   0.50008   0.66353   0.00000  Uiso   1.00
C822   C     0.50086   0.49992   0.83647   0.00000  Uiso   1.00
C823   C     0.53129   0.47332   0.90733   0.00000  Uiso   1.00
C824   C     0.46871   0.52668   0.59268   0.00000  Uiso   1.00
C825   C     0.50216   0.49975   0.88419   0.00000  Uiso   1.00
C826   C     0.49784   0.50025   0.61581   0.00000  Uiso   1.00
C827   C     0.47336   0.52658   0.90620   0.00000  Uiso   1.00
C828   C     0.52664   0.47342   0.59380   0.00000  Uiso   1.00
C829   C     0.47196   0.52714   0.95247   0.00000  Uiso   1.00
C830   C     0.52804   0.47286   0.54753   0.00000  Uiso   1.00
C831   C     0.50057   0.50003   0.97664   0.00000  Uiso   1.00
C832   C     0.49943   0.49997   0.52337   0.00000  Uiso   1.00
C833   C     0.53038   0.47306   0.95407   0.00000  Uiso   1.00
C834   C     0.46962   0.52694   0.54593   0.00000  Uiso   1.00
C835   C     0.44249   0.55388   0.97507   0.00000  Uiso   1.00
C836   C     0.55751   0.44612   0.52493   0.00000  Uiso   1.00
H837   H     0.45158   0.54646   0.88664   0.00000  Uiso   1.00
H838   H     0.54842   0.45354   0.61336   0.00000  Uiso   1.00
H839   H     0.41863   0.57446   0.53795   0.00000  Uiso   1.00
H840   H     0.58137   0.42554   0.96205   0.00000  Uiso   1.00
H841   H     0.37074   0.42739   0.73873   0.00000  Uiso   1.00
H842   H     0.62926   0.57261   0.76127   0.00000  Uiso   1.00
H843   H     0.62911   0.42738   0.73890   0.00000  Uiso   1.00
H844   H     0.37089   0.57262   0.76110   0.00000  Uiso   1.00
H845   H     0.55132   0.37535   0.79410   0.00000  Uiso   1.00
H846   H     0.44868   0.62465   0.70590   0.00000  Uiso   1.00
H847   H     0.44871   0.37561   0.70582   0.00000  Uiso   1.00
H848   H     0.55129   0.62439   0.79418   0.00000  Uiso   1.00
N849   N     0.50000   0.61907   0.75000   0.00000  Uiso   1.00
N850   N     0.50000   0.38093   0.75000   0.00000  Uiso   1.00
O851   O     0.43892   0.53821   0.75000   0.00000  Uiso   1.00
O852   O     0.56108   0.46179   0.75001   0.00000  Uiso   1.00
O853   O     0.56108   0.53821   0.75001   0.00000  Uiso   1.00
O854   O     0.43892   0.46179   0.75000   0.00000  Uiso   1.00
O855   O     0.49999   0.53823   0.68393   0.00000  Uiso   1.00
O856   O     0.50001   0.46177   0.81608   0.00000  Uiso   1.00
O857   O     0.50001   0.53823   0.81608   0.00000  Uiso   1.00
O858   O     0.49999   0.46177   0.68393   0.00000  Uiso   1.00
Zn859  Zn    0.50000   0.55104   0.75000   0.00000  Uiso   1.00
Zn860  Zn    0.50000   0.44896   0.75000   0.00000  Uiso   1.00
C861   C     0.56281   0.44825   0.88293   0.00000  Uiso   1.00
N862   N     0.58797   0.42842   0.86350   0.00000  Uiso   1.00
C863   C     0.43719   0.55175   0.61707   0.00000  Uiso   1.00
N864   N     0.41203   0.57158   0.63650   0.00000  Uiso   1.00
C865   C     0.41271   0.58212   0.95180   0.00000  Uiso   1.00
N866   N     0.38889   0.60471   0.93321   0.00000  Uiso   1.00
C867   C     0.58729   0.41788   0.54821   0.00000  Uiso   1.00
N868   N     0.61111   0.39529   0.56679   0.00000  Uiso   1.00
C869   C     0.75329   0.49999   0.74994   0.00000  Uiso   1.00
C870   C     0.91338   0.50001   0.75006   0.00000  Uiso   1.00
C871   C     0.77485   0.55353   0.52134   0.00000  Uiso   1.00
C872   C     0.89181   0.44646   0.97866   0.00000  Uiso   1.00
C873   C     0.68792   0.45917   0.74378   0.00000  Uiso   1.00
C874   C     0.97875   0.54083   0.75622   0.00000  Uiso   1.00
C875   C     0.97866   0.45917   0.74388   0.00000  Uiso   1.00
C876   C     0.68800   0.54083   0.75612   0.00000  Uiso   1.00
C877   C     0.95753   0.50000   0.75008   0.00000  Uiso   1.00
C878   C     0.70914   0.50000   0.74992   0.00000  Uiso   1.00
C879   C     0.86184   0.35724   0.77453   0.00000  Uiso   1.00
C880   C     0.80482   0.64275   0.72547   0.00000  Uiso   1.00
C881   C     0.80483   0.35738   0.72545   0.00000  Uiso   1.00
C882   C     0.86184   0.64262   0.77455   0.00000  Uiso   1.00
C883   C     0.83247   0.50008   0.66353   0.00000  Uiso   1.00
C884   C     0.83419   0.49992   0.83647   0.00000  Uiso   1.00
C885   C     0.86462   0.47332   0.90733   0.00000  Uiso   1.00
C886   C     0.80204   0.52668   0.59268   0.00000  Uiso   1.00
C887   C     0.83549   0.49975   0.88419   0.00000  Uiso   1.00
C888   C     0.83118   0.50025   0.61581   0.00000  Uiso   1.00
C889   C     0.80670   0.52658   0.90620   0.00000  Uiso   1.00
C890   C     0.85997   0.47342   0.59380   0.00000  Uiso   1.00
C891   C     0.80529   0.52714   0.95247   0.00000  Uiso   1.00
C892   C     0.86137   0.47286   0.54753   0.00000  Uiso   1.00
C893   C     0.83390   0.50003   0.97664   0.00000  Uiso   1.00
C894   C     0.83277   0.49997   0.52337   0.00000  Uiso   1.00
C895   C     0.86371   0.47306   0.95407   0.00000  Uiso   1.00
C896   C     0.80295   0.52694   0.54593   0.00000  Uiso   1.00
C897   C     0.77582   0.55388   0.97507   0.00000  Uiso   1.00
C898   C     0.89085   0.44612   0.52493   0.00000  Uiso   1.00
H899   H     0.78491   0.54646   0.88664   0.00000  Uiso   1.00
H900   H     0.88175   0.45354   0.61336   0.00000  Uiso   1.00
H901   H     0.75196   0.57446   0.53795   0.00000  Uiso   1.00
H902   H     0.91471   0.42554   0.96205   0.00000  Uiso   1.00
H903   H     0.70408   0.42739   0.73873   0.00000  Uiso   1.00
H904   H     0.96259   0.57261   0.76127   0.00000  Uiso   1.00
H905   H     0.96244   0.42738   0.73890   0.00000  Uiso   1.00
H906   H     0.70422   0.57262   0.76110   0.00000  Uiso   1.00
H907   H     0.88465   0.37535   0.79410   0.00000  Uiso   1.00
H908   H     0.78201   0.62465   0.70590   0.00000  Uiso   1.00
H909   H     0.78205   0.37561   0.70582   0.00000  Uiso   1.00
H910   H     0.88462   0.62439   0.79418   0.00000  Uiso   1.00
N911   N     0.83333   0.61907   0.75000   0.00000  Uiso   1.00
N912   N     0.83333   0.38093   0.75000   0.00000  Uiso   1.00
O913   O     0.77226   0.53821   0.75000   0.00000  Uiso   1.00
O914   O     0.89441   0.46179   0.75001   0.00000  Uiso   1.00
O915   O     0.89441   0.53821   0.75001   0.00000  Uiso   1.00
O916   O     0.77226   0.46179   0.75000   0.00000  Uiso   1.00
O917   O     0.83333   0.53823   0.68393   0.00000  Uiso   1.00
O918   O     0.83334   0.46177   0.81608   0.00000  Uiso   1.00
O919   O     0.83334   0.53823   0.81608   0.00000  Uiso   1.00
O920   O     0.83333   0.46177   0.68393   0.00000  Uiso   1.00
Zn921  Zn    0.83333   0.55104   0.75000   0.00000  Uiso   1.00
Zn922  Zn    0.83333   0.44896   0.75000   0.00000  Uiso   1.00
C923   C     0.89615   0.44825   0.88293   0.00000  Uiso   1.00
N924   N     0.92130   0.42842   0.86350   0.00000  Uiso   1.00
C925   C     0.77052   0.55175   0.61707   0.00000  Uiso   1.00
N926   N     0.74537   0.57158   0.63650   0.00000  Uiso   1.00
C927   C     0.74604   0.58212   0.95180   0.00000  Uiso   1.00
N928   N     0.72222   0.60471   0.93321   0.00000  Uiso   1.00
C929   C     0.92063   0.41788   0.54821   0.00000  Uiso   1.00
N930   N     0.94444   0.39529   0.56679   0.00000  Uiso   1.00
C931   C     0.08662   0.83332   0.74994   0.00000  Uiso   1.00
C932   C     0.24671   0.83334   0.75006   0.00000  Uiso   1.00
C933   C     0.10819   0.88687   0.52134   0.00000  Uiso   1.00
C934   C     0.22515   0.77980   0.97866   0.00000  Uiso   1.00
C935   C     0.02125   0.79250   0.74378   0.00000  Uiso   1.00
C936   C     0.31208   0.87417   0.75622   0.00000  Uiso   1.00
C937   C     0.31200   0.79250   0.74388   0.00000  Uiso   1.00
C938   C     0.02134   0.87417   0.75612   0.00000  Uiso   1.00
C939   C     0.29086   0.83334   0.75008   0.00000  Uiso   1.00
C940   C     0.04247   0.83333   0.74992   0.00000  Uiso   1.00
C941   C     0.19518   0.69058   0.77453   0.00000  Uiso   1.00
C942   C     0.13816   0.97609   0.72547   0.00000  Uiso   1.00
C943   C     0.13816   0.69072   0.72545   0.00000  Uiso   1.00
C944   C     0.19517   0.97595   0.77455   0.00000  Uiso   1.00
C945   C     0.16581   0.83342   0.66353   0.00000  Uiso   1.00
C946   C     0.16753   0.83325   0.83647   0.00000  Uiso   1.00
C947   C     0.19796   0.80665   0.90733   0.00000  Uiso   1.00
C948   C     0.13538   0.86002   0.59268   0.00000  Uiso   1.00
C949   C     0.16882   0.83309   0.88419   0.00000  Uiso   1.00
C950   C     0.16451   0.83358   0.61581   0.00000  Uiso   1.00
C951   C     0.14003   0.85992   0.90620   0.00000  Uiso   1.00
C952   C     0.19330   0.80675   0.59380   0.00000  Uiso   1.00
C953   C     0.13863   0.86047   0.95247   0.00000  Uiso   1.00
C954   C     0.19471   0.80619   0.54753   0.00000  Uiso   1.00
C955   C     0.16723   0.83336   0.97664   0.00000  Uiso   1.00
C956   C     0.16610   0.83330   0.52337   0.00000  Uiso   1.00
C957   C     0.19705   0.80640   0.95407   0.00000  Uiso   1.00
C958   C     0.13629   0.86027   0.54593   0.00000  Uiso   1.00
C959   C     0.10915   0.88722   0.97507   0.00000  Uiso   1.00
C960   C     0.22418   0.77945   0.52493   0.00000  Uiso   1.00
H961   H     0.11824   0.87979   0.88664   0.00000  Uiso   1.00
H962   H     0.21509   0.78688   0.61336   0.00000  Uiso   1.00
H963   H     0.08529   0.90779   0.53795   0.00000  Uiso   1.00
H964   H     0.24804   0.75887   0.96205   0.00000  Uiso   1.00
H965   H     0.03741   0.76073   0.73873   0.00000  Uiso   1.00
H966   H     0.29592   0.90594   0.76127   0.00000  Uiso   1.00
H967   H     0.29578   0.76072   0.73890   0.00000  Uiso   1.00
H968   H     0.03756   0.90595   0.76110   0.00000  Uiso   1.00
H969   H     0.21799   0.70868   0.79410   0.00000  Uiso   1.00
H970   H     0.11535   0.95798   0.70590   0.00000  Uiso   1.00
H971   H     0.11538   0.70894   0.70582   0.00000  Uiso   1.00
H972   H     0.21795   0.95772   0.79418   0.00000  Uiso   1.00
N973   N     0.16667   0.95240   0.75000   0.00000  Uiso   1.00
N974   N     0.16667   0.71427   0.75000   0.00000  Uiso   1.00
O975   O     0.10559   0.87154   0.75000   0.00000  Uiso   1.00
O976   O     0.22774   0.79513   0.75001   0.00000  Uiso   1.00
O977   O     0.22774   0.87154   0.75001   0.00000  Uiso   1.00
O978   O     0.10559   0.79513   0.75000   0.00000  Uiso   1.00
O979   O     0.16666   0.87156   0.68393   0.00000  Uiso   1.00
O980   O     0.16667   0.79511   0.81608   0.00000  Uiso   1.00
O981   O     0.16667   0.87156   0.81608   0.00000  Uiso   1.00
O982   O     0.16666   0.79511   0.68393   0.00000  Uiso   1.00
Zn983  Zn    0.16667   0.88437   0.75000   0.00000  Uiso   1.00
Zn984  Zn    0.16667   0.78229   0.75000   0.00000  Uiso   1.00
C985   C     0.22948   0.78159   0.88293   0.00000  Uiso   1.00
N986   N     0.25463   0.76175   0.86350   0.00000  Uiso   1.00
C987   C     0.10385   0.88508   0.61707   0.00000  Uiso   1.00
N988   N     0.07870   0.90492   0.63650   0.00000  Uiso   1.00
C989   C     0.07937   0.91546   0.95180   0.00000  Uiso   1.00
N990   N     0.05556   0.93804   0.93321   0.00000  Uiso   1.00
C991   C     0.25396   0.75121   0.54821   0.00000  Uiso   1.00
N992   N     0.27778   0.72862   0.56679   0.00000  Uiso   1.00
C993   C     0.41996   0.83332   0.74994   0.00000  Uiso   1.00
C994   C     0.58004   0.83334   0.75006   0.00000  Uiso   1.00
C995   C     0.44152   0.88687   0.52134   0.00000  Uiso   1.00
C996   C     0.55848   0.77980   0.97866   0.00000  Uiso   1.00
C997   C     0.35459   0.79250   0.74378   0.00000  Uiso   1.00
C998   C     0.64541   0.87417   0.75622   0.00000  Uiso   1.00
C999   C     0.64533   0.79250   0.74388   0.00000  Uiso   1.00
C1000  C     0.35467   0.87417   0.75612   0.00000  Uiso   1.00
C1001  C     0.62419   0.83334   0.75008   0.00000  Uiso   1.00
C1002  C     0.37581   0.83333   0.74992   0.00000  Uiso   1.00
C1003  C     0.52851   0.69058   0.77453   0.00000  Uiso   1.00
C1004  C     0.47149   0.97609   0.72547   0.00000  Uiso   1.00
C1005  C     0.47150   0.69072   0.72545   0.00000  Uiso   1.00
C1006  C     0.52850   0.97595   0.77455   0.00000  Uiso   1.00
C1007  C     0.49914   0.83342   0.66353   0.00000  Uiso   1.00
C1008  C     0.50086   0.83325   0.83647   0.00000  Uiso   1.00
C1009  C     0.53129   0.80665   0.90733   0.00000  Uiso   1.00
C1010  C     0.46871   0.86002   0.59268   0.00000  Uiso   1.00
C1011  C     0.50216   0.83309   0.88419   0.00000  Uiso   1.00
C1012  C     0.49784   0.83358   0.61581   0.00000  Uiso   1.00
C1013  C     0.47336   0.85992   0.90620   0.00000  Uiso   1.00
C1014  C     0.52664   0.80675   0.59380   0.00000  Uiso   1.00
C1015  C     0.47196   0.86047   0.95247   0.00000  Uiso   1.00
C1016  C     0.52804   0.80619   0.54753   0.00000  Uiso   1.00
C1017  C     0.50057   0.83336   0.97664   0.00000  Uiso   1.00
C1018  C     0.49943   0.83330   0.52337   0.00000  Uiso   1.00
C1019  C     0.53038   0.80640   0.95407   0.00000  Uiso   1.00
C1020  C     0.46962   0.86027   0.54593   0.00000  Uiso   1.00
C1021  C     0.44249   0.88722   0.97507   0.00000  Uiso   1.00
C1022  C     0.55751   0.77945   0.52493   0.00000  Uiso   1.00
H1023  H     0.45158   0.87979   0.88664   0.00000  Uiso   1.00
H1024  H     0.54842   0.78688   0.61336   0.00000  Uiso   1.00
H1025  H     0.41863   0.90779   0.53795   0.00000  Uiso   1.00
H1026  H     0.58137   0.75887   0.96205   0.00000  Uiso   1.00
H1027  H     0.37074   0.76073   0.73873   0.00000  Uiso   1.00
H1028  H     0.62926   0.90594   0.76127   0.00000  Uiso   1.00
H1029  H     0.62911   0.76072   0.73890   0.00000  Uiso   1.00
H1030  H     0.37089   0.90595   0.76110   0.00000  Uiso   1.00
H1031  H     0.55132   0.70868   0.79410   0.00000  Uiso   1.00
H1032  H     0.44868   0.95798   0.70590   0.00000  Uiso   1.00
H1033  H     0.44871   0.70894   0.70582   0.00000  Uiso   1.00
H1034  H     0.55129   0.95772   0.79418   0.00000  Uiso   1.00
N1035  N     0.50000   0.95240   0.75000   0.00000  Uiso   1.00
N1036  N     0.50000   0.71427   0.75000   0.00000  Uiso   1.00
O1037  O     0.43892   0.87154   0.75000   0.00000  Uiso   1.00
O1038  O     0.56108   0.79513   0.75001   0.00000  Uiso   1.00
O1039  O     0.56108   0.87154   0.75001   0.00000  Uiso   1.00
O1040  O     0.43892   0.79513   0.75000   0.00000  Uiso   1.00
O1041  O     0.49999   0.87156   0.68393   0.00000  Uiso   1.00
O1042  O     0.50001   0.79511   0.81608   0.00000  Uiso   1.00
O1043  O     0.50001   0.87156   0.81608   0.00000  Uiso   1.00
O1044  O     0.49999   0.79511   0.68393   0.00000  Uiso   1.00
Zn1045 Zn    0.50000   0.88437   0.75000   0.00000  Uiso   1.00
Zn1046 Zn    0.50000   0.78229   0.75000   0.00000  Uiso   1.00
C1047  C     0.56281   0.78159   0.88293   0.00000  Uiso   1.00
N1048  N     0.58797   0.76175   0.86350   0.00000  Uiso   1.00
C1049  C     0.43719   0.88508   0.61707   0.00000  Uiso   1.00
N1050  N     0.41203   0.90492   0.63650   0.00000  Uiso   1.00
C1051  C     0.41271   0.91546   0.95180   0.00000  Uiso   1.00
N1052  N     0.38889   0.93804   0.93321   0.00000  Uiso   1.00
C1053  C     0.58729   0.75121   0.54821   0.00000  Uiso   1.00
N1054  N     0.61111   0.72862   0.56679   0.00000  Uiso   1.00
C1055  C     0.75329   0.83332   0.74994   0.00000  Uiso   1.00
C1056  C     0.91338   0.83334   0.75006   0.00000  Uiso   1.00
C1057  C     0.77485   0.88687   0.52134   0.00000  Uiso   1.00
C1058  C     0.89181   0.77980   0.97866   0.00000  Uiso   1.00
C1059  C     0.68792   0.79250   0.74378   0.00000  Uiso   1.00
C1060  C     0.97875   0.87417   0.75622   0.00000  Uiso   1.00
C1061  C     0.97866   0.79250   0.74388   0.00000  Uiso   1.00
C1062  C     0.68800   0.87417   0.75612   0.00000  Uiso   1.00
C1063  C     0.95753   0.83334   0.75008   0.00000  Uiso   1.00
C1064  C     0.70914   0.83333   0.74992   0.00000  Uiso   1.00
C1065  C     0.86184   0.69058   0.77453   0.00000  Uiso   1.00
C1066  C     0.80482   0.97609   0.72547   0.00000  Uiso   1.00
C1067  C     0.80483   0.69072   0.72545   0.00000  Uiso   1.00
C1068  C     0.86184   0.97595   0.77455   0.00000  Uiso   1.00
C1069  C     0.83247   0.83342   0.66353   0.00000  Uiso   1.00
C1070  C     0.83419   0.83325   0.83647   0.00000  Uiso   1.00
C1071  C     0.86462   0.80665   0.90733   0.00000  Uiso   1.00
C1072  C     0.80204   0.86002   0.59268   0.00000  Uiso   1.00
C1073  C     0.83549   0.83309   0.88419   0.00000  Uiso   1.00
C1074  C     0.83118   0.83358   0.61581   0.00000  Uiso   1.00
C1075  C     0.80670   0.85992   0.90620   0.00000  Uiso   1.00
C1076  C     0.85997   0.80675   0.59380   0.00000  Uiso   1.00
C1077  C     0.80529   0.86047   0.95247   0.00000  Uiso   1.00
C1078  C     0.86137   0.80619   0.54753   0.00000  Uiso   1.00
C1079  C     0.83390   0.83336   0.97664   0.00000  Uiso   1.00
C1080  C     0.83277   0.83330   0.52337   0.00000  Uiso   1.00
C1081  C     0.86371   0.80640   0.95407   0.00000  Uiso   1.00
C1082  C     0.80295   0.86027   0.54593   0.00000  Uiso   1.00
C1083  C     0.77582   0.88722   0.97507   0.00000  Uiso   1.00
C1084  C     0.89085   0.77945   0.52493   0.00000  Uiso   1.00
H1085  H     0.78491   0.87979   0.88664   0.00000  Uiso   1.00
H1086  H     0.88175   0.78688   0.61336   0.00000  Uiso   1.00
H1087  H     0.75196   0.90779   0.53795   0.00000  Uiso   1.00
H1088  H     0.91471   0.75887   0.96205   0.00000  Uiso   1.00
H1089  H     0.70408   0.76073   0.73873   0.00000  Uiso   1.00
H1090  H     0.96259   0.90594   0.76127   0.00000  Uiso   1.00
H1091  H     0.96244   0.76072   0.73890   0.00000  Uiso   1.00
H1092  H     0.70422   0.90595   0.76110   0.00000  Uiso   1.00
H1093  H     0.88465   0.70868   0.79410   0.00000  Uiso   1.00
H1094  H     0.78201   0.95798   0.70590   0.00000  Uiso   1.00
H1095  H     0.78205   0.70894   0.70582   0.00000  Uiso   1.00
H1096  H     0.88462   0.95772   0.79418   0.00000  Uiso   1.00
N1097  N     0.83333   0.95240   0.75000   0.00000  Uiso   1.00
N1098  N     0.83333   0.71427   0.75000   0.00000  Uiso   1.00
O1099  O     0.77226   0.87154   0.75000   0.00000  Uiso   1.00
O1100  O     0.89441   0.79513   0.75001   0.00000  Uiso   1.00
O1101  O     0.89441   0.87154   0.75001   0.00000  Uiso   1.00
O1102  O     0.77226   0.79513   0.75000   0.00000  Uiso   1.00
O1103  O     0.83333   0.87156   0.68393   0.00000  Uiso   1.00
O1104  O     0.83334   0.79511   0.81608   0.00000  Uiso   1.00
O1105  O     0.83334   0.87156   0.81608   0.00000  Uiso   1.00
O1106  O     0.83333   0.79511   0.68393   0.00000  Uiso   1.00
Zn1107 Zn    0.83333   0.88437   0.75000   0.00000  Uiso   1.00
Zn1108 Zn    0.83333   0.78229   0.75000   0.00000  Uiso   1.00
C1109  C     0.89615   0.78159   0.88293   0.00000  Uiso   1.00
N1110  N     0.92130   0.76175   0.86350   0.00000  Uiso   1.00
C1111  C     0.77052   0.88508   0.61707   0.00000  Uiso   1.00
N1112  N     0.74537   0.90492   0.63650   0.00000  Uiso   1.00
C1113  C     0.74604   0.91546   0.95180   0.00000  Uiso   1.00
N1114  N     0.72222   0.93804   0.93321   0.00000  Uiso   1.00
C1115  C     0.92063   0.75121   0.54821   0.00000  Uiso   1.00
N1116  N     0.94444   0.72862   0.56679   0.00000  Uiso   1.00
loop_
_geom_bond_atom_site_label_1
_geom_bond_atom_site_label_2
_geom_bond_distance
_geom_bond_site_symmetry_2
_ccdc_geom_bond_type
C1     O48     1.282   .     A
C1     O45     1.282   .     A
C1     C10     1.420   .     S
C2     O47     1.282   .     A
C2     O46     1.282   .     A
C2     C9      1.420   .     S
C3     C28     1.404   .     A
C3     H33     1.084   .     S
C3     C587    1.387   1_554 S
C4     H34     1.084   .     S
C4     C27     1.404   .     A
C4     C588    1.387   .     S
C5     H35     1.084   .     S
C5     C10     1.397   .     A
C5     C131    1.369   1_455 S
C6     C9      1.397   .     A
C6     H36     1.084   .     S
C6     C70     1.369   .     S
C7     C9      1.397   .     A
C7     H37     1.084   .     S
C7     C67     1.369   .     S
C8     H38     1.084   .     S
C8     C10     1.397   .     A
C8     C130    1.369   1_455 S
C11    H39     1.081   .     S
C11    N44     1.366   .     A
C11    C386    1.416   1_545 S
C12    H40     1.081   .     S
C12    N43     1.366   .     A
C12    C199    1.416   .     S
C13    H41     1.082   .     S
C13    N44     1.366   .     A
C13    C384    1.416   1_545 S
C14    H42     1.082   .     S
C14    N43     1.366   .     A
C14    C197    1.416   .     S
C15    O52     1.284   .     A
C15    O49     1.283   .     A
C15    C20     1.430   .     S
C16    O51     1.284   .     A
C16    C19     1.430   .     S
C16    O50     1.283   .     A
C17    C55     1.454   .     S
C17    C27     1.401   .     A
C17    C19     1.401   .     A
C18    C57     1.454   .     S
C18    C28     1.401   .     A
C18    C20     1.401   .     A
C19    C21     1.387   .     A
C20    C22     1.387   .     A
C21    H31     1.084   .     S
C21    C23     1.387   .     A
C22    H32     1.084   .     S
C22    C24     1.387   .     A
C23    C29     1.409   .     A
C23    C25     1.417   .     A
C24    C26     1.417   .     A
C24    C30     1.409   .     A
C25    C27     1.420   .     A
C25    C584    1.401   .     S
C26    C28     1.420   .     A
C26    C583    1.401   1_554 S
C29    C59     1.447   .     S
C29    C561    1.387   .     S
C30    C61     1.447   .     S
C30    C562    1.387   1_554 S
N43    Zn53    2.008   .     S
N44    Zn54    2.008   .     S
O45    Zn53    2.000   .     S
O46    Zn54    2.000   .     S
O47    Zn53    2.000   .     S
O48    Zn54    2.000   .     S
O49    Zn53    2.017   .     S
O50    Zn54    2.017   .     S
O51    Zn53    2.014   .     S
O52    Zn54    2.014   .     S
C55    N56     1.157   .     T
C57    N58     1.157   .     T
C59    N60     1.157   .     T
C61    N62     1.157   .     T
C63    O110    1.282   .     A
C63    O107    1.282   .     A
C63    C72     1.420   .     S
C64    O109    1.282   .     A
C64    O108    1.282   .     A
C64    C71     1.420   .     S
C65    C90     1.404   .     A
C65    H95     1.084   .     S
C65    C649    1.387   1_554 S
C66    H96     1.084   .     S
C66    C89     1.404   .     A
C66    C650    1.387   .     S
C67    H97     1.084   .     S
C67    C72     1.397   .     A
C68    C71     1.397   .     A
C68    H98     1.084   .     S
C68    C132    1.369   .     S
C69    C71     1.397   .     A
C69    H99     1.084   .     S
C69    C129    1.369   .     S
C70    H100    1.084   .     S
C70    C72     1.397   .     A
C73    H101    1.081   .     S
C73    N106    1.366   .     A
C73    C448    1.416   1_545 S
C74    H102    1.081   .     S
C74    N105    1.366   .     A
C74    C261    1.416   .     S
C75    H103    1.082   .     S
C75    N106    1.366   .     A
C75    C446    1.416   1_545 S
C76    H104    1.082   .     S
C76    N105    1.366   .     A
C76    C259    1.416   .     S
C77    O114    1.284   .     A
C77    O111    1.283   .     A
C77    C82     1.430   .     S
C78    O113    1.284   .     A
C78    C81     1.430   .     S
C78    O112    1.283   .     A
C79    C117    1.454   .     S
C79    C89     1.401   .     A
C79    C81     1.401   .     A
C80    C119    1.454   .     S
C80    C90     1.401   .     A
C80    C82     1.401   .     A
C81    C83     1.387   .     A
C82    C84     1.387   .     A
C83    H93     1.084   .     S
C83    C85     1.387   .     A
C84    H94     1.084   .     S
C84    C86     1.387   .     A
C85    C91     1.409   .     A
C85    C87     1.417   .     A
C86    C88     1.417   .     A
C86    C92     1.409   .     A
C87    C89     1.420   .     A
C87    C646    1.401   .     S
C88    C90     1.420   .     A
C88    C645    1.401   1_554 S
C91    C121    1.447   .     S
C91    C623    1.387   .     S
C92    C123    1.447   .     S
C92    C624    1.387   1_554 S
N105   Zn115   2.008   .     S
N106   Zn116   2.008   .     S
O107   Zn115   2.000   .     S
O108   Zn116   2.000   .     S
O109   Zn115   2.000   .     S
O110   Zn116   2.000   .     S
O111   Zn115   2.017   .     S
O112   Zn116   2.017   .     S
O113   Zn115   2.014   .     S
O114   Zn116   2.014   .     S
C117   N118    1.157   .     T
C119   N120    1.157   .     T
C121   N122    1.157   .     T
C123   N124    1.157   .     T
C125   O172    1.282   .     A
C125   O169    1.282   .     A
C125   C134    1.420   .     S
C126   O171    1.282   .     A
C126   O170    1.282   .     A
C126   C133    1.420   .     S
C127   C152    1.404   .     A
C127   H157    1.084   .     S
C127   C711    1.387   1_554 S
C128   H158    1.084   .     S
C128   C151    1.404   .     A
C128   C712    1.387   .     S
C129   H159    1.084   .     S
C129   C134    1.397   .     A
C130   C133    1.397   .     A
C130   H160    1.084   .     S
C130   C8      1.369   1_655 S
C131   C133    1.397   .     A
C131   H161    1.084   .     S
C131   C5      1.369   1_655 S
C132   H162    1.084   .     S
C132   C134    1.397   .     A
C135   H163    1.081   .     S
C135   N168    1.366   .     A
C135   C510    1.416   1_545 S
C136   H164    1.081   .     S
C136   N167    1.366   .     A
C136   C323    1.416   .     S
C137   H165    1.082   .     S
C137   N168    1.366   .     A
C137   C508    1.416   1_545 S
C138   H166    1.082   .     S
C138   N167    1.366   .     A
C138   C321    1.416   .     S
C139   O176    1.284   .     A
C139   O173    1.283   .     A
C139   C144    1.430   .     S
C140   O175    1.284   .     A
C140   C143    1.430   .     S
C140   O174    1.283   .     A
C141   C179    1.454   .     S
C141   C151    1.401   .     A
C141   C143    1.401   .     A
C142   C181    1.454   .     S
C142   C152    1.401   .     A
C142   C144    1.401   .     A
C143   C145    1.387   .     A
C144   C146    1.387   .     A
C145   H155    1.084   .     S
C145   C147    1.387   .     A
C146   H156    1.084   .     S
C146   C148    1.387   .     A
C147   C153    1.409   .     A
C147   C149    1.417   .     A
C148   C150    1.417   .     A
C148   C154    1.409   .     A
C149   C151    1.420   .     A
C149   C708    1.401   .     S
C150   C152    1.420   .     A
C150   C707    1.401   1_554 S
C153   C183    1.447   .     S
C153   C685    1.387   .     S
C154   C185    1.447   .     S
C154   C686    1.387   1_554 S
N167   Zn177   2.008   .     S
N168   Zn178   2.008   .     S
O169   Zn177   2.000   .     S
O170   Zn178   2.000   .     S
O171   Zn177   2.000   .     S
O172   Zn178   2.000   .     S
O173   Zn177   2.017   .     S
O174   Zn178   2.017   .     S
O175   Zn177   2.014   .     S
O176   Zn178   2.014   .     S
C179   N180    1.157   .     T
C181   N182    1.157   .     T
C183   N184    1.157   .     T
C185   N186    1.157   .     T
C187   O234    1.282   .     A
C187   O231    1.282   .     A
C187   C196    1.420   .     S
C188   O233    1.282   .     A
C188   O232    1.282   .     A
C188   C195    1.420   .     S
C189   C214    1.404   .     A
C189   H219    1.084   .     S
C189   C773    1.387   1_554 S
C190   H220    1.084   .     S
C190   C213    1.404   .     A
C190   C774    1.387   .     S
C191   H221    1.084   .     S
C191   C196    1.397   .     A
C191   C317    1.369   1_455 S
C192   C195    1.397   .     A
C192   H222    1.084   .     S
C192   C256    1.369   .     S
C193   C195    1.397   .     A
C193   H223    1.084   .     S
C193   C253    1.369   .     S
C194   H224    1.084   .     S
C194   C196    1.397   .     A
C194   C316    1.369   1_455 S
C197   H225    1.081   .     S
C197   N230    1.366   .     A
C198   H226    1.081   .     S
C198   N229    1.366   .     A
C198   C385    1.416   .     S
C199   H227    1.082   .     S
C199   N230    1.366   .     A
C200   H228    1.082   .     S
C200   N229    1.366   .     A
C200   C383    1.416   .     S
C201   O238    1.284   .     A
C201   O235    1.283   .     A
C201   C206    1.430   .     S
C202   O237    1.284   .     A
C202   C205    1.430   .     S
C202   O236    1.283   .     A
C203   C241    1.454   .     S
C203   C213    1.401   .     A
C203   C205    1.401   .     A
C204   C243    1.454   .     S
C204   C214    1.401   .     A
C204   C206    1.401   .     A
C205   C207    1.387   .     A
C206   C208    1.387   .     A
C207   H217    1.084   .     S
C207   C209    1.387   .     A
C208   H218    1.084   .     S
C208   C210    1.387   .     A
C209   C215    1.409   .     A
C209   C211    1.417   .     A
C210   C212    1.417   .     A
C210   C216    1.409   .     A
C211   C213    1.420   .     A
C211   C770    1.401   .     S
C212   C214    1.420   .     A
C212   C769    1.401   1_554 S
C215   C245    1.447   .     S
C215   C747    1.387   .     S
C216   C247    1.447   .     S
C216   C748    1.387   1_554 S
N229   Zn239   2.008   .     S
N230   Zn240   2.008   .     S
O231   Zn239   2.000   .     S
O232   Zn240   2.000   .     S
O233   Zn239   2.000   .     S
O234   Zn240   2.000   .     S
O235   Zn239   2.017   .     S
O236   Zn240   2.017   .     S
O237   Zn239   2.014   .     S
O238   Zn240   2.014   .     S
C241   N242    1.157   .     T
C243   N244    1.157   .     T
C245   N246    1.157   .     T
C247   N248    1.157   .     T
C249   O296    1.282   .     A
C249   O293    1.282   .     A
C249   C258    1.420   .     S
C250   O295    1.282   .     A
C250   O294    1.282   .     A
C250   C257    1.420   .     S
C251   C276    1.404   .     A
C251   H281    1.084   .     S
C251   C835    1.387   1_554 S
C252   H282    1.084   .     S
C252   C275    1.404   .     A
C252   C836    1.387   .     S
C253   H283    1.084   .     S
C253   C258    1.397   .     A
C254   C257    1.397   .     A
C254   H284    1.084   .     S
C254   C318    1.369   .     S
C255   C257    1.397   .     A
C255   H285    1.084   .     S
C255   C315    1.369   .     S
C256   H286    1.084   .     S
C256   C258    1.397   .     A
C259   H287    1.081   .     S
C259   N292    1.366   .     A
C260   H288    1.081   .     S
C260   N291    1.366   .     A
C260   C447    1.416   .     S
C261   H289    1.082   .     S
C261   N292    1.366   .     A
C262   H290    1.082   .     S
C262   N291    1.366   .     A
C262   C445    1.416   .     S
C263   O300    1.284   .     A
C263   O297    1.283   .     A
C263   C268    1.430   .     S
C264   O299    1.284   .     A
C264   C267    1.430   .     S
C264   O298    1.283   .     A
C265   C303    1.454   .     S
C265   C275    1.401   .     A
C265   C267    1.401   .     A
C266   C305    1.454   .     S
C266   C276    1.401   .     A
C266   C268    1.401   .     A
C267   C269    1.387   .     A
C268   C270    1.387   .     A
C269   H279    1.084   .     S
C269   C271    1.387   .     A
C270   H280    1.084   .     S
C270   C272    1.387   .     A
C271   C277    1.409   .     A
C271   C273    1.417   .     A
C272   C274    1.417   .     A
C272   C278    1.409   .     A
C273   C275    1.420   .     A
C273   C832    1.401   .     S
C274   C276    1.420   .     A
C274   C831    1.401   1_554 S
C277   C307    1.447   .     S
C277   C809    1.387   .     S
C278   C309    1.447   .     S
C278   C810    1.387   1_554 S
N291   Zn301   2.008   .     S
N292   Zn302   2.008   .     S
O293   Zn301   2.000   .     S
O294   Zn302   2.000   .     S
O295   Zn301   2.000   .     S
O296   Zn302   2.000   .     S
O297   Zn301   2.017   .     S
O298   Zn302   2.017   .     S
O299   Zn301   2.014   .     S
O300   Zn302   2.014   .     S
C303   N304    1.157   .     T
C305   N306    1.157   .     T
C307   N308    1.157   .     T
C309   N310    1.157   .     T
C311   O358    1.282   .     A
C311   O355    1.282   .     A
C311   C320    1.420   .     S
C312   O357    1.282   .     A
C312   O356    1.282   .     A
C312   C319    1.420   .     S
C313   C338    1.404   .     A
C313   H343    1.084   .     S
C313   C897    1.387   1_554 S
C314   H344    1.084   .     S
C314   C337    1.404   .     A
C314   C898    1.387   .     S
C315   H345    1.084   .     S
C315   C320    1.397   .     A
C316   C319    1.397   .     A
C316   H346    1.084   .     S
C316   C194    1.369   1_655 S
C317   C319    1.397   .     A
C317   H347    1.084   .     S
C317   C191    1.369   1_655 S
C318   H348    1.084   .     S
C318   C320    1.397   .     A
C321   H349    1.081   .     S
C321   N354    1.366   .     A
C322   H350    1.081   .     S
C322   N353    1.366   .     A
C322   C509    1.416   .     S
C323   H351    1.082   .     S
C323   N354    1.366   .     A
C324   H352    1.082   .     S
C324   N353    1.366   .     A
C324   C507    1.416   .     S
C325   O362    1.284   .     A
C325   O359    1.283   .     A
C325   C330    1.430   .     S
C326   O361    1.284   .     A
C326   C329    1.430   .     S
C326   O360    1.283   .     A
C327   C365    1.454   .     S
C327   C337    1.401   .     A
C327   C329    1.401   .     A
C328   C367    1.454   .     S
C328   C338    1.401   .     A
C328   C330    1.401   .     A
C329   C331    1.387   .     A
C330   C332    1.387   .     A
C331   H341    1.084   .     S
C331   C333    1.387   .     A
C332   H342    1.084   .     S
C332   C334    1.387   .     A
C333   C339    1.409   .     A
C333   C335    1.417   .     A
C334   C336    1.417   .     A
C334   C340    1.409   .     A
C335   C337    1.420   .     A
C335   C894    1.401   .     S
C336   C338    1.420   .     A
C336   C893    1.401   1_554 S
C339   C369    1.447   .     S
C339   C871    1.387   .     S
C340   C371    1.447   .     S
C340   C872    1.387   1_554 S
N353   Zn363   2.008   .     S
N354   Zn364   2.008   .     S
O355   Zn363   2.000   .     S
O356   Zn364   2.000   .     S
O357   Zn363   2.000   .     S
O358   Zn364   2.000   .     S
O359   Zn363   2.017   .     S
O360   Zn364   2.017   .     S
O361   Zn363   2.014   .     S
O362   Zn364   2.014   .     S
C365   N366    1.157   .     T
C367   N368    1.157   .     T
C369   N370    1.157   .     T
C371   N372    1.157   .     T
C373   O420    1.282   .     A
C373   O417    1.282   .     A
C373   C382    1.420   .     S
C374   O419    1.282   .     A
C374   O418    1.282   .     A
C374   C381    1.420   .     S
C375   C400    1.404   .     A
C375   H405    1.084   .     S
C375   C959    1.387   1_554 S
C376   H406    1.084   .     S
C376   C399    1.404   .     A
C376   C960    1.387   .     S
C377   H407    1.084   .     S
C377   C382    1.397   .     A
C377   C503    1.369   1_455 S
C378   C381    1.397   .     A
C378   H408    1.084   .     S
C378   C442    1.369   .     S
C379   C381    1.397   .     A
C379   H409    1.084   .     S
C379   C439    1.369   .     S
C380   H410    1.084   .     S
C380   C382    1.397   .     A
C380   C502    1.369   1_455 S
C383   H411    1.081   .     S
C383   N416    1.366   .     A
C384   H412    1.081   .     S
C384   N415    1.366   .     A
C384   C13     1.416   1_565 S
C385   H413    1.082   .     S
C385   N416    1.366   .     A
C386   H414    1.082   .     S
C386   N415    1.366   .     A
C386   C11     1.416   1_565 S
C387   O424    1.284   .     A
C387   O421    1.283   .     A
C387   C392    1.430   .     S
C388   O423    1.284   .     A
C388   C391    1.430   .     S
C388   O422    1.283   .     A
C389   C427    1.454   .     S
C389   C399    1.401   .     A
C389   C391    1.401   .     A
C390   C429    1.454   .     S
C390   C400    1.401   .     A
C390   C392    1.401   .     A
C391   C393    1.387   .     A
C392   C394    1.387   .     A
C393   H403    1.084   .     S
C393   C395    1.387   .     A
C394   H404    1.084   .     S
C394   C396    1.387   .     A
C395   C401    1.409   .     A
C395   C397    1.417   .     A
C396   C398    1.417   .     A
C396   C402    1.409   .     A
C397   C399    1.420   .     A
C397   C956    1.401   .     S
C398   C400    1.420   .     A
C398   C955    1.401   1_554 S
C401   C431    1.447   .     S
C401   C933    1.387   .     S
C402   C433    1.447   .     S
C402   C934    1.387   1_554 S
N415   Zn425   2.008   .     S
N416   Zn426   2.008   .     S
O417   Zn425   2.000   .     S
O418   Zn426   2.000   .     S
O419   Zn425   2.000   .     S
O420   Zn426   2.000   .     S
O421   Zn425   2.017   .     S
O422   Zn426   2.017   .     S
O423   Zn425   2.014   .     S
O424   Zn426   2.014   .     S
C427   N428    1.157   .     T
C429   N430    1.157   .     T
C431   N432    1.157   .     T
C433   N434    1.157   .     T
C435   O482    1.282   .     A
C435   O479    1.282   .     A
C435   C444    1.420   .     S
C436   O481    1.282   .     A
C436   O480    1.282   .     A
C436   C443    1.420   .     S
C437   C462    1.404   .     A
C437   H467    1.084   .     S
C437   C1021   1.387   1_554 S
C438   H468    1.084   .     S
C438   C461    1.404   .     A
C438   C1022   1.387   .     S
C439   H469    1.084   .     S
C439   C444    1.397   .     A
C440   C443    1.397   .     A
C440   H470    1.084   .     S
C440   C504    1.369   .     S
C441   C443    1.397   .     A
C441   H471    1.084   .     S
C441   C501    1.369   .     S
C442   H472    1.084   .     S
C442   C444    1.397   .     A
C445   H473    1.081   .     S
C445   N478    1.366   .     A
C446   H474    1.081   .     S
C446   N477    1.366   .     A
C446   C75     1.416   1_565 S
C447   H475    1.082   .     S
C447   N478    1.366   .     A
C448   H476    1.082   .     S
C448   N477    1.366   .     A
C448   C73     1.416   1_565 S
C449   O486    1.284   .     A
C449   O483    1.283   .     A
C449   C454    1.430   .     S
C450   O485    1.284   .     A
C450   C453    1.430   .     S
C450   O484    1.283   .     A
C451   C489    1.454   .     S
C451   C461    1.401   .     A
C451   C453    1.401   .     A
C452   C491    1.454   .     S
C452   C462    1.401   .     A
C452   C454    1.401   .     A
C453   C455    1.387   .     A
C454   C456    1.387   .     A
C455   H465    1.084   .     S
C455   C457    1.387   .     A
C456   H466    1.084   .     S
C456   C458    1.387   .     A
C457   C463    1.409   .     A
C457   C459    1.417   .     A
C458   C460    1.417   .     A
C458   C464    1.409   .     A
C459   C461    1.420   .     A
C459   C1018   1.401   .     S
C460   C462    1.420   .     A
C460   C1017   1.401   1_554 S
C463   C493    1.447   .     S
C463   C995    1.387   .     S
C464   C495    1.447   .     S
C464   C996    1.387   1_554 S
N477   Zn487   2.008   .     S
N478   Zn488   2.008   .     S
O479   Zn487   2.000   .     S
O480   Zn488   2.000   .     S
O481   Zn487   2.000   .     S
O482   Zn488   2.000   .     S
O483   Zn487   2.017   .     S
O484   Zn488   2.017   .     S
O485   Zn487   2.014   .     S
O486   Zn488   2.014   .     S
C489   N490    1.157   .     T
C491   N492    1.157   .     T
C493   N494    1.157   .     T
C495   N496    1.157   .     T
C497   O544    1.282   .     A
C497   O541    1.282   .     A
C497   C506    1.420   .     S
C498   O543    1.282   .     A
C498   O542    1.282   .     A
C498   C505    1.420   .     S
C499   C524    1.404   .     A
C499   H529    1.084   .     S
C499   C1083   1.387   1_554 S
C500   H530    1.084   .     S
C500   C523    1.404   .     A
C500   C1084   1.387   .     S
C501   H531    1.084   .     S
C501   C506    1.397   .     A
C502   C505    1.397   .     A
C502   H532    1.084   .     S
C502   C380    1.369   1_655 S
C503   C505    1.397   .     A
C503   H533    1.084   .     S
C503   C377    1.369   1_655 S
C504   H534    1.084   .     S
C504   C506    1.397   .     A
C507   H535    1.081   .     S
C507   N540    1.366   .     A
C508   H536    1.081   .     S
C508   N539    1.366   .     A
C508   C137    1.416   1_565 S
C509   H537    1.082   .     S
C509   N540    1.366   .     A
C510   H538    1.082   .     S
C510   N539    1.366   .     A
C510   C135    1.416   1_565 S
C511   O548    1.284   .     A
C511   O545    1.283   .     A
C511   C516    1.430   .     S
C512   O547    1.284   .     A
C512   C515    1.430   .     S
C512   O546    1.283   .     A
C513   C551    1.454   .     S
C513   C523    1.401   .     A
C513   C515    1.401   .     A
C514   C553    1.454   .     S
C514   C524    1.401   .     A
C514   C516    1.401   .     A
C515   C517    1.387   .     A
C516   C518    1.387   .     A
C517   H527    1.084   .     S
C517   C519    1.387   .     A
C518   H528    1.084   .     S
C518   C520    1.387   .     A
C519   C525    1.409   .     A
C519   C521    1.417   .     A
C520   C522    1.417   .     A
C520   C526    1.409   .     A
C521   C523    1.420   .     A
C521   C1080   1.401   .     S
C522   C524    1.420   .     A
C522   C1079   1.401   1_554 S
C525   C555    1.447   .     S
C525   C1057   1.387   .     S
C526   C557    1.447   .     S
C526   C1058   1.387   1_554 S
N539   Zn549   2.008   .     S
N540   Zn550   2.008   .     S
O541   Zn549   2.000   .     S
O542   Zn550   2.000   .     S
O543   Zn549   2.000   .     S
O544   Zn550   2.000   .     S
O545   Zn549   2.017   .     S
O546   Zn550   2.017   .     S
O547   Zn549   2.014   .     S
O548   Zn550   2.014   .     S
C551   N552    1.157   .     T
C553   N554    1.157   .     T
C555   N556    1.157   .     T
C557   N558    1.157   .     T
C559   O606    1.282   .     A
C559   O603    1.282   .     A
C559   C568    1.420   .     S
C560   O605    1.282   .     A
C560   O604    1.282   .     A
C560   C567    1.420   .     S
C561   C586    1.404   .     A
C561   H591    1.084   .     S
C562   H592    1.084   .     S
C562   C585    1.404   .     A
C562   C30     1.387   1_556 S
C563   H593    1.084   .     S
C563   C568    1.397   .     A
C563   C689    1.369   1_455 S
C564   C567    1.397   .     A
C564   H594    1.084   .     S
C564   C628    1.369   .     S
C565   C567    1.397   .     A
C565   H595    1.084   .     S
C565   C625    1.369   .     S
C566   H596    1.084   .     S
C566   C568    1.397   .     A
C566   C688    1.369   1_455 S
C569   H597    1.081   .     S
C569   N602    1.366   .     A
C569   C944    1.416   1_545 S
C570   H598    1.081   .     S
C570   N601    1.366   .     A
C570   C757    1.416   .     S
C571   H599    1.082   .     S
C571   N602    1.366   .     A
C571   C942    1.416   1_545 S
C572   H600    1.082   .     S
C572   N601    1.366   .     A
C572   C755    1.416   .     S
C573   O610    1.284   .     A
C573   O607    1.283   .     A
C573   C578    1.430   .     S
C574   O609    1.284   .     A
C574   C577    1.430   .     S
C574   O608    1.283   .     A
C575   C613    1.454   .     S
C575   C585    1.401   .     A
C575   C577    1.401   .     A
C576   C615    1.454   .     S
C576   C586    1.401   .     A
C576   C578    1.401   .     A
C577   C579    1.387   .     A
C578   C580    1.387   .     A
C579   H589    1.084   .     S
C579   C581    1.387   .     A
C580   H590    1.084   .     S
C580   C582    1.387   .     A
C581   C587    1.409   .     A
C581   C583    1.417   .     A
C582   C584    1.417   .     A
C582   C588    1.409   .     A
C583   C585    1.420   .     A
C583   C26     1.401   1_556 S
C584   C586    1.420   .     A
C587   C617    1.447   .     S
C587   C3      1.387   1_556 S
C588   C619    1.447   .     S
N601   Zn611   2.008   .     S
N602   Zn612   2.008   .     S
O603   Zn611   2.000   .     S
O604   Zn612   2.000   .     S
O605   Zn611   2.000   .     S
O606   Zn612   2.000   .     S
O607   Zn611   2.017   .     S
O608   Zn612   2.017   .     S
O609   Zn611   2.014   .     S
O610   Zn612   2.014   .     S
C613   N614    1.157   .     T
C615   N616    1.157   .     T
C617   N618    1.157   .     T
C619   N620    1.157   .     T
C621   O668    1.282   .     A
C621   O665    1.282   .     A
C621   C630    1.420   .     S
C622   O667    1.282   .     A
C622   O666    1.282   .     A
C622   C629    1.420   .     S
C623   C648    1.404   .     A
C623   H653    1.084   .     S
C624   H654    1.084   .     S
C624   C647    1.404   .     A
C624   C92     1.387   1_556 S
C625   H655    1.084   .     S
C625   C630    1.397   .     A
C626   C629    1.397   .     A
C626   H656    1.084   .     S
C626   C690    1.369   .     S
C627   C629    1.397   .     A
C627   H657    1.084   .     S
C627   C687    1.369   .     S
C628   H658    1.084   .     S
C628   C630    1.397   .     A
C631   H659    1.081   .     S
C631   N664    1.366   .     A
C631   C1006   1.416   1_545 S
C632   H660    1.081   .     S
C632   N663    1.366   .     A
C632   C819    1.416   .     S
C633   H661    1.082   .     S
C633   N664    1.366   .     A
C633   C1004   1.416   1_545 S
C634   H662    1.082   .     S
C634   N663    1.366   .     A
C634   C817    1.416   .     S
C635   O672    1.284   .     A
C635   O669    1.283   .     A
C635   C640    1.430   .     S
C636   O671    1.284   .     A
C636   C639    1.430   .     S
C636   O670    1.283   .     A
C637   C675    1.454   .     S
C637   C647    1.401   .     A
C637   C639    1.401   .     A
C638   C677    1.454   .     S
C638   C648    1.401   .     A
C638   C640    1.401   .     A
C639   C641    1.387   .     A
C640   C642    1.387   .     A
C641   H651    1.084   .     S
C641   C643    1.387   .     A
C642   H652    1.084   .     S
C642   C644    1.387   .     A
C643   C649    1.409   .     A
C643   C645    1.417   .     A
C644   C646    1.417   .     A
C644   C650    1.409   .     A
C645   C647    1.420   .     A
C645   C88     1.401   1_556 S
C646   C648    1.420   .     A
C649   C679    1.447   .     S
C649   C65     1.387   1_556 S
C650   C681    1.447   .     S
N663   Zn673   2.008   .     S
N664   Zn674   2.008   .     S
O665   Zn673   2.000   .     S
O666   Zn674   2.000   .     S
O667   Zn673   2.000   .     S
O668   Zn674   2.000   .     S
O669   Zn673   2.017   .     S
O670   Zn674   2.017   .     S
O671   Zn673   2.014   .     S
O672   Zn674   2.014   .     S
C675   N676    1.157   .     T
C677   N678    1.157   .     T
C679   N680    1.157   .     T
C681   N682    1.157   .     T
C683   O730    1.282   .     A
C683   O727    1.282   .     A
C683   C692    1.420   .     S
C684   O729    1.282   .     A
C684   O728    1.282   .     A
C684   C691    1.420   .     S
C685   C710    1.404   .     A
C685   H715    1.084   .     S
C686   H716    1.084   .     S
C686   C709    1.404   .     A
C686   C154    1.387   1_556 S
C687   H717    1.084   .     S
C687   C692    1.397   .     A
C688   C691    1.397   .     A
C688   H718    1.084   .     S
C688   C566    1.369   1_655 S
C689   C691    1.397   .     A
C689   H719    1.084   .     S
C689   C563    1.369   1_655 S
C690   H720    1.084   .     S
C690   C692    1.397   .     A
C693   H721    1.081   .     S
C693   N726    1.366   .     A
C693   C1068   1.416   1_545 S
C694   H722    1.081   .     S
C694   N725    1.366   .     A
C694   C881    1.416   .     S
C695   H723    1.082   .     S
C695   N726    1.366   .     A
C695   C1066   1.416   1_545 S
C696   H724    1.082   .     S
C696   N725    1.366   .     A
C696   C879    1.416   .     S
C697   O734    1.284   .     A
C697   O731    1.283   .     A
C697   C702    1.430   .     S
C698   O733    1.284   .     A
C698   C701    1.430   .     S
C698   O732    1.283   .     A
C699   C737    1.454   .     S
C699   C709    1.401   .     A
C699   C701    1.401   .     A
C700   C739    1.454   .     S
C700   C710    1.401   .     A
C700   C702    1.401   .     A
C701   C703    1.387   .     A
C702   C704    1.387   .     A
C703   H713    1.084   .     S
C703   C705    1.387   .     A
C704   H714    1.084   .     S
C704   C706    1.387   .     A
C705   C711    1.409   .     A
C705   C707    1.417   .     A
C706   C708    1.417   .     A
C706   C712    1.409   .     A
C707   C709    1.420   .     A
C707   C150    1.401   1_556 S
C708   C710    1.420   .     A
C711   C741    1.447   .     S
C711   C127    1.387   1_556 S
C712   C743    1.447   .     S
N725   Zn735   2.008   .     S
N726   Zn736   2.008   .     S
O727   Zn735   2.000   .     S
O728   Zn736   2.000   .     S
O729   Zn735   2.000   .     S
O730   Zn736   2.000   .     S
O731   Zn735   2.017   .     S
O732   Zn736   2.017   .     S
O733   Zn735   2.014   .     S
O734   Zn736   2.014   .     S
C737   N738    1.157   .     T
C739   N740    1.157   .     T
C741   N742    1.157   .     T
C743   N744    1.157   .     T
C745   O792    1.282   .     A
C745   O789    1.282   .     A
C745   C754    1.420   .     S
C746   O791    1.282   .     A
C746   O790    1.282   .     A
C746   C753    1.420   .     S
C747   C772    1.404   .     A
C747   H777    1.084   .     S
C748   H778    1.084   .     S
C748   C771    1.404   .     A
C748   C216    1.387   1_556 S
C749   H779    1.084   .     S
C749   C754    1.397   .     A
C749   C875    1.369   1_455 S
C750   C753    1.397   .     A
C750   H780    1.084   .     S
C750   C814    1.369   .     S
C751   C753    1.397   .     A
C751   H781    1.084   .     S
C751   C811    1.369   .     S
C752   H782    1.084   .     S
C752   C754    1.397   .     A
C752   C874    1.369   1_455 S
C755   H783    1.081   .     S
C755   N788    1.366   .     A
C756   H784    1.081   .     S
C756   N787    1.366   .     A
C756   C943    1.416   .     S
C757   H785    1.082   .     S
C757   N788    1.366   .     A
C758   H786    1.082   .     S
C758   N787    1.366   .     A
C758   C941    1.416   .     S
C759   O796    1.284   .     A
C759   O793    1.283   .     A
C759   C764    1.430   .     S
C760   O795    1.284   .     A
C760   C763    1.430   .     S
C760   O794    1.283   .     A
C761   C799    1.454   .     S
C761   C771    1.401   .     A
C761   C763    1.401   .     A
C762   C801    1.454   .     S
C762   C772    1.401   .     A
C762   C764    1.401   .     A
C763   C765    1.387   .     A
C764   C766    1.387   .     A
C765   H775    1.084   .     S
C765   C767    1.387   .     A
C766   H776    1.084   .     S
C766   C768    1.387   .     A
C767   C773    1.409   .     A
C767   C769    1.417   .     A
C768   C770    1.417   .     A
C768   C774    1.409   .     A
C769   C771    1.420   .     A
C769   C212    1.401   1_556 S
C770   C772    1.420   .     A
C773   C803    1.447   .     S
C773   C189    1.387   1_556 S
C774   C805    1.447   .     S
N787   Zn797   2.008   .     S
N788   Zn798   2.008   .     S
O789   Zn797   2.000   .     S
O790   Zn798   2.000   .     S
O791   Zn797   2.000   .     S
O792   Zn798   2.000   .     S
O793   Zn797   2.017   .     S
O794   Zn798   2.017   .     S
O795   Zn797   2.014   .     S
O796   Zn798   2.014   .     S
C799   N800    1.157   .     T
C801   N802    1.157   .     T
C803   N804    1.157   .     T
C805   N806    1.157   .     T
C807   O854    1.282   .     A
C807   O851    1.282   .     A
C807   C816    1.420   .     S
C808   O853    1.282   .     A
C808   O852    1.282   .     A
C808   C815    1.420   .     S
C809   C834    1.404   .     A
C809   H839    1.084   .     S
C810   H840    1.084   .     S
C810   C833    1.404   .     A
C810   C278    1.387   1_556 S
C811   H841    1.084   .     S
C811   C816    1.397   .     A
C812   C815    1.397   .     A
C812   H842    1.084   .     S
C812   C876    1.369   .     S
C813   C815    1.397   .     A
C813   H843    1.084   .     S
C813   C873    1.369   .     S
C814   H844    1.084   .     S
C814   C816    1.397   .     A
C817   H845    1.081   .     S
C817   N850    1.366   .     A
C818   H846    1.081   .     S
C818   N849    1.366   .     A
C818   C1005   1.416   .     S
C819   H847    1.082   .     S
C819   N850    1.366   .     A
C820   H848    1.082   .     S
C820   N849    1.366   .     A
C820   C1003   1.416   .     S
C821   O858    1.284   .     A
C821   O855    1.283   .     A
C821   C826    1.430   .     S
C822   O857    1.284   .     A
C822   C825    1.430   .     S
C822   O856    1.283   .     A
C823   C861    1.454   .     S
C823   C833    1.401   .     A
C823   C825    1.401   .     A
C824   C863    1.454   .     S
C824   C834    1.401   .     A
C824   C826    1.401   .     A
C825   C827    1.387   .     A
C826   C828    1.387   .     A
C827   H837    1.084   .     S
C827   C829    1.387   .     A
C828   H838    1.084   .     S
C828   C830    1.387   .     A
C829   C835    1.409   .     A
C829   C831    1.417   .     A
C830   C832    1.417   .     A
C830   C836    1.409   .     A
C831   C833    1.420   .     A
C831   C274    1.401   1_556 S
C832   C834    1.420   .     A
C835   C865    1.447   .     S
C835   C251    1.387   1_556 S
C836   C867    1.447   .     S
N849   Zn859   2.008   .     S
N850   Zn860   2.008   .     S
O851   Zn859   2.000   .     S
O852   Zn860   2.000   .     S
O853   Zn859   2.000   .     S
O854   Zn860   2.000   .     S
O855   Zn859   2.017   .     S
O856   Zn860   2.017   .     S
O857   Zn859   2.014   .     S
O858   Zn860   2.014   .     S
C861   N862    1.157   .     T
C863   N864    1.157   .     T
C865   N866    1.157   .     T
C867   N868    1.157   .     T
C869   O916    1.282   .     A
C869   O913    1.282   .     A
C869   C878    1.420   .     S
C870   O915    1.282   .     A
C870   O914    1.282   .     A
C870   C877    1.420   .     S
C871   C896    1.404   .     A
C871   H901    1.084   .     S
C872   H902    1.084   .     S
C872   C895    1.404   .     A
C872   C340    1.387   1_556 S
C873   H903    1.084   .     S
C873   C878    1.397   .     A
C874   C877    1.397   .     A
C874   H904    1.084   .     S
C874   C752    1.369   1_655 S
C875   C877    1.397   .     A
C875   H905    1.084   .     S
C875   C749    1.369   1_655 S
C876   H906    1.084   .     S
C876   C878    1.397   .     A
C879   H907    1.081   .     S
C879   N912    1.366   .     A
C880   H908    1.081   .     S
C880   N911    1.366   .     A
C880   C1067   1.416   .     S
C881   H909    1.082   .     S
C881   N912    1.366   .     A
C882   H910    1.082   .     S
C882   N911    1.366   .     A
C882   C1065   1.416   .     S
C883   O920    1.284   .     A
C883   O917    1.283   .     A
C883   C888    1.430   .     S
C884   O919    1.284   .     A
C884   C887    1.430   .     S
C884   O918    1.283   .     A
C885   C923    1.454   .     S
C885   C895    1.401   .     A
C885   C887    1.401   .     A
C886   C925    1.454   .     S
C886   C896    1.401   .     A
C886   C888    1.401   .     A
C887   C889    1.387   .     A
C888   C890    1.387   .     A
C889   H899    1.084   .     S
C889   C891    1.387   .     A
C890   H900    1.084   .     S
C890   C892    1.387   .     A
C891   C897    1.409   .     A
C891   C893    1.417   .     A
C892   C894    1.417   .     A
C892   C898    1.409   .     A
C893   C895    1.420   .     A
C893   C336    1.401   1_556 S
C894   C896    1.420   .     A
C897   C927    1.447   .     S
C897   C313    1.387   1_556 S
C898   C929    1.447   .     S
N911   Zn921   2.008   .     S
N912   Zn922   2.008   .     S
O913   Zn921   2.000   .     S
O914   Zn922   2.000   .     S
O915   Zn921   2.000   .     S
O916   Zn922   2.000   .     S
O917   Zn921   2.017   .     S
O918   Zn922   2.017   .     S
O919   Zn921   2.014   .     S
O920   Zn922   2.014   .     S
C923   N924    1.157   .     T
C925   N926    1.157   .     T
C927   N928    1.157   .     T
C929   N930    1.157   .     T
C931   O978    1.282   .     A
C931   O975    1.282   .     A
C931   C940    1.420   .     S
C932   O977    1.282   .     A
C932   O976    1.282   .     A
C932   C939    1.420   .     S
C933   C958    1.404   .     A
C933   H963    1.084   .     S
C934   H964    1.084   .     S
C934   C957    1.404   .     A
C934   C402    1.387   1_556 S
C935   H965    1.084   .     S
C935   C940    1.397   .     A
C935   C1061   1.369   1_455 S
C936   C939    1.397   .     A
C936   H966    1.084   .     S
C936   C1000   1.369   .     S
C937   C939    1.397   .     A
C937   H967    1.084   .     S
C937   C997    1.369   .     S
C938   H968    1.084   .     S
C938   C940    1.397   .     A
C938   C1060   1.369   1_455 S
C941   H969    1.081   .     S
C941   N974    1.366   .     A
C942   H970    1.081   .     S
C942   N973    1.366   .     A
C942   C571    1.416   1_565 S
C943   H971    1.082   .     S
C943   N974    1.366   .     A
C944   H972    1.082   .     S
C944   N973    1.366   .     A
C944   C569    1.416   1_565 S
C945   O982    1.284   .     A
C945   O979    1.283   .     A
C945   C950    1.430   .     S
C946   O981    1.284   .     A
C946   C949    1.430   .     S
C946   O980    1.283   .     A
C947   C985    1.454   .     S
C947   C957    1.401   .     A
C947   C949    1.401   .     A
C948   C987    1.454   .     S
C948   C958    1.401   .     A
C948   C950    1.401   .     A
C949   C951    1.387   .     A
C950   C952    1.387   .     A
C951   H961    1.084   .     S
C951   C953    1.387   .     A
C952   H962    1.084   .     S
C952   C954    1.387   .     A
C953   C959    1.409   .     A
C953   C955    1.417   .     A
C954   C956    1.417   .     A
C954   C960    1.409   .     A
C955   C957    1.420   .     A
C955   C398    1.401   1_556 S
C956   C958    1.420   .     A
C959   C989    1.447   .     S
C959   C375    1.387   1_556 S
C960   C991    1.447   .     S
N973   Zn983   2.008   .     S
N974   Zn984   2.008   .     S
O975   Zn983   2.000   .     S
O976   Zn984   2.000   .     S
O977   Zn983   2.000   .     S
O978   Zn984   2.000   .     S
O979   Zn983   2.017   .     S
O980   Zn984   2.017   .     S
O981   Zn983   2.014   .     S
O982   Zn984   2.014   .     S
C985   N986    1.157   .     T
C987   N988    1.157   .     T
C989   N990    1.157   .     T
C991   N992    1.157   .     T
C993   O1040   1.282   .     A
C993   O1037   1.282   .     A
C993   C1002   1.420   .     S
C994   O1039   1.282   .     A
C994   O1038   1.282   .     A
C994   C1001   1.420   .     S
C995   C1020   1.404   .     A
C995   H1025   1.084   .     S
C996   H1026   1.084   .     S
C996   C1019   1.404   .     A
C996   C464    1.387   1_556 S
C997   H1027   1.084   .     S
C997   C1002   1.397   .     A
C998   C1001   1.397   .     A
C998   H1028   1.084   .     S
C998   C1062   1.369   .     S
C999   C1001   1.397   .     A
C999   H1029   1.084   .     S
C999   C1059   1.369   .     S
C1000  H1030   1.084   .     S
C1000  C1002   1.397   .     A
C1003  H1031   1.081   .     S
C1003  N1036   1.366   .     A
C1004  H1032   1.081   .     S
C1004  N1035   1.366   .     A
C1004  C633    1.416   1_565 S
C1005  H1033   1.082   .     S
C1005  N1036   1.366   .     A
C1006  H1034   1.082   .     S
C1006  N1035   1.366   .     A
C1006  C631    1.416   1_565 S
C1007  O1044   1.284   .     A
C1007  O1041   1.283   .     A
C1007  C1012   1.430   .     S
C1008  O1043   1.284   .     A
C1008  C1011   1.430   .     S
C1008  O1042   1.283   .     A
C1009  C1047   1.454   .     S
C1009  C1019   1.401   .     A
C1009  C1011   1.401   .     A
C1010  C1049   1.454   .     S
C1010  C1020   1.401   .     A
C1010  C1012   1.401   .     A
C1011  C1013   1.387   .     A
C1012  C1014   1.387   .     A
C1013  H1023   1.084   .     S
C1013  C1015   1.387   .     A
C1014  H1024   1.084   .     S
C1014  C1016   1.387   .     A
C1015  C1021   1.409   .     A
C1015  C1017   1.417   .     A
C1016  C1018   1.417   .     A
C1016  C1022   1.409   .     A
C1017  C1019   1.420   .     A
C1017  C460    1.401   1_556 S
C1018  C1020   1.420   .     A
C1021  C1051   1.447   .     S
C1021  C437    1.387   1_556 S
C1022  C1053   1.447   .     S
N1035  Zn1045  2.008   .     S
N1036  Zn1046  2.008   .     S
O1037  Zn1045  2.000   .     S
O1038  Zn1046  2.000   .     S
O1039  Zn1045  2.000   .     S
O1040  Zn1046  2.000   .     S
O1041  Zn1045  2.017   .     S
O1042  Zn1046  2.017   .     S
O1043  Zn1045  2.014   .     S
O1044  Zn1046  2.014   .     S
C1047  N1048   1.157   .     T
C1049  N1050   1.157   .     T
C1051  N1052   1.157   .     T
C1053  N1054   1.157   .     T
C1055  O1102   1.282   .     A
C1055  O1099   1.282   .     A
C1055  C1064   1.420   .     S
C1056  O1101   1.282   .     A
C1056  O1100   1.282   .     A
C1056  C1063   1.420   .     S
C1057  C1082   1.404   .     A
C1057  H1087   1.084   .     S
C1058  H1088   1.084   .     S
C1058  C1081   1.404   .     A
C1058  C526    1.387   1_556 S
C1059  H1089   1.084   .     S
C1059  C1064   1.397   .     A
C1060  C1063   1.397   .     A
C1060  H1090   1.084   .     S
C1060  C938    1.369   1_655 S
C1061  C1063   1.397   .     A
C1061  H1091   1.084   .     S
C1061  C935    1.369   1_655 S
C1062  H1092   1.084   .     S
C1062  C1064   1.397   .     A
C1065  H1093   1.081   .     S
C1065  N1098   1.366   .     A
C1066  H1094   1.081   .     S
C1066  N1097   1.366   .     A
C1066  C695    1.416   1_565 S
C1067  H1095   1.082   .     S
C1067  N1098   1.366   .     A
C1068  H1096   1.082   .     S
C1068  N1097   1.366   .     A
C1068  C693    1.416   1_565 S
C1069  O1106   1.284   .     A
C1069  O1103   1.283   .     A
C1069  C1074   1.430   .     S
C1070  O1105   1.284   .     A
C1070  C1073   1.430   .     S
C1070  O1104   1.283   .     A
C1071  C1109   1.454   .     S
C1071  C1081   1.401   .     A
C1071  C1073   1.401   .     A
C1072  C1111   1.454   .     S
C1072  C1082   1.401   .     A
C1072  C1074   1.401   .     A
C1073  C1075   1.387   .     A
C1074  C1076   1.387   .     A
C1075  H1085   1.084   .     S
C1075  C1077   1.387   .     A
C1076  H1086   1.084   .     S
C1076  C1078   1.387   .     A
C1077  C1083   1.409   .     A
C1077  C1079   1.417   .     A
C1078  C1080   1.417   .     A
C1078  C1084   1.409   .     A
C1079  C1081   1.420   .     A
C1079  C522    1.401   1_556 S
C1080  C1082   1.420   .     A
C1083  C1113   1.447   .     S
C1083  C499    1.387   1_556 S
C1084  C1115   1.447   .     S
N1097  Zn1107  2.008   .     S
N1098  Zn1108  2.008   .     S
O1099  Zn1107  2.000   .     S
O1100  Zn1108  2.000   .     S
O1101  Zn1107  2.000   .     S
O1102  Zn1108  2.000   .     S
O1103  Zn1107  2.017   .     S
O1104  Zn1108  2.017   .     S
O1105  Zn1107  2.014   .     S
O1106  Zn1108  2.014   .     S
C1109  N1110   1.157   .     T
C1111  N1112   1.157   .     T
C1113  N1114   1.157   .     T
C1115  N1116   1.157   .     T
