data_str_m3_o1_o18_pcu_sym.120
_audit_creation_date              2020-01-03
_audit_creation_method            'Materials Studio'
_symmetry_space_group_name_H-M    'P1'
_symmetry_Int_Tables_number       1
_symmetry_cell_setting            triclinic
loop_
_symmetry_equiv_pos_as_xyz
  x,y,z
_cell_length_a                    29.8316
_cell_length_b                    32.4416
_cell_length_c                    31.3348
_cell_angle_alpha                 91.1303
_cell_angle_beta                  67.7606
_cell_angle_gamma                 90.7609
loop_
_atom_site_label
_atom_site_type_symbol
_atom_site_fract_x
_atom_site_fract_y
_atom_site_fract_z
_atom_site_U_iso_or_equiv
_atom_site_adp_type
_atom_site_occupancy
C1     C     0.16690   0.24654   0.24978   0.00000  Uiso   1.00
C2     C     0.16647   0.08682   0.25029   0.00000  Uiso   1.00
C3     C     0.11062   0.17947   0.05050   0.00000  Uiso   1.00
C4     C     0.22292   0.15247   0.44956   0.00000  Uiso   1.00
C5     C     0.07735   0.18516   0.03005   0.00000  Uiso   1.00
C6     C     0.25578   0.14580   0.47018   0.00000  Uiso   1.00
C7     C     0.19006   0.31275   0.27496   0.00000  Uiso   1.00
C8     C     0.14417   0.02092   0.22476   0.00000  Uiso   1.00
C9     C     0.19028   0.02200   0.27509   0.00000  Uiso   1.00
C10    C     0.14306   0.31148   0.22519   0.00000  Uiso   1.00
C11    C     0.16670   0.04264   0.25039   0.00000  Uiso   1.00
C12    C     0.16687   0.29077   0.24976   0.00000  Uiso   1.00
C13    C     0.32259   0.14664   0.21612   0.00000  Uiso   1.00
C14    C     0.01114   0.18677   0.28409   0.00000  Uiso   1.00
C15    C     0.03638   0.14612   0.21639   0.00000  Uiso   1.00
C16    C     0.29630   0.18686   0.28415   0.00000  Uiso   1.00
C17    C     0.13628   0.16667   0.33768   0.00000  Uiso   1.00
C18    C     0.19707   0.16643   0.16229   0.00000  Uiso   1.00
C19    C     0.11776   0.16818   0.38794   0.00000  Uiso   1.00
C20    C     0.21565   0.16421   0.11200   0.00000  Uiso   1.00
C21    C     0.05738   0.18648   0.46222   0.00000  Uiso   1.00
C22    C     0.27504   0.14316   0.03818   0.00000  Uiso   1.00
C23    C     0.07087   0.18120   0.41477   0.00000  Uiso   1.00
C24    C     0.26148   0.14865   0.08555   0.00000  Uiso   1.00
C25    C     0.15020   0.15951   0.40877   0.00000  Uiso   1.00
C26    C     0.18398   0.17431   0.09078   0.00000  Uiso   1.00
C27    C     0.13893   0.16716   0.45560   0.00000  Uiso   1.00
C28    C     0.19472   0.16540   0.04425   0.00000  Uiso   1.00
C29    C     0.09109   0.17974   0.48277   0.00000  Uiso   1.00
C30    C     0.24199   0.15139   0.01739   0.00000  Uiso   1.00
C31    C     0.17397   0.16286   0.47586   0.00000  Uiso   1.00
C32    C     0.15969   0.16972   0.02402   0.00000  Uiso   1.00
H33    H     0.04047   0.19347   0.05152   0.00000  Uiso   1.00
H34    H     0.29237   0.13652   0.44891   0.00000  Uiso   1.00
H35    H     0.15068   0.18882   0.11174   0.00000  Uiso   1.00
H36    H     0.18458   0.14714   0.38714   0.00000  Uiso   1.00
H37    H     0.28630   0.13971   0.10122   0.00000  Uiso   1.00
H38    H     0.04522   0.18808   0.39914   0.00000  Uiso   1.00
H39    H     0.02106   0.19686   0.48267   0.00000  Uiso   1.00
H40    H     0.31074   0.13125   0.01806   0.00000  Uiso   1.00
H41    H     0.09618   0.18247   0.08743   0.00000  Uiso   1.00
H42    H     0.23759   0.14900   0.41274   0.00000  Uiso   1.00
N43    N     0.04759   0.16668   0.25001   0.00000  Uiso   1.00
N44    N     0.28574   0.16666   0.24999   0.00000  Uiso   1.00
O45    O     0.12846   0.22775   0.25000   0.00000  Uiso   1.00
O46    O     0.20488   0.10558   0.25000   0.00000  Uiso   1.00
O47    O     0.20490   0.22774   0.25000   0.00000  Uiso   1.00
O48    O     0.12843   0.10559   0.25000   0.00000  Uiso   1.00
O49    O     0.10661   0.16667   0.31612   0.00000  Uiso   1.00
O50    O     0.22672   0.16666   0.18388   0.00000  Uiso   1.00
O51    O     0.18305   0.16666   0.31612   0.00000  Uiso   1.00
O52    O     0.15028   0.16667   0.18388   0.00000  Uiso   1.00
Zn53   Zn    0.11562   0.16667   0.25000   0.00000  Uiso   1.00
Zn54   Zn    0.21771   0.16666   0.25000   0.00000  Uiso   1.00
N55    N     0.21330   0.29259   0.30135   0.00000  Uiso   1.00
H56    H     0.24510   0.27911   0.27843   0.00000  Uiso   1.00
H57    H     0.18987   0.27067   0.32269   0.00000  Uiso   1.00
N58    N     0.12411   0.04259   0.19671   0.00000  Uiso   1.00
H59    H     0.14198   0.03355   0.16224   0.00000  Uiso   1.00
H60    H     0.08730   0.03526   0.20718   0.00000  Uiso   1.00
C61    C     0.21676   0.04368   0.30069   0.00000  Uiso   1.00
C62    C     0.26662   0.05168   0.27862   0.00000  Uiso   1.00
C63    C     0.29276   0.06869   0.30351   0.00000  Uiso   1.00
C64    C     0.26956   0.07688   0.35071   0.00000  Uiso   1.00
C65    C     0.22014   0.06830   0.37300   0.00000  Uiso   1.00
C66    C     0.19361   0.05212   0.34803   0.00000  Uiso   1.00
H67    H     0.28515   0.04445   0.24228   0.00000  Uiso   1.00
H68    H     0.33110   0.07498   0.28636   0.00000  Uiso   1.00
H69    H     0.29001   0.08953   0.37006   0.00000  Uiso   1.00
H70    H     0.20234   0.07410   0.40969   0.00000  Uiso   1.00
H71    H     0.15545   0.04526   0.36568   0.00000  Uiso   1.00
C72    C     0.11649   0.28974   0.19967   0.00000  Uiso   1.00
C73    C     0.13967   0.28067   0.15246   0.00000  Uiso   1.00
C74    C     0.11300   0.26469   0.12755   0.00000  Uiso   1.00
C75    C     0.06352   0.25639   0.14986   0.00000  Uiso   1.00
C76    C     0.04033   0.26500   0.19697   0.00000  Uiso   1.00
C77    C     0.06655   0.28217   0.22171   0.00000  Uiso   1.00
H78    H     0.17793   0.28714   0.13481   0.00000  Uiso   1.00
H79    H     0.13075   0.25868   0.09089   0.00000  Uiso   1.00
H80    H     0.04304   0.24366   0.13058   0.00000  Uiso   1.00
H81    H     0.00193   0.25899   0.21414   0.00000  Uiso   1.00
H82    H     0.04798   0.29004   0.25785   0.00000  Uiso   1.00
N83    N     0.31531   0.12787   0.17773   0.00000  Uiso   1.00
H84    H     0.31157   0.15176   0.15765   0.00000  Uiso   1.00
H85    H     0.28427   0.10950   0.18927   0.00000  Uiso   1.00
N86    N     0.02201   0.20755   0.31973   0.00000  Uiso   1.00
H87    H     0.01496   0.23893   0.31918   0.00000  Uiso   1.00
H88    H     0.33260   0.19582   0.35146   0.00000  Uiso   1.00
N89    N     0.07199   0.12397   0.17967   0.00000  Uiso   1.00
H90    H     0.09650   0.11117   0.19155   0.00000  Uiso   1.00
H91    H     0.08961   0.14466   0.15356   0.00000  Uiso   1.00
N92    N     0.25864   0.20823   0.32004   0.00000  Uiso   1.00
H93    H     0.25353   0.19409   0.35117   0.00000  Uiso   1.00
H94    H     0.27027   0.23835   0.32239   0.00000  Uiso   1.00
C95    C     0.50023   0.24654   0.24978   0.00000  Uiso   1.00
C96    C     0.49980   0.08682   0.25029   0.00000  Uiso   1.00
C97    C     0.44395   0.17947   0.05050   0.00000  Uiso   1.00
C98    C     0.55625   0.15247   0.44956   0.00000  Uiso   1.00
C99    C     0.41068   0.18516   0.03005   0.00000  Uiso   1.00
C100   C     0.58911   0.14580   0.47018   0.00000  Uiso   1.00
C101   C     0.52339   0.31275   0.27496   0.00000  Uiso   1.00
C102   C     0.47750   0.02092   0.22476   0.00000  Uiso   1.00
C103   C     0.52361   0.02200   0.27509   0.00000  Uiso   1.00
C104   C     0.47640   0.31148   0.22519   0.00000  Uiso   1.00
C105   C     0.50003   0.04264   0.25039   0.00000  Uiso   1.00
C106   C     0.50020   0.29077   0.24976   0.00000  Uiso   1.00
C107   C     0.65593   0.14664   0.21612   0.00000  Uiso   1.00
C108   C     0.34447   0.18677   0.28409   0.00000  Uiso   1.00
C109   C     0.36971   0.14612   0.21639   0.00000  Uiso   1.00
C110   C     0.62963   0.18686   0.28415   0.00000  Uiso   1.00
C111   C     0.46961   0.16667   0.33768   0.00000  Uiso   1.00
C112   C     0.53040   0.16643   0.16229   0.00000  Uiso   1.00
C113   C     0.45109   0.16818   0.38794   0.00000  Uiso   1.00
C114   C     0.54898   0.16421   0.11200   0.00000  Uiso   1.00
C115   C     0.39072   0.18648   0.46222   0.00000  Uiso   1.00
C116   C     0.60837   0.14316   0.03818   0.00000  Uiso   1.00
C117   C     0.40421   0.18120   0.41477   0.00000  Uiso   1.00
C118   C     0.59482   0.14865   0.08555   0.00000  Uiso   1.00
C119   C     0.48354   0.15951   0.40877   0.00000  Uiso   1.00
C120   C     0.51732   0.17431   0.09078   0.00000  Uiso   1.00
C121   C     0.47227   0.16716   0.45560   0.00000  Uiso   1.00
C122   C     0.52805   0.16540   0.04425   0.00000  Uiso   1.00
C123   C     0.42442   0.17974   0.48277   0.00000  Uiso   1.00
C124   C     0.57533   0.15139   0.01739   0.00000  Uiso   1.00
C125   C     0.50730   0.16286   0.47586   0.00000  Uiso   1.00
C126   C     0.49302   0.16972   0.02402   0.00000  Uiso   1.00
H127   H     0.37380   0.19347   0.05152   0.00000  Uiso   1.00
H128   H     0.62570   0.13652   0.44891   0.00000  Uiso   1.00
H129   H     0.48402   0.18882   0.11174   0.00000  Uiso   1.00
H130   H     0.51791   0.14714   0.38714   0.00000  Uiso   1.00
H131   H     0.61963   0.13971   0.10122   0.00000  Uiso   1.00
H132   H     0.37855   0.18808   0.39914   0.00000  Uiso   1.00
H133   H     0.35440   0.19686   0.48267   0.00000  Uiso   1.00
H134   H     0.64407   0.13125   0.01806   0.00000  Uiso   1.00
H135   H     0.42951   0.18247   0.08743   0.00000  Uiso   1.00
H136   H     0.57093   0.14900   0.41274   0.00000  Uiso   1.00
N137   N     0.38093   0.16668   0.25001   0.00000  Uiso   1.00
N138   N     0.61907   0.16666   0.24999   0.00000  Uiso   1.00
O139   O     0.46179   0.22775   0.25000   0.00000  Uiso   1.00
O140   O     0.53821   0.10558   0.25000   0.00000  Uiso   1.00
O141   O     0.53823   0.22774   0.25000   0.00000  Uiso   1.00
O142   O     0.46177   0.10559   0.25000   0.00000  Uiso   1.00
O143   O     0.43994   0.16667   0.31612   0.00000  Uiso   1.00
O144   O     0.56006   0.16666   0.18388   0.00000  Uiso   1.00
O145   O     0.51639   0.16666   0.31612   0.00000  Uiso   1.00
O146   O     0.48361   0.16667   0.18388   0.00000  Uiso   1.00
Zn147  Zn    0.44896   0.16667   0.25000   0.00000  Uiso   1.00
Zn148  Zn    0.55104   0.16666   0.25000   0.00000  Uiso   1.00
N149   N     0.54664   0.29259   0.30135   0.00000  Uiso   1.00
H150   H     0.57843   0.27911   0.27843   0.00000  Uiso   1.00
H151   H     0.52321   0.27067   0.32269   0.00000  Uiso   1.00
N152   N     0.45745   0.04259   0.19671   0.00000  Uiso   1.00
H153   H     0.47532   0.03355   0.16224   0.00000  Uiso   1.00
H154   H     0.42064   0.03526   0.20718   0.00000  Uiso   1.00
C155   C     0.55010   0.04368   0.30069   0.00000  Uiso   1.00
C156   C     0.59995   0.05168   0.27862   0.00000  Uiso   1.00
C157   C     0.62609   0.06869   0.30351   0.00000  Uiso   1.00
C158   C     0.60290   0.07688   0.35071   0.00000  Uiso   1.00
C159   C     0.55347   0.06830   0.37300   0.00000  Uiso   1.00
C160   C     0.52695   0.05212   0.34803   0.00000  Uiso   1.00
H161   H     0.61849   0.04445   0.24228   0.00000  Uiso   1.00
H162   H     0.66444   0.07498   0.28636   0.00000  Uiso   1.00
H163   H     0.62334   0.08953   0.37006   0.00000  Uiso   1.00
H164   H     0.53567   0.07410   0.40969   0.00000  Uiso   1.00
H165   H     0.48879   0.04526   0.36568   0.00000  Uiso   1.00
C166   C     0.44983   0.28974   0.19967   0.00000  Uiso   1.00
C167   C     0.47301   0.28067   0.15246   0.00000  Uiso   1.00
C168   C     0.44633   0.26469   0.12755   0.00000  Uiso   1.00
C169   C     0.39685   0.25639   0.14986   0.00000  Uiso   1.00
C170   C     0.37367   0.26500   0.19697   0.00000  Uiso   1.00
C171   C     0.39988   0.28217   0.22171   0.00000  Uiso   1.00
H172   H     0.51126   0.28714   0.13481   0.00000  Uiso   1.00
H173   H     0.46409   0.25868   0.09089   0.00000  Uiso   1.00
H174   H     0.37637   0.24366   0.13058   0.00000  Uiso   1.00
H175   H     0.33526   0.25899   0.21414   0.00000  Uiso   1.00
H176   H     0.38132   0.29004   0.25785   0.00000  Uiso   1.00
N177   N     0.64865   0.12787   0.17773   0.00000  Uiso   1.00
H178   H     0.64490   0.15176   0.15765   0.00000  Uiso   1.00
H179   H     0.61760   0.10950   0.18927   0.00000  Uiso   1.00
N180   N     0.35535   0.20755   0.31973   0.00000  Uiso   1.00
H181   H     0.34830   0.23893   0.31918   0.00000  Uiso   1.00
H182   H     0.66593   0.19582   0.35146   0.00000  Uiso   1.00
N183   N     0.40532   0.12397   0.17967   0.00000  Uiso   1.00
H184   H     0.42983   0.11117   0.19155   0.00000  Uiso   1.00
H185   H     0.42294   0.14466   0.15356   0.00000  Uiso   1.00
N186   N     0.59197   0.20823   0.32004   0.00000  Uiso   1.00
H187   H     0.58686   0.19409   0.35117   0.00000  Uiso   1.00
H188   H     0.60360   0.23835   0.32239   0.00000  Uiso   1.00
C189   C     0.83357   0.24654   0.24978   0.00000  Uiso   1.00
C190   C     0.83313   0.08682   0.25029   0.00000  Uiso   1.00
C191   C     0.77728   0.17947   0.05050   0.00000  Uiso   1.00
C192   C     0.88959   0.15247   0.44956   0.00000  Uiso   1.00
C193   C     0.74402   0.18516   0.03005   0.00000  Uiso   1.00
C194   C     0.92244   0.14580   0.47018   0.00000  Uiso   1.00
C195   C     0.85673   0.31275   0.27496   0.00000  Uiso   1.00
C196   C     0.81083   0.02092   0.22476   0.00000  Uiso   1.00
C197   C     0.85694   0.02200   0.27509   0.00000  Uiso   1.00
C198   C     0.80973   0.31148   0.22519   0.00000  Uiso   1.00
C199   C     0.83336   0.04264   0.25039   0.00000  Uiso   1.00
C200   C     0.83354   0.29077   0.24976   0.00000  Uiso   1.00
C201   C     0.98926   0.14664   0.21612   0.00000  Uiso   1.00
C202   C     0.67780   0.18677   0.28409   0.00000  Uiso   1.00
C203   C     0.70304   0.14612   0.21639   0.00000  Uiso   1.00
C204   C     0.96296   0.18686   0.28415   0.00000  Uiso   1.00
C205   C     0.80295   0.16667   0.33768   0.00000  Uiso   1.00
C206   C     0.86373   0.16643   0.16229   0.00000  Uiso   1.00
C207   C     0.78443   0.16818   0.38794   0.00000  Uiso   1.00
C208   C     0.88231   0.16421   0.11200   0.00000  Uiso   1.00
C209   C     0.72405   0.18648   0.46222   0.00000  Uiso   1.00
C210   C     0.94170   0.14316   0.03818   0.00000  Uiso   1.00
C211   C     0.73754   0.18120   0.41477   0.00000  Uiso   1.00
C212   C     0.92815   0.14865   0.08555   0.00000  Uiso   1.00
C213   C     0.81687   0.15951   0.40877   0.00000  Uiso   1.00
C214   C     0.85065   0.17431   0.09078   0.00000  Uiso   1.00
C215   C     0.80560   0.16716   0.45560   0.00000  Uiso   1.00
C216   C     0.86138   0.16540   0.04425   0.00000  Uiso   1.00
C217   C     0.75776   0.17974   0.48277   0.00000  Uiso   1.00
C218   C     0.90866   0.15139   0.01739   0.00000  Uiso   1.00
C219   C     0.84063   0.16286   0.47586   0.00000  Uiso   1.00
C220   C     0.82636   0.16972   0.02402   0.00000  Uiso   1.00
H221   H     0.70713   0.19347   0.05152   0.00000  Uiso   1.00
H222   H     0.95904   0.13652   0.44891   0.00000  Uiso   1.00
H223   H     0.81735   0.18882   0.11174   0.00000  Uiso   1.00
H224   H     0.85125   0.14714   0.38714   0.00000  Uiso   1.00
H225   H     0.95296   0.13971   0.10122   0.00000  Uiso   1.00
H226   H     0.71189   0.18808   0.39914   0.00000  Uiso   1.00
H227   H     0.68773   0.19686   0.48267   0.00000  Uiso   1.00
H228   H     0.97740   0.13125   0.01806   0.00000  Uiso   1.00
H229   H     0.76284   0.18247   0.08743   0.00000  Uiso   1.00
H230   H     0.90426   0.14900   0.41274   0.00000  Uiso   1.00
N231   N     0.71426   0.16668   0.25001   0.00000  Uiso   1.00
N232   N     0.95241   0.16666   0.24999   0.00000  Uiso   1.00
O233   O     0.79512   0.22775   0.25000   0.00000  Uiso   1.00
O234   O     0.87154   0.10558   0.25000   0.00000  Uiso   1.00
O235   O     0.87157   0.22774   0.25000   0.00000  Uiso   1.00
O236   O     0.79510   0.10559   0.25000   0.00000  Uiso   1.00
O237   O     0.77328   0.16667   0.31612   0.00000  Uiso   1.00
O238   O     0.89339   0.16666   0.18388   0.00000  Uiso   1.00
O239   O     0.84972   0.16666   0.31612   0.00000  Uiso   1.00
O240   O     0.81695   0.16667   0.18388   0.00000  Uiso   1.00
Zn241  Zn    0.78229   0.16667   0.25000   0.00000  Uiso   1.00
Zn242  Zn    0.88438   0.16666   0.25000   0.00000  Uiso   1.00
N243   N     0.87997   0.29259   0.30135   0.00000  Uiso   1.00
H244   H     0.91176   0.27911   0.27843   0.00000  Uiso   1.00
H245   H     0.85654   0.27067   0.32269   0.00000  Uiso   1.00
N246   N     0.79078   0.04259   0.19671   0.00000  Uiso   1.00
H247   H     0.80865   0.03355   0.16224   0.00000  Uiso   1.00
H248   H     0.75397   0.03526   0.20718   0.00000  Uiso   1.00
C249   C     0.88343   0.04368   0.30069   0.00000  Uiso   1.00
C250   C     0.93328   0.05168   0.27862   0.00000  Uiso   1.00
C251   C     0.95942   0.06869   0.30351   0.00000  Uiso   1.00
C252   C     0.93623   0.07688   0.35071   0.00000  Uiso   1.00
C253   C     0.88680   0.06830   0.37300   0.00000  Uiso   1.00
C254   C     0.86028   0.05212   0.34803   0.00000  Uiso   1.00
H255   H     0.95182   0.04445   0.24228   0.00000  Uiso   1.00
H256   H     0.99777   0.07498   0.28636   0.00000  Uiso   1.00
H257   H     0.95667   0.08953   0.37006   0.00000  Uiso   1.00
H258   H     0.86901   0.07410   0.40969   0.00000  Uiso   1.00
H259   H     0.82212   0.04526   0.36568   0.00000  Uiso   1.00
C260   C     0.78316   0.28974   0.19967   0.00000  Uiso   1.00
C261   C     0.80634   0.28067   0.15246   0.00000  Uiso   1.00
C262   C     0.77966   0.26469   0.12755   0.00000  Uiso   1.00
C263   C     0.73018   0.25639   0.14986   0.00000  Uiso   1.00
C264   C     0.70700   0.26500   0.19697   0.00000  Uiso   1.00
C265   C     0.73322   0.28217   0.22171   0.00000  Uiso   1.00
H266   H     0.84460   0.28714   0.13481   0.00000  Uiso   1.00
H267   H     0.79742   0.25868   0.09089   0.00000  Uiso   1.00
H268   H     0.70971   0.24366   0.13058   0.00000  Uiso   1.00
H269   H     0.66859   0.25899   0.21414   0.00000  Uiso   1.00
H270   H     0.71465   0.29004   0.25785   0.00000  Uiso   1.00
N271   N     0.98198   0.12787   0.17773   0.00000  Uiso   1.00
H272   H     0.97823   0.15176   0.15765   0.00000  Uiso   1.00
H273   H     0.95093   0.10950   0.18927   0.00000  Uiso   1.00
N274   N     0.68868   0.20755   0.31973   0.00000  Uiso   1.00
H275   H     0.68163   0.23893   0.31918   0.00000  Uiso   1.00
H276   H     0.99927   0.19582   0.35146   0.00000  Uiso   1.00
N277   N     0.73866   0.12397   0.17967   0.00000  Uiso   1.00
H278   H     0.76316   0.11117   0.19155   0.00000  Uiso   1.00
H279   H     0.75627   0.14466   0.15356   0.00000  Uiso   1.00
N280   N     0.92530   0.20823   0.32004   0.00000  Uiso   1.00
H281   H     0.92020   0.19409   0.35117   0.00000  Uiso   1.00
H282   H     0.93693   0.23835   0.32239   0.00000  Uiso   1.00
C283   C     0.16690   0.57987   0.24978   0.00000  Uiso   1.00
C284   C     0.16647   0.42015   0.25029   0.00000  Uiso   1.00
C285   C     0.11062   0.51280   0.05050   0.00000  Uiso   1.00
C286   C     0.22292   0.48580   0.44956   0.00000  Uiso   1.00
C287   C     0.07735   0.51849   0.03005   0.00000  Uiso   1.00
C288   C     0.25578   0.47913   0.47018   0.00000  Uiso   1.00
C289   C     0.19006   0.64608   0.27496   0.00000  Uiso   1.00
C290   C     0.14417   0.35425   0.22476   0.00000  Uiso   1.00
C291   C     0.19028   0.35533   0.27509   0.00000  Uiso   1.00
C292   C     0.14306   0.64482   0.22519   0.00000  Uiso   1.00
C293   C     0.16670   0.37597   0.25039   0.00000  Uiso   1.00
C294   C     0.16687   0.62410   0.24976   0.00000  Uiso   1.00
C295   C     0.32259   0.47998   0.21612   0.00000  Uiso   1.00
C296   C     0.01114   0.52011   0.28409   0.00000  Uiso   1.00
C297   C     0.03638   0.47946   0.21639   0.00000  Uiso   1.00
C298   C     0.29630   0.52020   0.28415   0.00000  Uiso   1.00
C299   C     0.13628   0.50000   0.33768   0.00000  Uiso   1.00
C300   C     0.19707   0.49976   0.16229   0.00000  Uiso   1.00
C301   C     0.11776   0.50151   0.38794   0.00000  Uiso   1.00
C302   C     0.21565   0.49754   0.11200   0.00000  Uiso   1.00
C303   C     0.05738   0.51982   0.46222   0.00000  Uiso   1.00
C304   C     0.27504   0.47650   0.03818   0.00000  Uiso   1.00
C305   C     0.07087   0.51453   0.41477   0.00000  Uiso   1.00
C306   C     0.26148   0.48198   0.08555   0.00000  Uiso   1.00
C307   C     0.15020   0.49284   0.40877   0.00000  Uiso   1.00
C308   C     0.18398   0.50764   0.09078   0.00000  Uiso   1.00
C309   C     0.13893   0.50050   0.45560   0.00000  Uiso   1.00
C310   C     0.19472   0.49874   0.04425   0.00000  Uiso   1.00
C311   C     0.09109   0.51307   0.48277   0.00000  Uiso   1.00
C312   C     0.24199   0.48472   0.01739   0.00000  Uiso   1.00
C313   C     0.17397   0.49620   0.47586   0.00000  Uiso   1.00
C314   C     0.15969   0.50305   0.02402   0.00000  Uiso   1.00
H315   H     0.04047   0.52680   0.05152   0.00000  Uiso   1.00
H316   H     0.29237   0.46986   0.44891   0.00000  Uiso   1.00
H317   H     0.15068   0.52215   0.11174   0.00000  Uiso   1.00
H318   H     0.18458   0.48048   0.38714   0.00000  Uiso   1.00
H319   H     0.28630   0.47305   0.10122   0.00000  Uiso   1.00
H320   H     0.04522   0.52141   0.39914   0.00000  Uiso   1.00
H321   H     0.02106   0.53020   0.48267   0.00000  Uiso   1.00
H322   H     0.31074   0.46458   0.01806   0.00000  Uiso   1.00
H323   H     0.09618   0.51580   0.08743   0.00000  Uiso   1.00
H324   H     0.23759   0.48233   0.41274   0.00000  Uiso   1.00
N325   N     0.04759   0.50001   0.25001   0.00000  Uiso   1.00
N326   N     0.28574   0.49999   0.24999   0.00000  Uiso   1.00
O327   O     0.12846   0.56108   0.25000   0.00000  Uiso   1.00
O328   O     0.20488   0.43892   0.25000   0.00000  Uiso   1.00
O329   O     0.20490   0.56107   0.25000   0.00000  Uiso   1.00
O330   O     0.12843   0.43893   0.25000   0.00000  Uiso   1.00
O331   O     0.10661   0.50001   0.31612   0.00000  Uiso   1.00
O332   O     0.22672   0.49999   0.18388   0.00000  Uiso   1.00
O333   O     0.18305   0.50000   0.31612   0.00000  Uiso   1.00
O334   O     0.15028   0.50000   0.18388   0.00000  Uiso   1.00
Zn335  Zn    0.11562   0.50001   0.25000   0.00000  Uiso   1.00
Zn336  Zn    0.21771   0.49999   0.25000   0.00000  Uiso   1.00
N337   N     0.21330   0.62592   0.30135   0.00000  Uiso   1.00
H338   H     0.24510   0.61244   0.27843   0.00000  Uiso   1.00
H339   H     0.18987   0.60400   0.32269   0.00000  Uiso   1.00
N340   N     0.12411   0.37593   0.19671   0.00000  Uiso   1.00
H341   H     0.14198   0.36688   0.16224   0.00000  Uiso   1.00
H342   H     0.08730   0.36860   0.20718   0.00000  Uiso   1.00
C343   C     0.21676   0.37701   0.30069   0.00000  Uiso   1.00
C344   C     0.26662   0.38501   0.27862   0.00000  Uiso   1.00
C345   C     0.29276   0.40202   0.30351   0.00000  Uiso   1.00
C346   C     0.26956   0.41021   0.35071   0.00000  Uiso   1.00
C347   C     0.22014   0.40163   0.37300   0.00000  Uiso   1.00
C348   C     0.19361   0.38546   0.34803   0.00000  Uiso   1.00
H349   H     0.28515   0.37778   0.24228   0.00000  Uiso   1.00
H350   H     0.33110   0.40832   0.28636   0.00000  Uiso   1.00
H351   H     0.29001   0.42286   0.37006   0.00000  Uiso   1.00
H352   H     0.20234   0.40743   0.40969   0.00000  Uiso   1.00
H353   H     0.15545   0.37860   0.36568   0.00000  Uiso   1.00
C354   C     0.11649   0.62307   0.19967   0.00000  Uiso   1.00
C355   C     0.13967   0.61401   0.15246   0.00000  Uiso   1.00
C356   C     0.11300   0.59802   0.12755   0.00000  Uiso   1.00
C357   C     0.06352   0.58972   0.14986   0.00000  Uiso   1.00
C358   C     0.04033   0.59834   0.19697   0.00000  Uiso   1.00
C359   C     0.06655   0.61550   0.22171   0.00000  Uiso   1.00
H360   H     0.17793   0.62048   0.13481   0.00000  Uiso   1.00
H361   H     0.13075   0.59201   0.09089   0.00000  Uiso   1.00
H362   H     0.04304   0.57699   0.13058   0.00000  Uiso   1.00
H363   H     0.00193   0.59232   0.21414   0.00000  Uiso   1.00
H364   H     0.04798   0.62338   0.25785   0.00000  Uiso   1.00
N365   N     0.31531   0.46120   0.17773   0.00000  Uiso   1.00
H366   H     0.31157   0.48509   0.15765   0.00000  Uiso   1.00
H367   H     0.28427   0.44284   0.18927   0.00000  Uiso   1.00
N368   N     0.02201   0.54088   0.31973   0.00000  Uiso   1.00
H369   H     0.01496   0.57227   0.31918   0.00000  Uiso   1.00
H370   H     0.33260   0.52915   0.35146   0.00000  Uiso   1.00
N371   N     0.07199   0.45730   0.17967   0.00000  Uiso   1.00
H372   H     0.09650   0.44451   0.19155   0.00000  Uiso   1.00
H373   H     0.08961   0.47799   0.15356   0.00000  Uiso   1.00
N374   N     0.25864   0.54156   0.32004   0.00000  Uiso   1.00
H375   H     0.25353   0.52742   0.35117   0.00000  Uiso   1.00
H376   H     0.27027   0.57168   0.32239   0.00000  Uiso   1.00
C377   C     0.50023   0.57987   0.24978   0.00000  Uiso   1.00
C378   C     0.49980   0.42015   0.25029   0.00000  Uiso   1.00
C379   C     0.44395   0.51280   0.05050   0.00000  Uiso   1.00
C380   C     0.55625   0.48580   0.44956   0.00000  Uiso   1.00
C381   C     0.41068   0.51849   0.03005   0.00000  Uiso   1.00
C382   C     0.58911   0.47913   0.47018   0.00000  Uiso   1.00
C383   C     0.52339   0.64608   0.27496   0.00000  Uiso   1.00
C384   C     0.47750   0.35425   0.22476   0.00000  Uiso   1.00
C385   C     0.52361   0.35533   0.27509   0.00000  Uiso   1.00
C386   C     0.47640   0.64482   0.22519   0.00000  Uiso   1.00
C387   C     0.50003   0.37597   0.25039   0.00000  Uiso   1.00
C388   C     0.50020   0.62410   0.24976   0.00000  Uiso   1.00
C389   C     0.65593   0.47998   0.21612   0.00000  Uiso   1.00
C390   C     0.34447   0.52011   0.28409   0.00000  Uiso   1.00
C391   C     0.36971   0.47946   0.21639   0.00000  Uiso   1.00
C392   C     0.62963   0.52020   0.28415   0.00000  Uiso   1.00
C393   C     0.46961   0.50000   0.33768   0.00000  Uiso   1.00
C394   C     0.53040   0.49976   0.16229   0.00000  Uiso   1.00
C395   C     0.45109   0.50151   0.38794   0.00000  Uiso   1.00
C396   C     0.54898   0.49754   0.11200   0.00000  Uiso   1.00
C397   C     0.39072   0.51982   0.46222   0.00000  Uiso   1.00
C398   C     0.60837   0.47650   0.03818   0.00000  Uiso   1.00
C399   C     0.40421   0.51453   0.41477   0.00000  Uiso   1.00
C400   C     0.59482   0.48198   0.08555   0.00000  Uiso   1.00
C401   C     0.48354   0.49284   0.40877   0.00000  Uiso   1.00
C402   C     0.51732   0.50764   0.09078   0.00000  Uiso   1.00
C403   C     0.47227   0.50050   0.45560   0.00000  Uiso   1.00
C404   C     0.52805   0.49874   0.04425   0.00000  Uiso   1.00
C405   C     0.42442   0.51307   0.48277   0.00000  Uiso   1.00
C406   C     0.57533   0.48472   0.01739   0.00000  Uiso   1.00
C407   C     0.50730   0.49620   0.47586   0.00000  Uiso   1.00
C408   C     0.49302   0.50305   0.02402   0.00000  Uiso   1.00
H409   H     0.37380   0.52680   0.05152   0.00000  Uiso   1.00
H410   H     0.62570   0.46986   0.44891   0.00000  Uiso   1.00
H411   H     0.48402   0.52215   0.11174   0.00000  Uiso   1.00
H412   H     0.51791   0.48048   0.38714   0.00000  Uiso   1.00
H413   H     0.61963   0.47305   0.10122   0.00000  Uiso   1.00
H414   H     0.37855   0.52141   0.39914   0.00000  Uiso   1.00
H415   H     0.35440   0.53020   0.48267   0.00000  Uiso   1.00
H416   H     0.64407   0.46458   0.01806   0.00000  Uiso   1.00
H417   H     0.42951   0.51580   0.08743   0.00000  Uiso   1.00
H418   H     0.57093   0.48233   0.41274   0.00000  Uiso   1.00
N419   N     0.38093   0.50001   0.25001   0.00000  Uiso   1.00
N420   N     0.61907   0.49999   0.24999   0.00000  Uiso   1.00
O421   O     0.46179   0.56108   0.25000   0.00000  Uiso   1.00
O422   O     0.53821   0.43892   0.25000   0.00000  Uiso   1.00
O423   O     0.53823   0.56107   0.25000   0.00000  Uiso   1.00
O424   O     0.46177   0.43893   0.25000   0.00000  Uiso   1.00
O425   O     0.43994   0.50001   0.31612   0.00000  Uiso   1.00
O426   O     0.56006   0.49999   0.18388   0.00000  Uiso   1.00
O427   O     0.51639   0.50000   0.31612   0.00000  Uiso   1.00
O428   O     0.48361   0.50000   0.18388   0.00000  Uiso   1.00
Zn429  Zn    0.44896   0.50001   0.25000   0.00000  Uiso   1.00
Zn430  Zn    0.55104   0.49999   0.25000   0.00000  Uiso   1.00
N431   N     0.54664   0.62592   0.30135   0.00000  Uiso   1.00
H432   H     0.57843   0.61244   0.27843   0.00000  Uiso   1.00
H433   H     0.52321   0.60400   0.32269   0.00000  Uiso   1.00
N434   N     0.45745   0.37593   0.19671   0.00000  Uiso   1.00
H435   H     0.47532   0.36688   0.16224   0.00000  Uiso   1.00
H436   H     0.42064   0.36860   0.20718   0.00000  Uiso   1.00
C437   C     0.55010   0.37701   0.30069   0.00000  Uiso   1.00
C438   C     0.59995   0.38501   0.27862   0.00000  Uiso   1.00
C439   C     0.62609   0.40202   0.30351   0.00000  Uiso   1.00
C440   C     0.60290   0.41021   0.35071   0.00000  Uiso   1.00
C441   C     0.55347   0.40163   0.37300   0.00000  Uiso   1.00
C442   C     0.52695   0.38546   0.34803   0.00000  Uiso   1.00
H443   H     0.61849   0.37778   0.24228   0.00000  Uiso   1.00
H444   H     0.66444   0.40832   0.28636   0.00000  Uiso   1.00
H445   H     0.62334   0.42286   0.37006   0.00000  Uiso   1.00
H446   H     0.53567   0.40743   0.40969   0.00000  Uiso   1.00
H447   H     0.48879   0.37860   0.36568   0.00000  Uiso   1.00
C448   C     0.44983   0.62307   0.19967   0.00000  Uiso   1.00
C449   C     0.47301   0.61401   0.15246   0.00000  Uiso   1.00
C450   C     0.44633   0.59802   0.12755   0.00000  Uiso   1.00
C451   C     0.39685   0.58972   0.14986   0.00000  Uiso   1.00
C452   C     0.37367   0.59834   0.19697   0.00000  Uiso   1.00
C453   C     0.39988   0.61550   0.22171   0.00000  Uiso   1.00
H454   H     0.51126   0.62048   0.13481   0.00000  Uiso   1.00
H455   H     0.46409   0.59201   0.09089   0.00000  Uiso   1.00
H456   H     0.37637   0.57699   0.13058   0.00000  Uiso   1.00
H457   H     0.33526   0.59232   0.21414   0.00000  Uiso   1.00
H458   H     0.38132   0.62338   0.25785   0.00000  Uiso   1.00
N459   N     0.64865   0.46120   0.17773   0.00000  Uiso   1.00
H460   H     0.64490   0.48509   0.15765   0.00000  Uiso   1.00
H461   H     0.61760   0.44284   0.18927   0.00000  Uiso   1.00
N462   N     0.35535   0.54088   0.31973   0.00000  Uiso   1.00
H463   H     0.34830   0.57227   0.31918   0.00000  Uiso   1.00
H464   H     0.66593   0.52915   0.35146   0.00000  Uiso   1.00
N465   N     0.40532   0.45730   0.17967   0.00000  Uiso   1.00
H466   H     0.42983   0.44451   0.19155   0.00000  Uiso   1.00
H467   H     0.42294   0.47799   0.15356   0.00000  Uiso   1.00
N468   N     0.59197   0.54156   0.32004   0.00000  Uiso   1.00
H469   H     0.58686   0.52742   0.35117   0.00000  Uiso   1.00
H470   H     0.60360   0.57168   0.32239   0.00000  Uiso   1.00
C471   C     0.83357   0.57987   0.24978   0.00000  Uiso   1.00
C472   C     0.83313   0.42015   0.25029   0.00000  Uiso   1.00
C473   C     0.77728   0.51280   0.05050   0.00000  Uiso   1.00
C474   C     0.88959   0.48580   0.44956   0.00000  Uiso   1.00
C475   C     0.74402   0.51849   0.03005   0.00000  Uiso   1.00
C476   C     0.92244   0.47913   0.47018   0.00000  Uiso   1.00
C477   C     0.85673   0.64608   0.27496   0.00000  Uiso   1.00
C478   C     0.81083   0.35425   0.22476   0.00000  Uiso   1.00
C479   C     0.85694   0.35533   0.27509   0.00000  Uiso   1.00
C480   C     0.80973   0.64482   0.22519   0.00000  Uiso   1.00
C481   C     0.83336   0.37597   0.25039   0.00000  Uiso   1.00
C482   C     0.83354   0.62410   0.24976   0.00000  Uiso   1.00
C483   C     0.98926   0.47998   0.21612   0.00000  Uiso   1.00
C484   C     0.67780   0.52011   0.28409   0.00000  Uiso   1.00
C485   C     0.70304   0.47946   0.21639   0.00000  Uiso   1.00
C486   C     0.96296   0.52020   0.28415   0.00000  Uiso   1.00
C487   C     0.80295   0.50000   0.33768   0.00000  Uiso   1.00
C488   C     0.86373   0.49976   0.16229   0.00000  Uiso   1.00
C489   C     0.78443   0.50151   0.38794   0.00000  Uiso   1.00
C490   C     0.88231   0.49754   0.11200   0.00000  Uiso   1.00
C491   C     0.72405   0.51982   0.46222   0.00000  Uiso   1.00
C492   C     0.94170   0.47650   0.03818   0.00000  Uiso   1.00
C493   C     0.73754   0.51453   0.41477   0.00000  Uiso   1.00
C494   C     0.92815   0.48198   0.08555   0.00000  Uiso   1.00
C495   C     0.81687   0.49284   0.40877   0.00000  Uiso   1.00
C496   C     0.85065   0.50764   0.09078   0.00000  Uiso   1.00
C497   C     0.80560   0.50050   0.45560   0.00000  Uiso   1.00
C498   C     0.86138   0.49874   0.04425   0.00000  Uiso   1.00
C499   C     0.75776   0.51307   0.48277   0.00000  Uiso   1.00
C500   C     0.90866   0.48472   0.01739   0.00000  Uiso   1.00
C501   C     0.84063   0.49620   0.47586   0.00000  Uiso   1.00
C502   C     0.82636   0.50305   0.02402   0.00000  Uiso   1.00
H503   H     0.70713   0.52680   0.05152   0.00000  Uiso   1.00
H504   H     0.95904   0.46986   0.44891   0.00000  Uiso   1.00
H505   H     0.81735   0.52215   0.11174   0.00000  Uiso   1.00
H506   H     0.85125   0.48048   0.38714   0.00000  Uiso   1.00
H507   H     0.95296   0.47305   0.10122   0.00000  Uiso   1.00
H508   H     0.71189   0.52141   0.39914   0.00000  Uiso   1.00
H509   H     0.68773   0.53020   0.48267   0.00000  Uiso   1.00
H510   H     0.97740   0.46458   0.01806   0.00000  Uiso   1.00
H511   H     0.76284   0.51580   0.08743   0.00000  Uiso   1.00
H512   H     0.90426   0.48233   0.41274   0.00000  Uiso   1.00
N513   N     0.71426   0.50001   0.25001   0.00000  Uiso   1.00
N514   N     0.95241   0.49999   0.24999   0.00000  Uiso   1.00
O515   O     0.79512   0.56108   0.25000   0.00000  Uiso   1.00
O516   O     0.87154   0.43892   0.25000   0.00000  Uiso   1.00
O517   O     0.87157   0.56107   0.25000   0.00000  Uiso   1.00
O518   O     0.79510   0.43893   0.25000   0.00000  Uiso   1.00
O519   O     0.77328   0.50001   0.31612   0.00000  Uiso   1.00
O520   O     0.89339   0.49999   0.18388   0.00000  Uiso   1.00
O521   O     0.84972   0.50000   0.31612   0.00000  Uiso   1.00
O522   O     0.81695   0.50000   0.18388   0.00000  Uiso   1.00
Zn523  Zn    0.78229   0.50001   0.25000   0.00000  Uiso   1.00
Zn524  Zn    0.88438   0.49999   0.25000   0.00000  Uiso   1.00
N525   N     0.87997   0.62592   0.30135   0.00000  Uiso   1.00
H526   H     0.91176   0.61244   0.27843   0.00000  Uiso   1.00
H527   H     0.85654   0.60400   0.32269   0.00000  Uiso   1.00
N528   N     0.79078   0.37593   0.19671   0.00000  Uiso   1.00
H529   H     0.80865   0.36688   0.16224   0.00000  Uiso   1.00
H530   H     0.75397   0.36860   0.20718   0.00000  Uiso   1.00
C531   C     0.88343   0.37701   0.30069   0.00000  Uiso   1.00
C532   C     0.93328   0.38501   0.27862   0.00000  Uiso   1.00
C533   C     0.95942   0.40202   0.30351   0.00000  Uiso   1.00
C534   C     0.93623   0.41021   0.35071   0.00000  Uiso   1.00
C535   C     0.88680   0.40163   0.37300   0.00000  Uiso   1.00
C536   C     0.86028   0.38546   0.34803   0.00000  Uiso   1.00
H537   H     0.95182   0.37778   0.24228   0.00000  Uiso   1.00
H538   H     0.99777   0.40832   0.28636   0.00000  Uiso   1.00
H539   H     0.95667   0.42286   0.37006   0.00000  Uiso   1.00
H540   H     0.86901   0.40743   0.40969   0.00000  Uiso   1.00
H541   H     0.82212   0.37860   0.36568   0.00000  Uiso   1.00
C542   C     0.78316   0.62307   0.19967   0.00000  Uiso   1.00
C543   C     0.80634   0.61401   0.15246   0.00000  Uiso   1.00
C544   C     0.77966   0.59802   0.12755   0.00000  Uiso   1.00
C545   C     0.73018   0.58972   0.14986   0.00000  Uiso   1.00
C546   C     0.70700   0.59834   0.19697   0.00000  Uiso   1.00
C547   C     0.73322   0.61550   0.22171   0.00000  Uiso   1.00
H548   H     0.84460   0.62048   0.13481   0.00000  Uiso   1.00
H549   H     0.79742   0.59201   0.09089   0.00000  Uiso   1.00
H550   H     0.70971   0.57699   0.13058   0.00000  Uiso   1.00
H551   H     0.66859   0.59232   0.21414   0.00000  Uiso   1.00
H552   H     0.71465   0.62338   0.25785   0.00000  Uiso   1.00
N553   N     0.98198   0.46120   0.17773   0.00000  Uiso   1.00
H554   H     0.97823   0.48509   0.15765   0.00000  Uiso   1.00
H555   H     0.95093   0.44284   0.18927   0.00000  Uiso   1.00
N556   N     0.68868   0.54088   0.31973   0.00000  Uiso   1.00
H557   H     0.68163   0.57227   0.31918   0.00000  Uiso   1.00
H558   H     0.99927   0.52915   0.35146   0.00000  Uiso   1.00
N559   N     0.73866   0.45730   0.17967   0.00000  Uiso   1.00
H560   H     0.76316   0.44451   0.19155   0.00000  Uiso   1.00
H561   H     0.75627   0.47799   0.15356   0.00000  Uiso   1.00
N562   N     0.92530   0.54156   0.32004   0.00000  Uiso   1.00
H563   H     0.92020   0.52742   0.35117   0.00000  Uiso   1.00
H564   H     0.93693   0.57168   0.32239   0.00000  Uiso   1.00
C565   C     0.16690   0.91321   0.24978   0.00000  Uiso   1.00
C566   C     0.16647   0.75349   0.25029   0.00000  Uiso   1.00
C567   C     0.11062   0.84613   0.05050   0.00000  Uiso   1.00
C568   C     0.22292   0.81914   0.44956   0.00000  Uiso   1.00
C569   C     0.07735   0.85182   0.03005   0.00000  Uiso   1.00
C570   C     0.25578   0.81246   0.47018   0.00000  Uiso   1.00
C571   C     0.19006   0.97942   0.27496   0.00000  Uiso   1.00
C572   C     0.14417   0.68758   0.22476   0.00000  Uiso   1.00
C573   C     0.19028   0.68867   0.27509   0.00000  Uiso   1.00
C574   C     0.14306   0.97815   0.22519   0.00000  Uiso   1.00
C575   C     0.16670   0.70931   0.25039   0.00000  Uiso   1.00
C576   C     0.16687   0.95743   0.24976   0.00000  Uiso   1.00
C577   C     0.32259   0.81331   0.21612   0.00000  Uiso   1.00
C578   C     0.01114   0.85344   0.28409   0.00000  Uiso   1.00
C579   C     0.03638   0.81279   0.21639   0.00000  Uiso   1.00
C580   C     0.29630   0.85353   0.28415   0.00000  Uiso   1.00
C581   C     0.13628   0.83334   0.33768   0.00000  Uiso   1.00
C582   C     0.19707   0.83309   0.16229   0.00000  Uiso   1.00
C583   C     0.11776   0.83485   0.38794   0.00000  Uiso   1.00
C584   C     0.21565   0.83087   0.11200   0.00000  Uiso   1.00
C585   C     0.05738   0.85315   0.46222   0.00000  Uiso   1.00
C586   C     0.27504   0.80983   0.03818   0.00000  Uiso   1.00
C587   C     0.07087   0.84786   0.41477   0.00000  Uiso   1.00
C588   C     0.26148   0.81531   0.08555   0.00000  Uiso   1.00
C589   C     0.15020   0.82617   0.40877   0.00000  Uiso   1.00
C590   C     0.18398   0.84098   0.09078   0.00000  Uiso   1.00
C591   C     0.13893   0.83383   0.45560   0.00000  Uiso   1.00
C592   C     0.19472   0.83207   0.04425   0.00000  Uiso   1.00
C593   C     0.09109   0.84640   0.48277   0.00000  Uiso   1.00
C594   C     0.24199   0.81805   0.01739   0.00000  Uiso   1.00
C595   C     0.17397   0.82953   0.47586   0.00000  Uiso   1.00
C596   C     0.15969   0.83638   0.02402   0.00000  Uiso   1.00
H597   H     0.04047   0.86013   0.05152   0.00000  Uiso   1.00
H598   H     0.29237   0.80319   0.44891   0.00000  Uiso   1.00
H599   H     0.15068   0.85548   0.11174   0.00000  Uiso   1.00
H600   H     0.18458   0.81381   0.38714   0.00000  Uiso   1.00
H601   H     0.28630   0.80638   0.10122   0.00000  Uiso   1.00
H602   H     0.04522   0.85475   0.39914   0.00000  Uiso   1.00
H603   H     0.02106   0.86353   0.48267   0.00000  Uiso   1.00
H604   H     0.31074   0.79792   0.01806   0.00000  Uiso   1.00
H605   H     0.09618   0.84914   0.08743   0.00000  Uiso   1.00
H606   H     0.23759   0.81567   0.41274   0.00000  Uiso   1.00
N607   N     0.04759   0.83334   0.25001   0.00000  Uiso   1.00
N608   N     0.28574   0.83332   0.24999   0.00000  Uiso   1.00
O609   O     0.12846   0.89442   0.25000   0.00000  Uiso   1.00
O610   O     0.20488   0.77225   0.25000   0.00000  Uiso   1.00
O611   O     0.20490   0.89441   0.25000   0.00000  Uiso   1.00
O612   O     0.12843   0.77226   0.25000   0.00000  Uiso   1.00
O613   O     0.10661   0.83334   0.31612   0.00000  Uiso   1.00
O614   O     0.22672   0.83333   0.18388   0.00000  Uiso   1.00
O615   O     0.18305   0.83333   0.31612   0.00000  Uiso   1.00
O616   O     0.15028   0.83334   0.18388   0.00000  Uiso   1.00
Zn617  Zn    0.11562   0.83334   0.25000   0.00000  Uiso   1.00
Zn618  Zn    0.21771   0.83333   0.25000   0.00000  Uiso   1.00
N619   N     0.21330   0.95926   0.30135   0.00000  Uiso   1.00
H620   H     0.24510   0.94578   0.27843   0.00000  Uiso   1.00
H621   H     0.18987   0.93733   0.32269   0.00000  Uiso   1.00
N622   N     0.12411   0.70926   0.19671   0.00000  Uiso   1.00
H623   H     0.14198   0.70022   0.16224   0.00000  Uiso   1.00
H624   H     0.08730   0.70193   0.20718   0.00000  Uiso   1.00
C625   C     0.21676   0.71034   0.30069   0.00000  Uiso   1.00
C626   C     0.26662   0.71834   0.27862   0.00000  Uiso   1.00
C627   C     0.29276   0.73536   0.30351   0.00000  Uiso   1.00
C628   C     0.26956   0.74355   0.35071   0.00000  Uiso   1.00
C629   C     0.22014   0.73497   0.37300   0.00000  Uiso   1.00
C630   C     0.19361   0.71879   0.34803   0.00000  Uiso   1.00
H631   H     0.28515   0.71112   0.24228   0.00000  Uiso   1.00
H632   H     0.33110   0.74165   0.28636   0.00000  Uiso   1.00
H633   H     0.29001   0.75619   0.37006   0.00000  Uiso   1.00
H634   H     0.20234   0.74077   0.40969   0.00000  Uiso   1.00
H635   H     0.15545   0.71193   0.36568   0.00000  Uiso   1.00
C636   C     0.11649   0.95641   0.19967   0.00000  Uiso   1.00
C637   C     0.13967   0.94734   0.15246   0.00000  Uiso   1.00
C638   C     0.11300   0.93135   0.12755   0.00000  Uiso   1.00
C639   C     0.06352   0.92306   0.14986   0.00000  Uiso   1.00
C640   C     0.04033   0.93167   0.19697   0.00000  Uiso   1.00
C641   C     0.06655   0.94883   0.22171   0.00000  Uiso   1.00
H642   H     0.17793   0.95381   0.13481   0.00000  Uiso   1.00
H643   H     0.13075   0.92534   0.09089   0.00000  Uiso   1.00
H644   H     0.04304   0.91033   0.13058   0.00000  Uiso   1.00
H645   H     0.00193   0.92566   0.21414   0.00000  Uiso   1.00
H646   H     0.04798   0.95671   0.25785   0.00000  Uiso   1.00
N647   N     0.31531   0.79453   0.17773   0.00000  Uiso   1.00
H648   H     0.31157   0.81842   0.15765   0.00000  Uiso   1.00
H649   H     0.28427   0.77617   0.18927   0.00000  Uiso   1.00
N650   N     0.02201   0.87422   0.31973   0.00000  Uiso   1.00
H651   H     0.01496   0.90560   0.31918   0.00000  Uiso   1.00
H652   H     0.33260   0.86248   0.35146   0.00000  Uiso   1.00
N653   N     0.07199   0.79063   0.17967   0.00000  Uiso   1.00
H654   H     0.09650   0.77784   0.19155   0.00000  Uiso   1.00
H655   H     0.08961   0.81133   0.15356   0.00000  Uiso   1.00
N656   N     0.25864   0.87490   0.32004   0.00000  Uiso   1.00
H657   H     0.25353   0.86075   0.35117   0.00000  Uiso   1.00
H658   H     0.27027   0.90501   0.32239   0.00000  Uiso   1.00
C659   C     0.50023   0.91321   0.24978   0.00000  Uiso   1.00
C660   C     0.49980   0.75349   0.25029   0.00000  Uiso   1.00
C661   C     0.44395   0.84613   0.05050   0.00000  Uiso   1.00
C662   C     0.55625   0.81914   0.44956   0.00000  Uiso   1.00
C663   C     0.41068   0.85182   0.03005   0.00000  Uiso   1.00
C664   C     0.58911   0.81246   0.47018   0.00000  Uiso   1.00
C665   C     0.52339   0.97942   0.27496   0.00000  Uiso   1.00
C666   C     0.47750   0.68758   0.22476   0.00000  Uiso   1.00
C667   C     0.52361   0.68867   0.27509   0.00000  Uiso   1.00
C668   C     0.47640   0.97815   0.22519   0.00000  Uiso   1.00
C669   C     0.50003   0.70931   0.25039   0.00000  Uiso   1.00
C670   C     0.50020   0.95743   0.24976   0.00000  Uiso   1.00
C671   C     0.65593   0.81331   0.21612   0.00000  Uiso   1.00
C672   C     0.34447   0.85344   0.28409   0.00000  Uiso   1.00
C673   C     0.36971   0.81279   0.21639   0.00000  Uiso   1.00
C674   C     0.62963   0.85353   0.28415   0.00000  Uiso   1.00
C675   C     0.46961   0.83334   0.33768   0.00000  Uiso   1.00
C676   C     0.53040   0.83309   0.16229   0.00000  Uiso   1.00
C677   C     0.45109   0.83485   0.38794   0.00000  Uiso   1.00
C678   C     0.54898   0.83087   0.11200   0.00000  Uiso   1.00
C679   C     0.39072   0.85315   0.46222   0.00000  Uiso   1.00
C680   C     0.60837   0.80983   0.03818   0.00000  Uiso   1.00
C681   C     0.40421   0.84786   0.41477   0.00000  Uiso   1.00
C682   C     0.59482   0.81531   0.08555   0.00000  Uiso   1.00
C683   C     0.48354   0.82617   0.40877   0.00000  Uiso   1.00
C684   C     0.51732   0.84098   0.09078   0.00000  Uiso   1.00
C685   C     0.47227   0.83383   0.45560   0.00000  Uiso   1.00
C686   C     0.52805   0.83207   0.04425   0.00000  Uiso   1.00
C687   C     0.42442   0.84640   0.48277   0.00000  Uiso   1.00
C688   C     0.57533   0.81805   0.01739   0.00000  Uiso   1.00
C689   C     0.50730   0.82953   0.47586   0.00000  Uiso   1.00
C690   C     0.49302   0.83638   0.02402   0.00000  Uiso   1.00
H691   H     0.37380   0.86013   0.05152   0.00000  Uiso   1.00
H692   H     0.62570   0.80319   0.44891   0.00000  Uiso   1.00
H693   H     0.48402   0.85548   0.11174   0.00000  Uiso   1.00
H694   H     0.51791   0.81381   0.38714   0.00000  Uiso   1.00
H695   H     0.61963   0.80638   0.10122   0.00000  Uiso   1.00
H696   H     0.37855   0.85475   0.39914   0.00000  Uiso   1.00
H697   H     0.35440   0.86353   0.48267   0.00000  Uiso   1.00
H698   H     0.64407   0.79792   0.01806   0.00000  Uiso   1.00
H699   H     0.42951   0.84914   0.08743   0.00000  Uiso   1.00
H700   H     0.57093   0.81567   0.41274   0.00000  Uiso   1.00
N701   N     0.38093   0.83334   0.25001   0.00000  Uiso   1.00
N702   N     0.61907   0.83332   0.24999   0.00000  Uiso   1.00
O703   O     0.46179   0.89442   0.25000   0.00000  Uiso   1.00
O704   O     0.53821   0.77225   0.25000   0.00000  Uiso   1.00
O705   O     0.53823   0.89441   0.25000   0.00000  Uiso   1.00
O706   O     0.46177   0.77226   0.25000   0.00000  Uiso   1.00
O707   O     0.43994   0.83334   0.31612   0.00000  Uiso   1.00
O708   O     0.56006   0.83333   0.18388   0.00000  Uiso   1.00
O709   O     0.51639   0.83333   0.31612   0.00000  Uiso   1.00
O710   O     0.48361   0.83334   0.18388   0.00000  Uiso   1.00
Zn711  Zn    0.44896   0.83334   0.25000   0.00000  Uiso   1.00
Zn712  Zn    0.55104   0.83333   0.25000   0.00000  Uiso   1.00
N713   N     0.54664   0.95926   0.30135   0.00000  Uiso   1.00
H714   H     0.57843   0.94578   0.27843   0.00000  Uiso   1.00
H715   H     0.52321   0.93733   0.32269   0.00000  Uiso   1.00
N716   N     0.45745   0.70926   0.19671   0.00000  Uiso   1.00
H717   H     0.47532   0.70022   0.16224   0.00000  Uiso   1.00
H718   H     0.42064   0.70193   0.20718   0.00000  Uiso   1.00
C719   C     0.55010   0.71034   0.30069   0.00000  Uiso   1.00
C720   C     0.59995   0.71834   0.27862   0.00000  Uiso   1.00
C721   C     0.62609   0.73536   0.30351   0.00000  Uiso   1.00
C722   C     0.60290   0.74355   0.35071   0.00000  Uiso   1.00
C723   C     0.55347   0.73497   0.37300   0.00000  Uiso   1.00
C724   C     0.52695   0.71879   0.34803   0.00000  Uiso   1.00
H725   H     0.61849   0.71112   0.24228   0.00000  Uiso   1.00
H726   H     0.66444   0.74165   0.28636   0.00000  Uiso   1.00
H727   H     0.62334   0.75619   0.37006   0.00000  Uiso   1.00
H728   H     0.53567   0.74077   0.40969   0.00000  Uiso   1.00
H729   H     0.48879   0.71193   0.36568   0.00000  Uiso   1.00
C730   C     0.44983   0.95641   0.19967   0.00000  Uiso   1.00
C731   C     0.47301   0.94734   0.15246   0.00000  Uiso   1.00
C732   C     0.44633   0.93135   0.12755   0.00000  Uiso   1.00
C733   C     0.39685   0.92306   0.14986   0.00000  Uiso   1.00
C734   C     0.37367   0.93167   0.19697   0.00000  Uiso   1.00
C735   C     0.39988   0.94883   0.22171   0.00000  Uiso   1.00
H736   H     0.51126   0.95381   0.13481   0.00000  Uiso   1.00
H737   H     0.46409   0.92534   0.09089   0.00000  Uiso   1.00
H738   H     0.37637   0.91033   0.13058   0.00000  Uiso   1.00
H739   H     0.33526   0.92566   0.21414   0.00000  Uiso   1.00
H740   H     0.38132   0.95671   0.25785   0.00000  Uiso   1.00
N741   N     0.64865   0.79453   0.17773   0.00000  Uiso   1.00
H742   H     0.64490   0.81842   0.15765   0.00000  Uiso   1.00
H743   H     0.61760   0.77617   0.18927   0.00000  Uiso   1.00
N744   N     0.35535   0.87422   0.31973   0.00000  Uiso   1.00
H745   H     0.34830   0.90560   0.31918   0.00000  Uiso   1.00
H746   H     0.66593   0.86248   0.35146   0.00000  Uiso   1.00
N747   N     0.40532   0.79063   0.17967   0.00000  Uiso   1.00
H748   H     0.42983   0.77784   0.19155   0.00000  Uiso   1.00
H749   H     0.42294   0.81133   0.15356   0.00000  Uiso   1.00
N750   N     0.59197   0.87490   0.32004   0.00000  Uiso   1.00
H751   H     0.58686   0.86075   0.35117   0.00000  Uiso   1.00
H752   H     0.60360   0.90501   0.32239   0.00000  Uiso   1.00
C753   C     0.83357   0.91321   0.24978   0.00000  Uiso   1.00
C754   C     0.83313   0.75349   0.25029   0.00000  Uiso   1.00
C755   C     0.77728   0.84613   0.05050   0.00000  Uiso   1.00
C756   C     0.88959   0.81914   0.44956   0.00000  Uiso   1.00
C757   C     0.74402   0.85182   0.03005   0.00000  Uiso   1.00
C758   C     0.92244   0.81246   0.47018   0.00000  Uiso   1.00
C759   C     0.85673   0.97942   0.27496   0.00000  Uiso   1.00
C760   C     0.81083   0.68758   0.22476   0.00000  Uiso   1.00
C761   C     0.85694   0.68867   0.27509   0.00000  Uiso   1.00
C762   C     0.80973   0.97815   0.22519   0.00000  Uiso   1.00
C763   C     0.83336   0.70931   0.25039   0.00000  Uiso   1.00
C764   C     0.83354   0.95743   0.24976   0.00000  Uiso   1.00
C765   C     0.98926   0.81331   0.21612   0.00000  Uiso   1.00
C766   C     0.67780   0.85344   0.28409   0.00000  Uiso   1.00
C767   C     0.70304   0.81279   0.21639   0.00000  Uiso   1.00
C768   C     0.96296   0.85353   0.28415   0.00000  Uiso   1.00
C769   C     0.80295   0.83334   0.33768   0.00000  Uiso   1.00
C770   C     0.86373   0.83309   0.16229   0.00000  Uiso   1.00
C771   C     0.78443   0.83485   0.38794   0.00000  Uiso   1.00
C772   C     0.88231   0.83087   0.11200   0.00000  Uiso   1.00
C773   C     0.72405   0.85315   0.46222   0.00000  Uiso   1.00
C774   C     0.94170   0.80983   0.03818   0.00000  Uiso   1.00
C775   C     0.73754   0.84786   0.41477   0.00000  Uiso   1.00
C776   C     0.92815   0.81531   0.08555   0.00000  Uiso   1.00
C777   C     0.81687   0.82617   0.40877   0.00000  Uiso   1.00
C778   C     0.85065   0.84098   0.09078   0.00000  Uiso   1.00
C779   C     0.80560   0.83383   0.45560   0.00000  Uiso   1.00
C780   C     0.86138   0.83207   0.04425   0.00000  Uiso   1.00
C781   C     0.75776   0.84640   0.48277   0.00000  Uiso   1.00
C782   C     0.90866   0.81805   0.01739   0.00000  Uiso   1.00
C783   C     0.84063   0.82953   0.47586   0.00000  Uiso   1.00
C784   C     0.82636   0.83638   0.02402   0.00000  Uiso   1.00
H785   H     0.70713   0.86013   0.05152   0.00000  Uiso   1.00
H786   H     0.95904   0.80319   0.44891   0.00000  Uiso   1.00
H787   H     0.81735   0.85548   0.11174   0.00000  Uiso   1.00
H788   H     0.85125   0.81381   0.38714   0.00000  Uiso   1.00
H789   H     0.95296   0.80638   0.10122   0.00000  Uiso   1.00
H790   H     0.71189   0.85475   0.39914   0.00000  Uiso   1.00
H791   H     0.68773   0.86353   0.48267   0.00000  Uiso   1.00
H792   H     0.97740   0.79792   0.01806   0.00000  Uiso   1.00
H793   H     0.76284   0.84914   0.08743   0.00000  Uiso   1.00
H794   H     0.90426   0.81567   0.41274   0.00000  Uiso   1.00
N795   N     0.71426   0.83334   0.25001   0.00000  Uiso   1.00
N796   N     0.95241   0.83332   0.24999   0.00000  Uiso   1.00
O797   O     0.79512   0.89442   0.25000   0.00000  Uiso   1.00
O798   O     0.87154   0.77225   0.25000   0.00000  Uiso   1.00
O799   O     0.87157   0.89441   0.25000   0.00000  Uiso   1.00
O800   O     0.79510   0.77226   0.25000   0.00000  Uiso   1.00
O801   O     0.77328   0.83334   0.31612   0.00000  Uiso   1.00
O802   O     0.89339   0.83333   0.18388   0.00000  Uiso   1.00
O803   O     0.84972   0.83333   0.31612   0.00000  Uiso   1.00
O804   O     0.81695   0.83334   0.18388   0.00000  Uiso   1.00
Zn805  Zn    0.78229   0.83334   0.25000   0.00000  Uiso   1.00
Zn806  Zn    0.88438   0.83333   0.25000   0.00000  Uiso   1.00
N807   N     0.87997   0.95926   0.30135   0.00000  Uiso   1.00
H808   H     0.91176   0.94578   0.27843   0.00000  Uiso   1.00
H809   H     0.85654   0.93733   0.32269   0.00000  Uiso   1.00
N810   N     0.79078   0.70926   0.19671   0.00000  Uiso   1.00
H811   H     0.80865   0.70022   0.16224   0.00000  Uiso   1.00
H812   H     0.75397   0.70193   0.20718   0.00000  Uiso   1.00
C813   C     0.88343   0.71034   0.30069   0.00000  Uiso   1.00
C814   C     0.93328   0.71834   0.27862   0.00000  Uiso   1.00
C815   C     0.95942   0.73536   0.30351   0.00000  Uiso   1.00
C816   C     0.93623   0.74355   0.35071   0.00000  Uiso   1.00
C817   C     0.88680   0.73497   0.37300   0.00000  Uiso   1.00
C818   C     0.86028   0.71879   0.34803   0.00000  Uiso   1.00
H819   H     0.95182   0.71112   0.24228   0.00000  Uiso   1.00
H820   H     0.99777   0.74165   0.28636   0.00000  Uiso   1.00
H821   H     0.95667   0.75619   0.37006   0.00000  Uiso   1.00
H822   H     0.86901   0.74077   0.40969   0.00000  Uiso   1.00
H823   H     0.82212   0.71193   0.36568   0.00000  Uiso   1.00
C824   C     0.78316   0.95641   0.19967   0.00000  Uiso   1.00
C825   C     0.80634   0.94734   0.15246   0.00000  Uiso   1.00
C826   C     0.77966   0.93135   0.12755   0.00000  Uiso   1.00
C827   C     0.73018   0.92306   0.14986   0.00000  Uiso   1.00
C828   C     0.70700   0.93167   0.19697   0.00000  Uiso   1.00
C829   C     0.73322   0.94883   0.22171   0.00000  Uiso   1.00
H830   H     0.84460   0.95381   0.13481   0.00000  Uiso   1.00
H831   H     0.79742   0.92534   0.09089   0.00000  Uiso   1.00
H832   H     0.70971   0.91033   0.13058   0.00000  Uiso   1.00
H833   H     0.66859   0.92566   0.21414   0.00000  Uiso   1.00
H834   H     0.71465   0.95671   0.25785   0.00000  Uiso   1.00
N835   N     0.98198   0.79453   0.17773   0.00000  Uiso   1.00
H836   H     0.97823   0.81842   0.15765   0.00000  Uiso   1.00
H837   H     0.95093   0.77617   0.18927   0.00000  Uiso   1.00
N838   N     0.68868   0.87422   0.31973   0.00000  Uiso   1.00
H839   H     0.68163   0.90560   0.31918   0.00000  Uiso   1.00
H840   H     0.99927   0.86248   0.35146   0.00000  Uiso   1.00
N841   N     0.73866   0.79063   0.17967   0.00000  Uiso   1.00
H842   H     0.76316   0.77784   0.19155   0.00000  Uiso   1.00
H843   H     0.75627   0.81133   0.15356   0.00000  Uiso   1.00
N844   N     0.92530   0.87490   0.32004   0.00000  Uiso   1.00
H845   H     0.92020   0.86075   0.35117   0.00000  Uiso   1.00
H846   H     0.93693   0.90501   0.32239   0.00000  Uiso   1.00
C847   C     0.16690   0.24654   0.74978   0.00000  Uiso   1.00
C848   C     0.16647   0.08682   0.75029   0.00000  Uiso   1.00
C849   C     0.11062   0.17947   0.55050   0.00000  Uiso   1.00
C850   C     0.22292   0.15247   0.94956   0.00000  Uiso   1.00
C851   C     0.07735   0.18516   0.53005   0.00000  Uiso   1.00
C852   C     0.25578   0.14580   0.97018   0.00000  Uiso   1.00
C853   C     0.19006   0.31275   0.77496   0.00000  Uiso   1.00
C854   C     0.14417   0.02092   0.72476   0.00000  Uiso   1.00
C855   C     0.19028   0.02200   0.77509   0.00000  Uiso   1.00
C856   C     0.14306   0.31148   0.72519   0.00000  Uiso   1.00
C857   C     0.16670   0.04264   0.75039   0.00000  Uiso   1.00
C858   C     0.16687   0.29077   0.74976   0.00000  Uiso   1.00
C859   C     0.32259   0.14664   0.71612   0.00000  Uiso   1.00
C860   C     0.01114   0.18677   0.78409   0.00000  Uiso   1.00
C861   C     0.03638   0.14612   0.71639   0.00000  Uiso   1.00
C862   C     0.29630   0.18686   0.78415   0.00000  Uiso   1.00
C863   C     0.13628   0.16667   0.83768   0.00000  Uiso   1.00
C864   C     0.19707   0.16643   0.66229   0.00000  Uiso   1.00
C865   C     0.11776   0.16818   0.88794   0.00000  Uiso   1.00
C866   C     0.21565   0.16421   0.61200   0.00000  Uiso   1.00
C867   C     0.05738   0.18648   0.96222   0.00000  Uiso   1.00
C868   C     0.27504   0.14316   0.53818   0.00000  Uiso   1.00
C869   C     0.07087   0.18120   0.91477   0.00000  Uiso   1.00
C870   C     0.26148   0.14865   0.58555   0.00000  Uiso   1.00
C871   C     0.15020   0.15951   0.90877   0.00000  Uiso   1.00
C872   C     0.18398   0.17431   0.59078   0.00000  Uiso   1.00
C873   C     0.13893   0.16716   0.95560   0.00000  Uiso   1.00
C874   C     0.19472   0.16540   0.54425   0.00000  Uiso   1.00
C875   C     0.09109   0.17974   0.98277   0.00000  Uiso   1.00
C876   C     0.24199   0.15139   0.51739   0.00000  Uiso   1.00
C877   C     0.17397   0.16286   0.97586   0.00000  Uiso   1.00
C878   C     0.15969   0.16972   0.52402   0.00000  Uiso   1.00
H879   H     0.04047   0.19347   0.55152   0.00000  Uiso   1.00
H880   H     0.29237   0.13652   0.94891   0.00000  Uiso   1.00
H881   H     0.15068   0.18882   0.61174   0.00000  Uiso   1.00
H882   H     0.18458   0.14714   0.88714   0.00000  Uiso   1.00
H883   H     0.28630   0.13971   0.60122   0.00000  Uiso   1.00
H884   H     0.04522   0.18808   0.89914   0.00000  Uiso   1.00
H885   H     0.02106   0.19686   0.98267   0.00000  Uiso   1.00
H886   H     0.31074   0.13125   0.51806   0.00000  Uiso   1.00
H887   H     0.09618   0.18247   0.58743   0.00000  Uiso   1.00
H888   H     0.23759   0.14900   0.91274   0.00000  Uiso   1.00
N889   N     0.04759   0.16668   0.75001   0.00000  Uiso   1.00
N890   N     0.28574   0.16666   0.74999   0.00000  Uiso   1.00
O891   O     0.12846   0.22775   0.75000   0.00000  Uiso   1.00
O892   O     0.20488   0.10558   0.75000   0.00000  Uiso   1.00
O893   O     0.20490   0.22774   0.75000   0.00000  Uiso   1.00
O894   O     0.12843   0.10559   0.75000   0.00000  Uiso   1.00
O895   O     0.10661   0.16667   0.81612   0.00000  Uiso   1.00
O896   O     0.22672   0.16666   0.68388   0.00000  Uiso   1.00
O897   O     0.18305   0.16666   0.81612   0.00000  Uiso   1.00
O898   O     0.15028   0.16667   0.68388   0.00000  Uiso   1.00
Zn899  Zn    0.11562   0.16667   0.75000   0.00000  Uiso   1.00
Zn900  Zn    0.21771   0.16666   0.75000   0.00000  Uiso   1.00
N901   N     0.21330   0.29259   0.80135   0.00000  Uiso   1.00
H902   H     0.24510   0.27911   0.77843   0.00000  Uiso   1.00
H903   H     0.18987   0.27067   0.82269   0.00000  Uiso   1.00
N904   N     0.12411   0.04259   0.69671   0.00000  Uiso   1.00
H905   H     0.14198   0.03355   0.66224   0.00000  Uiso   1.00
H906   H     0.08730   0.03526   0.70718   0.00000  Uiso   1.00
C907   C     0.21676   0.04368   0.80069   0.00000  Uiso   1.00
C908   C     0.26662   0.05168   0.77862   0.00000  Uiso   1.00
C909   C     0.29276   0.06869   0.80351   0.00000  Uiso   1.00
C910   C     0.26956   0.07688   0.85071   0.00000  Uiso   1.00
C911   C     0.22014   0.06830   0.87300   0.00000  Uiso   1.00
C912   C     0.19361   0.05212   0.84803   0.00000  Uiso   1.00
H913   H     0.28515   0.04445   0.74228   0.00000  Uiso   1.00
H914   H     0.33110   0.07498   0.78636   0.00000  Uiso   1.00
H915   H     0.29001   0.08953   0.87006   0.00000  Uiso   1.00
H916   H     0.20234   0.07410   0.90969   0.00000  Uiso   1.00
H917   H     0.15545   0.04526   0.86568   0.00000  Uiso   1.00
C918   C     0.11649   0.28974   0.69967   0.00000  Uiso   1.00
C919   C     0.13967   0.28067   0.65246   0.00000  Uiso   1.00
C920   C     0.11300   0.26469   0.62755   0.00000  Uiso   1.00
C921   C     0.06352   0.25639   0.64986   0.00000  Uiso   1.00
C922   C     0.04033   0.26500   0.69697   0.00000  Uiso   1.00
C923   C     0.06655   0.28217   0.72171   0.00000  Uiso   1.00
H924   H     0.17793   0.28714   0.63481   0.00000  Uiso   1.00
H925   H     0.13075   0.25868   0.59089   0.00000  Uiso   1.00
H926   H     0.04304   0.24366   0.63058   0.00000  Uiso   1.00
H927   H     0.00193   0.25899   0.71414   0.00000  Uiso   1.00
H928   H     0.04798   0.29004   0.75785   0.00000  Uiso   1.00
N929   N     0.31531   0.12787   0.67773   0.00000  Uiso   1.00
H930   H     0.31157   0.15176   0.65765   0.00000  Uiso   1.00
H931   H     0.28427   0.10950   0.68927   0.00000  Uiso   1.00
N932   N     0.02201   0.20755   0.81973   0.00000  Uiso   1.00
H933   H     0.01496   0.23893   0.81918   0.00000  Uiso   1.00
H934   H     0.33260   0.19582   0.85146   0.00000  Uiso   1.00
N935   N     0.07199   0.12397   0.67967   0.00000  Uiso   1.00
H936   H     0.09650   0.11117   0.69155   0.00000  Uiso   1.00
H937   H     0.08961   0.14466   0.65356   0.00000  Uiso   1.00
N938   N     0.25864   0.20823   0.82004   0.00000  Uiso   1.00
H939   H     0.25353   0.19409   0.85117   0.00000  Uiso   1.00
H940   H     0.27027   0.23835   0.82239   0.00000  Uiso   1.00
C941   C     0.50023   0.24654   0.74978   0.00000  Uiso   1.00
C942   C     0.49980   0.08682   0.75029   0.00000  Uiso   1.00
C943   C     0.44395   0.17947   0.55050   0.00000  Uiso   1.00
C944   C     0.55625   0.15247   0.94956   0.00000  Uiso   1.00
C945   C     0.41068   0.18516   0.53005   0.00000  Uiso   1.00
C946   C     0.58911   0.14580   0.97018   0.00000  Uiso   1.00
C947   C     0.52339   0.31275   0.77496   0.00000  Uiso   1.00
C948   C     0.47750   0.02092   0.72476   0.00000  Uiso   1.00
C949   C     0.52361   0.02200   0.77509   0.00000  Uiso   1.00
C950   C     0.47640   0.31148   0.72519   0.00000  Uiso   1.00
C951   C     0.50003   0.04264   0.75039   0.00000  Uiso   1.00
C952   C     0.50020   0.29077   0.74976   0.00000  Uiso   1.00
C953   C     0.65593   0.14664   0.71612   0.00000  Uiso   1.00
C954   C     0.34447   0.18677   0.78409   0.00000  Uiso   1.00
C955   C     0.36971   0.14612   0.71639   0.00000  Uiso   1.00
C956   C     0.62963   0.18686   0.78415   0.00000  Uiso   1.00
C957   C     0.46961   0.16667   0.83768   0.00000  Uiso   1.00
C958   C     0.53040   0.16643   0.66229   0.00000  Uiso   1.00
C959   C     0.45109   0.16818   0.88794   0.00000  Uiso   1.00
C960   C     0.54898   0.16421   0.61200   0.00000  Uiso   1.00
C961   C     0.39072   0.18648   0.96222   0.00000  Uiso   1.00
C962   C     0.60837   0.14316   0.53818   0.00000  Uiso   1.00
C963   C     0.40421   0.18120   0.91477   0.00000  Uiso   1.00
C964   C     0.59482   0.14865   0.58555   0.00000  Uiso   1.00
C965   C     0.48354   0.15951   0.90877   0.00000  Uiso   1.00
C966   C     0.51732   0.17431   0.59078   0.00000  Uiso   1.00
C967   C     0.47227   0.16716   0.95560   0.00000  Uiso   1.00
C968   C     0.52805   0.16540   0.54425   0.00000  Uiso   1.00
C969   C     0.42442   0.17974   0.98277   0.00000  Uiso   1.00
C970   C     0.57533   0.15139   0.51739   0.00000  Uiso   1.00
C971   C     0.50730   0.16286   0.97586   0.00000  Uiso   1.00
C972   C     0.49302   0.16972   0.52402   0.00000  Uiso   1.00
H973   H     0.37380   0.19347   0.55152   0.00000  Uiso   1.00
H974   H     0.62570   0.13652   0.94891   0.00000  Uiso   1.00
H975   H     0.48402   0.18882   0.61174   0.00000  Uiso   1.00
H976   H     0.51791   0.14714   0.88714   0.00000  Uiso   1.00
H977   H     0.61963   0.13971   0.60122   0.00000  Uiso   1.00
H978   H     0.37855   0.18808   0.89914   0.00000  Uiso   1.00
H979   H     0.35440   0.19686   0.98267   0.00000  Uiso   1.00
H980   H     0.64407   0.13125   0.51806   0.00000  Uiso   1.00
H981   H     0.42951   0.18247   0.58743   0.00000  Uiso   1.00
H982   H     0.57093   0.14900   0.91274   0.00000  Uiso   1.00
N983   N     0.38093   0.16668   0.75001   0.00000  Uiso   1.00
N984   N     0.61907   0.16666   0.74999   0.00000  Uiso   1.00
O985   O     0.46179   0.22775   0.75000   0.00000  Uiso   1.00
O986   O     0.53821   0.10558   0.75000   0.00000  Uiso   1.00
O987   O     0.53823   0.22774   0.75000   0.00000  Uiso   1.00
O988   O     0.46177   0.10559   0.75000   0.00000  Uiso   1.00
O989   O     0.43994   0.16667   0.81612   0.00000  Uiso   1.00
O990   O     0.56006   0.16666   0.68388   0.00000  Uiso   1.00
O991   O     0.51639   0.16666   0.81612   0.00000  Uiso   1.00
O992   O     0.48361   0.16667   0.68388   0.00000  Uiso   1.00
Zn993  Zn    0.44896   0.16667   0.75000   0.00000  Uiso   1.00
Zn994  Zn    0.55104   0.16666   0.75000   0.00000  Uiso   1.00
N995   N     0.54664   0.29259   0.80135   0.00000  Uiso   1.00
H996   H     0.57843   0.27911   0.77843   0.00000  Uiso   1.00
H997   H     0.52321   0.27067   0.82269   0.00000  Uiso   1.00
N998   N     0.45745   0.04259   0.69671   0.00000  Uiso   1.00
H999   H     0.47532   0.03355   0.66224   0.00000  Uiso   1.00
H1000  H     0.42064   0.03526   0.70718   0.00000  Uiso   1.00
C1001  C     0.55010   0.04368   0.80069   0.00000  Uiso   1.00
C1002  C     0.59995   0.05168   0.77862   0.00000  Uiso   1.00
C1003  C     0.62609   0.06869   0.80351   0.00000  Uiso   1.00
C1004  C     0.60290   0.07688   0.85071   0.00000  Uiso   1.00
C1005  C     0.55347   0.06830   0.87300   0.00000  Uiso   1.00
C1006  C     0.52695   0.05212   0.84803   0.00000  Uiso   1.00
H1007  H     0.61849   0.04445   0.74228   0.00000  Uiso   1.00
H1008  H     0.66444   0.07498   0.78636   0.00000  Uiso   1.00
H1009  H     0.62334   0.08953   0.87006   0.00000  Uiso   1.00
H1010  H     0.53567   0.07410   0.90969   0.00000  Uiso   1.00
H1011  H     0.48879   0.04526   0.86568   0.00000  Uiso   1.00
C1012  C     0.44983   0.28974   0.69967   0.00000  Uiso   1.00
C1013  C     0.47301   0.28067   0.65246   0.00000  Uiso   1.00
C1014  C     0.44633   0.26469   0.62755   0.00000  Uiso   1.00
C1015  C     0.39685   0.25639   0.64986   0.00000  Uiso   1.00
C1016  C     0.37367   0.26500   0.69697   0.00000  Uiso   1.00
C1017  C     0.39988   0.28217   0.72171   0.00000  Uiso   1.00
H1018  H     0.51126   0.28714   0.63481   0.00000  Uiso   1.00
H1019  H     0.46409   0.25868   0.59089   0.00000  Uiso   1.00
H1020  H     0.37637   0.24366   0.63058   0.00000  Uiso   1.00
H1021  H     0.33526   0.25899   0.71414   0.00000  Uiso   1.00
H1022  H     0.38132   0.29004   0.75785   0.00000  Uiso   1.00
N1023  N     0.64865   0.12787   0.67773   0.00000  Uiso   1.00
H1024  H     0.64490   0.15176   0.65765   0.00000  Uiso   1.00
H1025  H     0.61760   0.10950   0.68927   0.00000  Uiso   1.00
N1026  N     0.35535   0.20755   0.81973   0.00000  Uiso   1.00
H1027  H     0.34830   0.23893   0.81918   0.00000  Uiso   1.00
H1028  H     0.66593   0.19582   0.85146   0.00000  Uiso   1.00
N1029  N     0.40532   0.12397   0.67967   0.00000  Uiso   1.00
H1030  H     0.42983   0.11117   0.69155   0.00000  Uiso   1.00
H1031  H     0.42294   0.14466   0.65356   0.00000  Uiso   1.00
N1032  N     0.59197   0.20823   0.82004   0.00000  Uiso   1.00
H1033  H     0.58686   0.19409   0.85117   0.00000  Uiso   1.00
H1034  H     0.60360   0.23835   0.82239   0.00000  Uiso   1.00
C1035  C     0.83357   0.24654   0.74978   0.00000  Uiso   1.00
C1036  C     0.83313   0.08682   0.75029   0.00000  Uiso   1.00
C1037  C     0.77728   0.17947   0.55050   0.00000  Uiso   1.00
C1038  C     0.88959   0.15247   0.94956   0.00000  Uiso   1.00
C1039  C     0.74402   0.18516   0.53005   0.00000  Uiso   1.00
C1040  C     0.92244   0.14580   0.97018   0.00000  Uiso   1.00
C1041  C     0.85673   0.31275   0.77496   0.00000  Uiso   1.00
C1042  C     0.81083   0.02092   0.72476   0.00000  Uiso   1.00
C1043  C     0.85694   0.02200   0.77509   0.00000  Uiso   1.00
C1044  C     0.80973   0.31148   0.72519   0.00000  Uiso   1.00
C1045  C     0.83336   0.04264   0.75039   0.00000  Uiso   1.00
C1046  C     0.83354   0.29077   0.74976   0.00000  Uiso   1.00
C1047  C     0.98926   0.14664   0.71612   0.00000  Uiso   1.00
C1048  C     0.67780   0.18677   0.78409   0.00000  Uiso   1.00
C1049  C     0.70304   0.14612   0.71639   0.00000  Uiso   1.00
C1050  C     0.96296   0.18686   0.78415   0.00000  Uiso   1.00
C1051  C     0.80295   0.16667   0.83768   0.00000  Uiso   1.00
C1052  C     0.86373   0.16643   0.66229   0.00000  Uiso   1.00
C1053  C     0.78443   0.16818   0.88794   0.00000  Uiso   1.00
C1054  C     0.88231   0.16421   0.61200   0.00000  Uiso   1.00
C1055  C     0.72405   0.18648   0.96222   0.00000  Uiso   1.00
C1056  C     0.94170   0.14316   0.53818   0.00000  Uiso   1.00
C1057  C     0.73754   0.18120   0.91477   0.00000  Uiso   1.00
C1058  C     0.92815   0.14865   0.58555   0.00000  Uiso   1.00
C1059  C     0.81687   0.15951   0.90877   0.00000  Uiso   1.00
C1060  C     0.85065   0.17431   0.59078   0.00000  Uiso   1.00
C1061  C     0.80560   0.16716   0.95560   0.00000  Uiso   1.00
C1062  C     0.86138   0.16540   0.54425   0.00000  Uiso   1.00
C1063  C     0.75776   0.17974   0.98277   0.00000  Uiso   1.00
C1064  C     0.90866   0.15139   0.51739   0.00000  Uiso   1.00
C1065  C     0.84063   0.16286   0.97586   0.00000  Uiso   1.00
C1066  C     0.82636   0.16972   0.52402   0.00000  Uiso   1.00
H1067  H     0.70713   0.19347   0.55152   0.00000  Uiso   1.00
H1068  H     0.95904   0.13652   0.94891   0.00000  Uiso   1.00
H1069  H     0.81735   0.18882   0.61174   0.00000  Uiso   1.00
H1070  H     0.85125   0.14714   0.88714   0.00000  Uiso   1.00
H1071  H     0.95296   0.13971   0.60122   0.00000  Uiso   1.00
H1072  H     0.71189   0.18808   0.89914   0.00000  Uiso   1.00
H1073  H     0.68773   0.19686   0.98267   0.00000  Uiso   1.00
H1074  H     0.97740   0.13125   0.51806   0.00000  Uiso   1.00
H1075  H     0.76284   0.18247   0.58743   0.00000  Uiso   1.00
H1076  H     0.90426   0.14900   0.91274   0.00000  Uiso   1.00
N1077  N     0.71426   0.16668   0.75001   0.00000  Uiso   1.00
N1078  N     0.95241   0.16666   0.74999   0.00000  Uiso   1.00
O1079  O     0.79512   0.22775   0.75000   0.00000  Uiso   1.00
O1080  O     0.87154   0.10558   0.75000   0.00000  Uiso   1.00
O1081  O     0.87157   0.22774   0.75000   0.00000  Uiso   1.00
O1082  O     0.79510   0.10559   0.75000   0.00000  Uiso   1.00
O1083  O     0.77328   0.16667   0.81612   0.00000  Uiso   1.00
O1084  O     0.89339   0.16666   0.68388   0.00000  Uiso   1.00
O1085  O     0.84972   0.16666   0.81612   0.00000  Uiso   1.00
O1086  O     0.81695   0.16667   0.68388   0.00000  Uiso   1.00
Zn1087 Zn    0.78229   0.16667   0.75000   0.00000  Uiso   1.00
Zn1088 Zn    0.88438   0.16666   0.75000   0.00000  Uiso   1.00
N1089  N     0.87997   0.29259   0.80135   0.00000  Uiso   1.00
H1090  H     0.91176   0.27911   0.77843   0.00000  Uiso   1.00
H1091  H     0.85654   0.27067   0.82269   0.00000  Uiso   1.00
N1092  N     0.79078   0.04259   0.69671   0.00000  Uiso   1.00
H1093  H     0.80865   0.03355   0.66224   0.00000  Uiso   1.00
H1094  H     0.75397   0.03526   0.70718   0.00000  Uiso   1.00
C1095  C     0.88343   0.04368   0.80069   0.00000  Uiso   1.00
C1096  C     0.93328   0.05168   0.77862   0.00000  Uiso   1.00
C1097  C     0.95942   0.06869   0.80351   0.00000  Uiso   1.00
C1098  C     0.93623   0.07688   0.85071   0.00000  Uiso   1.00
C1099  C     0.88680   0.06830   0.87300   0.00000  Uiso   1.00
C1100  C     0.86028   0.05212   0.84803   0.00000  Uiso   1.00
H1101  H     0.95182   0.04445   0.74228   0.00000  Uiso   1.00
H1102  H     0.99777   0.07498   0.78636   0.00000  Uiso   1.00
H1103  H     0.95667   0.08953   0.87006   0.00000  Uiso   1.00
H1104  H     0.86901   0.07410   0.90969   0.00000  Uiso   1.00
H1105  H     0.82212   0.04526   0.86568   0.00000  Uiso   1.00
C1106  C     0.78316   0.28974   0.69967   0.00000  Uiso   1.00
C1107  C     0.80634   0.28067   0.65246   0.00000  Uiso   1.00
C1108  C     0.77966   0.26469   0.62755   0.00000  Uiso   1.00
C1109  C     0.73018   0.25639   0.64986   0.00000  Uiso   1.00
C1110  C     0.70700   0.26500   0.69697   0.00000  Uiso   1.00
C1111  C     0.73322   0.28217   0.72171   0.00000  Uiso   1.00
H1112  H     0.84460   0.28714   0.63481   0.00000  Uiso   1.00
H1113  H     0.79742   0.25868   0.59089   0.00000  Uiso   1.00
H1114  H     0.70971   0.24366   0.63058   0.00000  Uiso   1.00
H1115  H     0.66859   0.25899   0.71414   0.00000  Uiso   1.00
H1116  H     0.71465   0.29004   0.75785   0.00000  Uiso   1.00
N1117  N     0.98198   0.12787   0.67773   0.00000  Uiso   1.00
H1118  H     0.97823   0.15176   0.65765   0.00000  Uiso   1.00
H1119  H     0.95093   0.10950   0.68927   0.00000  Uiso   1.00
N1120  N     0.68868   0.20755   0.81973   0.00000  Uiso   1.00
H1121  H     0.68163   0.23893   0.81918   0.00000  Uiso   1.00
H1122  H     0.99927   0.19582   0.85146   0.00000  Uiso   1.00
N1123  N     0.73866   0.12397   0.67967   0.00000  Uiso   1.00
H1124  H     0.76316   0.11117   0.69155   0.00000  Uiso   1.00
H1125  H     0.75627   0.14466   0.65356   0.00000  Uiso   1.00
N1126  N     0.92530   0.20823   0.82004   0.00000  Uiso   1.00
H1127  H     0.92020   0.19409   0.85117   0.00000  Uiso   1.00
H1128  H     0.93693   0.23835   0.82239   0.00000  Uiso   1.00
C1129  C     0.16690   0.57987   0.74978   0.00000  Uiso   1.00
C1130  C     0.16647   0.42015   0.75029   0.00000  Uiso   1.00
C1131  C     0.11062   0.51280   0.55050   0.00000  Uiso   1.00
C1132  C     0.22292   0.48580   0.94956   0.00000  Uiso   1.00
C1133  C     0.07735   0.51849   0.53005   0.00000  Uiso   1.00
C1134  C     0.25578   0.47913   0.97018   0.00000  Uiso   1.00
C1135  C     0.19006   0.64608   0.77496   0.00000  Uiso   1.00
C1136  C     0.14417   0.35425   0.72476   0.00000  Uiso   1.00
C1137  C     0.19028   0.35533   0.77509   0.00000  Uiso   1.00
C1138  C     0.14306   0.64482   0.72519   0.00000  Uiso   1.00
C1139  C     0.16670   0.37597   0.75039   0.00000  Uiso   1.00
C1140  C     0.16687   0.62410   0.74976   0.00000  Uiso   1.00
C1141  C     0.32259   0.47998   0.71612   0.00000  Uiso   1.00
C1142  C     0.01114   0.52011   0.78409   0.00000  Uiso   1.00
C1143  C     0.03638   0.47946   0.71639   0.00000  Uiso   1.00
C1144  C     0.29630   0.52020   0.78415   0.00000  Uiso   1.00
C1145  C     0.13628   0.50000   0.83768   0.00000  Uiso   1.00
C1146  C     0.19707   0.49976   0.66229   0.00000  Uiso   1.00
C1147  C     0.11776   0.50151   0.88794   0.00000  Uiso   1.00
C1148  C     0.21565   0.49754   0.61200   0.00000  Uiso   1.00
C1149  C     0.05738   0.51982   0.96222   0.00000  Uiso   1.00
C1150  C     0.27504   0.47650   0.53818   0.00000  Uiso   1.00
C1151  C     0.07087   0.51453   0.91477   0.00000  Uiso   1.00
C1152  C     0.26148   0.48198   0.58555   0.00000  Uiso   1.00
C1153  C     0.15020   0.49284   0.90877   0.00000  Uiso   1.00
C1154  C     0.18398   0.50764   0.59078   0.00000  Uiso   1.00
C1155  C     0.13893   0.50050   0.95560   0.00000  Uiso   1.00
C1156  C     0.19472   0.49874   0.54425   0.00000  Uiso   1.00
C1157  C     0.09109   0.51307   0.98277   0.00000  Uiso   1.00
C1158  C     0.24199   0.48472   0.51739   0.00000  Uiso   1.00
C1159  C     0.17397   0.49620   0.97586   0.00000  Uiso   1.00
C1160  C     0.15969   0.50305   0.52402   0.00000  Uiso   1.00
H1161  H     0.04047   0.52680   0.55152   0.00000  Uiso   1.00
H1162  H     0.29237   0.46986   0.94891   0.00000  Uiso   1.00
H1163  H     0.15068   0.52215   0.61174   0.00000  Uiso   1.00
H1164  H     0.18458   0.48048   0.88714   0.00000  Uiso   1.00
H1165  H     0.28630   0.47305   0.60122   0.00000  Uiso   1.00
H1166  H     0.04522   0.52141   0.89914   0.00000  Uiso   1.00
H1167  H     0.02106   0.53020   0.98267   0.00000  Uiso   1.00
H1168  H     0.31074   0.46458   0.51806   0.00000  Uiso   1.00
H1169  H     0.09618   0.51580   0.58743   0.00000  Uiso   1.00
H1170  H     0.23759   0.48233   0.91274   0.00000  Uiso   1.00
N1171  N     0.04759   0.50001   0.75001   0.00000  Uiso   1.00
N1172  N     0.28574   0.49999   0.74999   0.00000  Uiso   1.00
O1173  O     0.12846   0.56108   0.75000   0.00000  Uiso   1.00
O1174  O     0.20488   0.43892   0.75000   0.00000  Uiso   1.00
O1175  O     0.20490   0.56107   0.75000   0.00000  Uiso   1.00
O1176  O     0.12843   0.43893   0.75000   0.00000  Uiso   1.00
O1177  O     0.10661   0.50001   0.81612   0.00000  Uiso   1.00
O1178  O     0.22672   0.49999   0.68388   0.00000  Uiso   1.00
O1179  O     0.18305   0.50000   0.81612   0.00000  Uiso   1.00
O1180  O     0.15028   0.50000   0.68388   0.00000  Uiso   1.00
Zn1181 Zn    0.11562   0.50001   0.75000   0.00000  Uiso   1.00
Zn1182 Zn    0.21771   0.49999   0.75000   0.00000  Uiso   1.00
N1183  N     0.21330   0.62592   0.80135   0.00000  Uiso   1.00
H1184  H     0.24510   0.61244   0.77843   0.00000  Uiso   1.00
H1185  H     0.18987   0.60400   0.82269   0.00000  Uiso   1.00
N1186  N     0.12411   0.37593   0.69671   0.00000  Uiso   1.00
H1187  H     0.14198   0.36688   0.66224   0.00000  Uiso   1.00
H1188  H     0.08730   0.36860   0.70718   0.00000  Uiso   1.00
C1189  C     0.21676   0.37701   0.80069   0.00000  Uiso   1.00
C1190  C     0.26662   0.38501   0.77862   0.00000  Uiso   1.00
C1191  C     0.29276   0.40202   0.80351   0.00000  Uiso   1.00
C1192  C     0.26956   0.41021   0.85071   0.00000  Uiso   1.00
C1193  C     0.22014   0.40163   0.87300   0.00000  Uiso   1.00
C1194  C     0.19361   0.38546   0.84803   0.00000  Uiso   1.00
H1195  H     0.28515   0.37778   0.74228   0.00000  Uiso   1.00
H1196  H     0.33110   0.40832   0.78636   0.00000  Uiso   1.00
H1197  H     0.29001   0.42286   0.87006   0.00000  Uiso   1.00
H1198  H     0.20234   0.40743   0.90969   0.00000  Uiso   1.00
H1199  H     0.15545   0.37860   0.86568   0.00000  Uiso   1.00
C1200  C     0.11649   0.62307   0.69967   0.00000  Uiso   1.00
C1201  C     0.13967   0.61401   0.65246   0.00000  Uiso   1.00
C1202  C     0.11300   0.59802   0.62755   0.00000  Uiso   1.00
C1203  C     0.06352   0.58972   0.64986   0.00000  Uiso   1.00
C1204  C     0.04033   0.59834   0.69697   0.00000  Uiso   1.00
C1205  C     0.06655   0.61550   0.72171   0.00000  Uiso   1.00
H1206  H     0.17793   0.62048   0.63481   0.00000  Uiso   1.00
H1207  H     0.13075   0.59201   0.59089   0.00000  Uiso   1.00
H1208  H     0.04304   0.57699   0.63058   0.00000  Uiso   1.00
H1209  H     0.00193   0.59232   0.71414   0.00000  Uiso   1.00
H1210  H     0.04798   0.62338   0.75785   0.00000  Uiso   1.00
N1211  N     0.31531   0.46120   0.67773   0.00000  Uiso   1.00
H1212  H     0.31157   0.48509   0.65765   0.00000  Uiso   1.00
H1213  H     0.28427   0.44284   0.68927   0.00000  Uiso   1.00
N1214  N     0.02201   0.54088   0.81973   0.00000  Uiso   1.00
H1215  H     0.01496   0.57227   0.81918   0.00000  Uiso   1.00
H1216  H     0.33260   0.52915   0.85146   0.00000  Uiso   1.00
N1217  N     0.07199   0.45730   0.67967   0.00000  Uiso   1.00
H1218  H     0.09650   0.44451   0.69155   0.00000  Uiso   1.00
H1219  H     0.08961   0.47799   0.65356   0.00000  Uiso   1.00
N1220  N     0.25864   0.54156   0.82004   0.00000  Uiso   1.00
H1221  H     0.25353   0.52742   0.85117   0.00000  Uiso   1.00
H1222  H     0.27027   0.57168   0.82239   0.00000  Uiso   1.00
C1223  C     0.50023   0.57987   0.74978   0.00000  Uiso   1.00
C1224  C     0.49980   0.42015   0.75029   0.00000  Uiso   1.00
C1225  C     0.44395   0.51280   0.55050   0.00000  Uiso   1.00
C1226  C     0.55625   0.48580   0.94956   0.00000  Uiso   1.00
C1227  C     0.41068   0.51849   0.53005   0.00000  Uiso   1.00
C1228  C     0.58911   0.47913   0.97018   0.00000  Uiso   1.00
C1229  C     0.52339   0.64608   0.77496   0.00000  Uiso   1.00
C1230  C     0.47750   0.35425   0.72476   0.00000  Uiso   1.00
C1231  C     0.52361   0.35533   0.77509   0.00000  Uiso   1.00
C1232  C     0.47640   0.64482   0.72519   0.00000  Uiso   1.00
C1233  C     0.50003   0.37597   0.75039   0.00000  Uiso   1.00
C1234  C     0.50020   0.62410   0.74976   0.00000  Uiso   1.00
C1235  C     0.65593   0.47998   0.71612   0.00000  Uiso   1.00
C1236  C     0.34447   0.52011   0.78409   0.00000  Uiso   1.00
C1237  C     0.36971   0.47946   0.71639   0.00000  Uiso   1.00
C1238  C     0.62963   0.52020   0.78415   0.00000  Uiso   1.00
C1239  C     0.46961   0.50000   0.83768   0.00000  Uiso   1.00
C1240  C     0.53040   0.49976   0.66229   0.00000  Uiso   1.00
C1241  C     0.45109   0.50151   0.88794   0.00000  Uiso   1.00
C1242  C     0.54898   0.49754   0.61200   0.00000  Uiso   1.00
C1243  C     0.39072   0.51982   0.96222   0.00000  Uiso   1.00
C1244  C     0.60837   0.47650   0.53818   0.00000  Uiso   1.00
C1245  C     0.40421   0.51453   0.91477   0.00000  Uiso   1.00
C1246  C     0.59482   0.48198   0.58555   0.00000  Uiso   1.00
C1247  C     0.48354   0.49284   0.90877   0.00000  Uiso   1.00
C1248  C     0.51732   0.50764   0.59078   0.00000  Uiso   1.00
C1249  C     0.47227   0.50050   0.95560   0.00000  Uiso   1.00
C1250  C     0.52805   0.49874   0.54425   0.00000  Uiso   1.00
C1251  C     0.42442   0.51307   0.98277   0.00000  Uiso   1.00
C1252  C     0.57533   0.48472   0.51739   0.00000  Uiso   1.00
C1253  C     0.50730   0.49620   0.97586   0.00000  Uiso   1.00
C1254  C     0.49302   0.50305   0.52402   0.00000  Uiso   1.00
H1255  H     0.37380   0.52680   0.55152   0.00000  Uiso   1.00
H1256  H     0.62570   0.46986   0.94891   0.00000  Uiso   1.00
H1257  H     0.48402   0.52215   0.61174   0.00000  Uiso   1.00
H1258  H     0.51791   0.48048   0.88714   0.00000  Uiso   1.00
H1259  H     0.61963   0.47305   0.60122   0.00000  Uiso   1.00
H1260  H     0.37855   0.52141   0.89914   0.00000  Uiso   1.00
H1261  H     0.35440   0.53020   0.98267   0.00000  Uiso   1.00
H1262  H     0.64407   0.46458   0.51806   0.00000  Uiso   1.00
H1263  H     0.42951   0.51580   0.58743   0.00000  Uiso   1.00
H1264  H     0.57093   0.48233   0.91274   0.00000  Uiso   1.00
N1265  N     0.38093   0.50001   0.75001   0.00000  Uiso   1.00
N1266  N     0.61907   0.49999   0.74999   0.00000  Uiso   1.00
O1267  O     0.46179   0.56108   0.75000   0.00000  Uiso   1.00
O1268  O     0.53821   0.43892   0.75000   0.00000  Uiso   1.00
O1269  O     0.53823   0.56107   0.75000   0.00000  Uiso   1.00
O1270  O     0.46177   0.43893   0.75000   0.00000  Uiso   1.00
O1271  O     0.43994   0.50001   0.81612   0.00000  Uiso   1.00
O1272  O     0.56006   0.49999   0.68388   0.00000  Uiso   1.00
O1273  O     0.51639   0.50000   0.81612   0.00000  Uiso   1.00
O1274  O     0.48361   0.50000   0.68388   0.00000  Uiso   1.00
Zn1275 Zn    0.44896   0.50001   0.75000   0.00000  Uiso   1.00
Zn1276 Zn    0.55104   0.49999   0.75000   0.00000  Uiso   1.00
N1277  N     0.54664   0.62592   0.80135   0.00000  Uiso   1.00
H1278  H     0.57843   0.61244   0.77843   0.00000  Uiso   1.00
H1279  H     0.52321   0.60400   0.82269   0.00000  Uiso   1.00
N1280  N     0.45745   0.37593   0.69671   0.00000  Uiso   1.00
H1281  H     0.47532   0.36688   0.66224   0.00000  Uiso   1.00
H1282  H     0.42064   0.36860   0.70718   0.00000  Uiso   1.00
C1283  C     0.55010   0.37701   0.80069   0.00000  Uiso   1.00
C1284  C     0.59995   0.38501   0.77862   0.00000  Uiso   1.00
C1285  C     0.62609   0.40202   0.80351   0.00000  Uiso   1.00
C1286  C     0.60290   0.41021   0.85071   0.00000  Uiso   1.00
C1287  C     0.55347   0.40163   0.87300   0.00000  Uiso   1.00
C1288  C     0.52695   0.38546   0.84803   0.00000  Uiso   1.00
H1289  H     0.61849   0.37778   0.74228   0.00000  Uiso   1.00
H1290  H     0.66444   0.40832   0.78636   0.00000  Uiso   1.00
H1291  H     0.62334   0.42286   0.87006   0.00000  Uiso   1.00
H1292  H     0.53567   0.40743   0.90969   0.00000  Uiso   1.00
H1293  H     0.48879   0.37860   0.86568   0.00000  Uiso   1.00
C1294  C     0.44983   0.62307   0.69967   0.00000  Uiso   1.00
C1295  C     0.47301   0.61401   0.65246   0.00000  Uiso   1.00
C1296  C     0.44633   0.59802   0.62755   0.00000  Uiso   1.00
C1297  C     0.39685   0.58972   0.64986   0.00000  Uiso   1.00
C1298  C     0.37367   0.59834   0.69697   0.00000  Uiso   1.00
C1299  C     0.39988   0.61550   0.72171   0.00000  Uiso   1.00
H1300  H     0.51126   0.62048   0.63481   0.00000  Uiso   1.00
H1301  H     0.46409   0.59201   0.59089   0.00000  Uiso   1.00
H1302  H     0.37637   0.57699   0.63058   0.00000  Uiso   1.00
H1303  H     0.33526   0.59232   0.71414   0.00000  Uiso   1.00
H1304  H     0.38132   0.62338   0.75785   0.00000  Uiso   1.00
N1305  N     0.64865   0.46120   0.67773   0.00000  Uiso   1.00
H1306  H     0.64490   0.48509   0.65765   0.00000  Uiso   1.00
H1307  H     0.61760   0.44284   0.68927   0.00000  Uiso   1.00
N1308  N     0.35535   0.54088   0.81973   0.00000  Uiso   1.00
H1309  H     0.34830   0.57227   0.81918   0.00000  Uiso   1.00
H1310  H     0.66593   0.52915   0.85146   0.00000  Uiso   1.00
N1311  N     0.40532   0.45730   0.67967   0.00000  Uiso   1.00
H1312  H     0.42983   0.44451   0.69155   0.00000  Uiso   1.00
H1313  H     0.42294   0.47799   0.65356   0.00000  Uiso   1.00
N1314  N     0.59197   0.54156   0.82004   0.00000  Uiso   1.00
H1315  H     0.58686   0.52742   0.85117   0.00000  Uiso   1.00
H1316  H     0.60360   0.57168   0.82239   0.00000  Uiso   1.00
C1317  C     0.83357   0.57987   0.74978   0.00000  Uiso   1.00
C1318  C     0.83313   0.42015   0.75029   0.00000  Uiso   1.00
C1319  C     0.77728   0.51280   0.55050   0.00000  Uiso   1.00
C1320  C     0.88959   0.48580   0.94956   0.00000  Uiso   1.00
C1321  C     0.74402   0.51849   0.53005   0.00000  Uiso   1.00
C1322  C     0.92244   0.47913   0.97018   0.00000  Uiso   1.00
C1323  C     0.85673   0.64608   0.77496   0.00000  Uiso   1.00
C1324  C     0.81083   0.35425   0.72476   0.00000  Uiso   1.00
C1325  C     0.85694   0.35533   0.77509   0.00000  Uiso   1.00
C1326  C     0.80973   0.64482   0.72519   0.00000  Uiso   1.00
C1327  C     0.83336   0.37597   0.75039   0.00000  Uiso   1.00
C1328  C     0.83354   0.62410   0.74976   0.00000  Uiso   1.00
C1329  C     0.98926   0.47998   0.71612   0.00000  Uiso   1.00
C1330  C     0.67780   0.52011   0.78409   0.00000  Uiso   1.00
C1331  C     0.70304   0.47946   0.71639   0.00000  Uiso   1.00
C1332  C     0.96296   0.52020   0.78415   0.00000  Uiso   1.00
C1333  C     0.80295   0.50000   0.83768   0.00000  Uiso   1.00
C1334  C     0.86373   0.49976   0.66229   0.00000  Uiso   1.00
C1335  C     0.78443   0.50151   0.88794   0.00000  Uiso   1.00
C1336  C     0.88231   0.49754   0.61200   0.00000  Uiso   1.00
C1337  C     0.72405   0.51982   0.96222   0.00000  Uiso   1.00
C1338  C     0.94170   0.47650   0.53818   0.00000  Uiso   1.00
C1339  C     0.73754   0.51453   0.91477   0.00000  Uiso   1.00
C1340  C     0.92815   0.48198   0.58555   0.00000  Uiso   1.00
C1341  C     0.81687   0.49284   0.90877   0.00000  Uiso   1.00
C1342  C     0.85065   0.50764   0.59078   0.00000  Uiso   1.00
C1343  C     0.80560   0.50050   0.95560   0.00000  Uiso   1.00
C1344  C     0.86138   0.49874   0.54425   0.00000  Uiso   1.00
C1345  C     0.75776   0.51307   0.98277   0.00000  Uiso   1.00
C1346  C     0.90866   0.48472   0.51739   0.00000  Uiso   1.00
C1347  C     0.84063   0.49620   0.97586   0.00000  Uiso   1.00
C1348  C     0.82636   0.50305   0.52402   0.00000  Uiso   1.00
H1349  H     0.70713   0.52680   0.55152   0.00000  Uiso   1.00
H1350  H     0.95904   0.46986   0.94891   0.00000  Uiso   1.00
H1351  H     0.81735   0.52215   0.61174   0.00000  Uiso   1.00
H1352  H     0.85125   0.48048   0.88714   0.00000  Uiso   1.00
H1353  H     0.95296   0.47305   0.60122   0.00000  Uiso   1.00
H1354  H     0.71189   0.52141   0.89914   0.00000  Uiso   1.00
H1355  H     0.68773   0.53020   0.98267   0.00000  Uiso   1.00
H1356  H     0.97740   0.46458   0.51806   0.00000  Uiso   1.00
H1357  H     0.76284   0.51580   0.58743   0.00000  Uiso   1.00
H1358  H     0.90426   0.48233   0.91274   0.00000  Uiso   1.00
N1359  N     0.71426   0.50001   0.75001   0.00000  Uiso   1.00
N1360  N     0.95241   0.49999   0.74999   0.00000  Uiso   1.00
O1361  O     0.79512   0.56108   0.75000   0.00000  Uiso   1.00
O1362  O     0.87154   0.43892   0.75000   0.00000  Uiso   1.00
O1363  O     0.87157   0.56107   0.75000   0.00000  Uiso   1.00
O1364  O     0.79510   0.43893   0.75000   0.00000  Uiso   1.00
O1365  O     0.77328   0.50001   0.81612   0.00000  Uiso   1.00
O1366  O     0.89339   0.49999   0.68388   0.00000  Uiso   1.00
O1367  O     0.84972   0.50000   0.81612   0.00000  Uiso   1.00
O1368  O     0.81695   0.50000   0.68388   0.00000  Uiso   1.00
Zn1369 Zn    0.78229   0.50001   0.75000   0.00000  Uiso   1.00
Zn1370 Zn    0.88438   0.49999   0.75000   0.00000  Uiso   1.00
N1371  N     0.87997   0.62592   0.80135   0.00000  Uiso   1.00
H1372  H     0.91176   0.61244   0.77843   0.00000  Uiso   1.00
H1373  H     0.85654   0.60400   0.82269   0.00000  Uiso   1.00
N1374  N     0.79078   0.37593   0.69671   0.00000  Uiso   1.00
H1375  H     0.80865   0.36688   0.66224   0.00000  Uiso   1.00
H1376  H     0.75397   0.36860   0.70718   0.00000  Uiso   1.00
C1377  C     0.88343   0.37701   0.80069   0.00000  Uiso   1.00
C1378  C     0.93328   0.38501   0.77862   0.00000  Uiso   1.00
C1379  C     0.95942   0.40202   0.80351   0.00000  Uiso   1.00
C1380  C     0.93623   0.41021   0.85071   0.00000  Uiso   1.00
C1381  C     0.88680   0.40163   0.87300   0.00000  Uiso   1.00
C1382  C     0.86028   0.38546   0.84803   0.00000  Uiso   1.00
H1383  H     0.95182   0.37778   0.74228   0.00000  Uiso   1.00
H1384  H     0.99777   0.40832   0.78636   0.00000  Uiso   1.00
H1385  H     0.95667   0.42286   0.87006   0.00000  Uiso   1.00
H1386  H     0.86901   0.40743   0.90969   0.00000  Uiso   1.00
H1387  H     0.82212   0.37860   0.86568   0.00000  Uiso   1.00
C1388  C     0.78316   0.62307   0.69967   0.00000  Uiso   1.00
C1389  C     0.80634   0.61401   0.65246   0.00000  Uiso   1.00
C1390  C     0.77966   0.59802   0.62755   0.00000  Uiso   1.00
C1391  C     0.73018   0.58972   0.64986   0.00000  Uiso   1.00
C1392  C     0.70700   0.59834   0.69697   0.00000  Uiso   1.00
C1393  C     0.73322   0.61550   0.72171   0.00000  Uiso   1.00
H1394  H     0.84460   0.62048   0.63481   0.00000  Uiso   1.00
H1395  H     0.79742   0.59201   0.59089   0.00000  Uiso   1.00
H1396  H     0.70971   0.57699   0.63058   0.00000  Uiso   1.00
H1397  H     0.66859   0.59232   0.71414   0.00000  Uiso   1.00
H1398  H     0.71465   0.62338   0.75785   0.00000  Uiso   1.00
N1399  N     0.98198   0.46120   0.67773   0.00000  Uiso   1.00
H1400  H     0.97823   0.48509   0.65765   0.00000  Uiso   1.00
H1401  H     0.95093   0.44284   0.68927   0.00000  Uiso   1.00
N1402  N     0.68868   0.54088   0.81973   0.00000  Uiso   1.00
H1403  H     0.68163   0.57227   0.81918   0.00000  Uiso   1.00
H1404  H     0.99927   0.52915   0.85146   0.00000  Uiso   1.00
N1405  N     0.73866   0.45730   0.67967   0.00000  Uiso   1.00
H1406  H     0.76316   0.44451   0.69155   0.00000  Uiso   1.00
H1407  H     0.75627   0.47799   0.65356   0.00000  Uiso   1.00
N1408  N     0.92530   0.54156   0.82004   0.00000  Uiso   1.00
H1409  H     0.92020   0.52742   0.85117   0.00000  Uiso   1.00
H1410  H     0.93693   0.57168   0.82239   0.00000  Uiso   1.00
C1411  C     0.16690   0.91321   0.74978   0.00000  Uiso   1.00
C1412  C     0.16647   0.75349   0.75029   0.00000  Uiso   1.00
C1413  C     0.11062   0.84613   0.55050   0.00000  Uiso   1.00
C1414  C     0.22292   0.81914   0.94956   0.00000  Uiso   1.00
C1415  C     0.07735   0.85182   0.53005   0.00000  Uiso   1.00
C1416  C     0.25578   0.81246   0.97018   0.00000  Uiso   1.00
C1417  C     0.19006   0.97942   0.77496   0.00000  Uiso   1.00
C1418  C     0.14417   0.68758   0.72476   0.00000  Uiso   1.00
C1419  C     0.19028   0.68867   0.77509   0.00000  Uiso   1.00
C1420  C     0.14306   0.97815   0.72519   0.00000  Uiso   1.00
C1421  C     0.16670   0.70931   0.75039   0.00000  Uiso   1.00
C1422  C     0.16687   0.95743   0.74976   0.00000  Uiso   1.00
C1423  C     0.32259   0.81331   0.71612   0.00000  Uiso   1.00
C1424  C     0.01114   0.85344   0.78409   0.00000  Uiso   1.00
C1425  C     0.03638   0.81279   0.71639   0.00000  Uiso   1.00
C1426  C     0.29630   0.85353   0.78415   0.00000  Uiso   1.00
C1427  C     0.13628   0.83334   0.83768   0.00000  Uiso   1.00
C1428  C     0.19707   0.83309   0.66229   0.00000  Uiso   1.00
C1429  C     0.11776   0.83485   0.88794   0.00000  Uiso   1.00
C1430  C     0.21565   0.83087   0.61200   0.00000  Uiso   1.00
C1431  C     0.05738   0.85315   0.96222   0.00000  Uiso   1.00
C1432  C     0.27504   0.80983   0.53818   0.00000  Uiso   1.00
C1433  C     0.07087   0.84786   0.91477   0.00000  Uiso   1.00
C1434  C     0.26148   0.81531   0.58555   0.00000  Uiso   1.00
C1435  C     0.15020   0.82617   0.90877   0.00000  Uiso   1.00
C1436  C     0.18398   0.84098   0.59078   0.00000  Uiso   1.00
C1437  C     0.13893   0.83383   0.95560   0.00000  Uiso   1.00
C1438  C     0.19472   0.83207   0.54425   0.00000  Uiso   1.00
C1439  C     0.09109   0.84640   0.98277   0.00000  Uiso   1.00
C1440  C     0.24199   0.81805   0.51739   0.00000  Uiso   1.00
C1441  C     0.17397   0.82953   0.97586   0.00000  Uiso   1.00
C1442  C     0.15969   0.83638   0.52402   0.00000  Uiso   1.00
H1443  H     0.04047   0.86013   0.55152   0.00000  Uiso   1.00
H1444  H     0.29237   0.80319   0.94891   0.00000  Uiso   1.00
H1445  H     0.15068   0.85548   0.61174   0.00000  Uiso   1.00
H1446  H     0.18458   0.81381   0.88714   0.00000  Uiso   1.00
H1447  H     0.28630   0.80638   0.60122   0.00000  Uiso   1.00
H1448  H     0.04522   0.85475   0.89914   0.00000  Uiso   1.00
H1449  H     0.02106   0.86353   0.98267   0.00000  Uiso   1.00
H1450  H     0.31074   0.79792   0.51806   0.00000  Uiso   1.00
H1451  H     0.09618   0.84914   0.58743   0.00000  Uiso   1.00
H1452  H     0.23759   0.81567   0.91274   0.00000  Uiso   1.00
N1453  N     0.04759   0.83334   0.75001   0.00000  Uiso   1.00
N1454  N     0.28574   0.83332   0.74999   0.00000  Uiso   1.00
O1455  O     0.12846   0.89442   0.75000   0.00000  Uiso   1.00
O1456  O     0.20488   0.77225   0.75000   0.00000  Uiso   1.00
O1457  O     0.20490   0.89441   0.75000   0.00000  Uiso   1.00
O1458  O     0.12843   0.77226   0.75000   0.00000  Uiso   1.00
O1459  O     0.10661   0.83334   0.81612   0.00000  Uiso   1.00
O1460  O     0.22672   0.83333   0.68388   0.00000  Uiso   1.00
O1461  O     0.18305   0.83333   0.81612   0.00000  Uiso   1.00
O1462  O     0.15028   0.83334   0.68388   0.00000  Uiso   1.00
Zn1463 Zn    0.11562   0.83334   0.75000   0.00000  Uiso   1.00
Zn1464 Zn    0.21771   0.83333   0.75000   0.00000  Uiso   1.00
N1465  N     0.21330   0.95926   0.80135   0.00000  Uiso   1.00
H1466  H     0.24510   0.94578   0.77843   0.00000  Uiso   1.00
H1467  H     0.18987   0.93733   0.82269   0.00000  Uiso   1.00
N1468  N     0.12411   0.70926   0.69671   0.00000  Uiso   1.00
H1469  H     0.14198   0.70022   0.66224   0.00000  Uiso   1.00
H1470  H     0.08730   0.70193   0.70718   0.00000  Uiso   1.00
C1471  C     0.21676   0.71034   0.80069   0.00000  Uiso   1.00
C1472  C     0.26662   0.71834   0.77862   0.00000  Uiso   1.00
C1473  C     0.29276   0.73536   0.80351   0.00000  Uiso   1.00
C1474  C     0.26956   0.74355   0.85071   0.00000  Uiso   1.00
C1475  C     0.22014   0.73497   0.87300   0.00000  Uiso   1.00
C1476  C     0.19361   0.71879   0.84803   0.00000  Uiso   1.00
H1477  H     0.28515   0.71112   0.74228   0.00000  Uiso   1.00
H1478  H     0.33110   0.74165   0.78636   0.00000  Uiso   1.00
H1479  H     0.29001   0.75619   0.87006   0.00000  Uiso   1.00
H1480  H     0.20234   0.74077   0.90969   0.00000  Uiso   1.00
H1481  H     0.15545   0.71193   0.86568   0.00000  Uiso   1.00
C1482  C     0.11649   0.95641   0.69967   0.00000  Uiso   1.00
C1483  C     0.13967   0.94734   0.65246   0.00000  Uiso   1.00
C1484  C     0.11300   0.93135   0.62755   0.00000  Uiso   1.00
C1485  C     0.06352   0.92306   0.64986   0.00000  Uiso   1.00
C1486  C     0.04033   0.93167   0.69697   0.00000  Uiso   1.00
C1487  C     0.06655   0.94883   0.72171   0.00000  Uiso   1.00
H1488  H     0.17793   0.95381   0.63481   0.00000  Uiso   1.00
H1489  H     0.13075   0.92534   0.59089   0.00000  Uiso   1.00
H1490  H     0.04304   0.91033   0.63058   0.00000  Uiso   1.00
H1491  H     0.00193   0.92566   0.71414   0.00000  Uiso   1.00
H1492  H     0.04798   0.95671   0.75785   0.00000  Uiso   1.00
N1493  N     0.31531   0.79453   0.67773   0.00000  Uiso   1.00
H1494  H     0.31157   0.81842   0.65765   0.00000  Uiso   1.00
H1495  H     0.28427   0.77617   0.68927   0.00000  Uiso   1.00
N1496  N     0.02201   0.87422   0.81973   0.00000  Uiso   1.00
H1497  H     0.01496   0.90560   0.81918   0.00000  Uiso   1.00
H1498  H     0.33260   0.86248   0.85146   0.00000  Uiso   1.00
N1499  N     0.07199   0.79063   0.67967   0.00000  Uiso   1.00
H1500  H     0.09650   0.77784   0.69155   0.00000  Uiso   1.00
H1501  H     0.08961   0.81133   0.65356   0.00000  Uiso   1.00
N1502  N     0.25864   0.87490   0.82004   0.00000  Uiso   1.00
H1503  H     0.25353   0.86075   0.85117   0.00000  Uiso   1.00
H1504  H     0.27027   0.90501   0.82239   0.00000  Uiso   1.00
C1505  C     0.50023   0.91321   0.74978   0.00000  Uiso   1.00
C1506  C     0.49980   0.75349   0.75029   0.00000  Uiso   1.00
C1507  C     0.44395   0.84613   0.55050   0.00000  Uiso   1.00
C1508  C     0.55625   0.81914   0.94956   0.00000  Uiso   1.00
C1509  C     0.41068   0.85182   0.53005   0.00000  Uiso   1.00
C1510  C     0.58911   0.81246   0.97018   0.00000  Uiso   1.00
C1511  C     0.52339   0.97942   0.77496   0.00000  Uiso   1.00
C1512  C     0.47750   0.68758   0.72476   0.00000  Uiso   1.00
C1513  C     0.52361   0.68867   0.77509   0.00000  Uiso   1.00
C1514  C     0.47640   0.97815   0.72519   0.00000  Uiso   1.00
C1515  C     0.50003   0.70931   0.75039   0.00000  Uiso   1.00
C1516  C     0.50020   0.95743   0.74976   0.00000  Uiso   1.00
C1517  C     0.65593   0.81331   0.71612   0.00000  Uiso   1.00
C1518  C     0.34447   0.85344   0.78409   0.00000  Uiso   1.00
C1519  C     0.36971   0.81279   0.71639   0.00000  Uiso   1.00
C1520  C     0.62963   0.85353   0.78415   0.00000  Uiso   1.00
C1521  C     0.46961   0.83334   0.83768   0.00000  Uiso   1.00
C1522  C     0.53040   0.83309   0.66229   0.00000  Uiso   1.00
C1523  C     0.45109   0.83485   0.88794   0.00000  Uiso   1.00
C1524  C     0.54898   0.83087   0.61200   0.00000  Uiso   1.00
C1525  C     0.39072   0.85315   0.96222   0.00000  Uiso   1.00
C1526  C     0.60837   0.80983   0.53818   0.00000  Uiso   1.00
C1527  C     0.40421   0.84786   0.91477   0.00000  Uiso   1.00
C1528  C     0.59482   0.81531   0.58555   0.00000  Uiso   1.00
C1529  C     0.48354   0.82617   0.90877   0.00000  Uiso   1.00
C1530  C     0.51732   0.84098   0.59078   0.00000  Uiso   1.00
C1531  C     0.47227   0.83383   0.95560   0.00000  Uiso   1.00
C1532  C     0.52805   0.83207   0.54425   0.00000  Uiso   1.00
C1533  C     0.42442   0.84640   0.98277   0.00000  Uiso   1.00
C1534  C     0.57533   0.81805   0.51739   0.00000  Uiso   1.00
C1535  C     0.50730   0.82953   0.97586   0.00000  Uiso   1.00
C1536  C     0.49302   0.83638   0.52402   0.00000  Uiso   1.00
H1537  H     0.37380   0.86013   0.55152   0.00000  Uiso   1.00
H1538  H     0.62570   0.80319   0.94891   0.00000  Uiso   1.00
H1539  H     0.48402   0.85548   0.61174   0.00000  Uiso   1.00
H1540  H     0.51791   0.81381   0.88714   0.00000  Uiso   1.00
H1541  H     0.61963   0.80638   0.60122   0.00000  Uiso   1.00
H1542  H     0.37855   0.85475   0.89914   0.00000  Uiso   1.00
H1543  H     0.35440   0.86353   0.98267   0.00000  Uiso   1.00
H1544  H     0.64407   0.79792   0.51806   0.00000  Uiso   1.00
H1545  H     0.42951   0.84914   0.58743   0.00000  Uiso   1.00
H1546  H     0.57093   0.81567   0.91274   0.00000  Uiso   1.00
N1547  N     0.38093   0.83334   0.75001   0.00000  Uiso   1.00
N1548  N     0.61907   0.83332   0.74999   0.00000  Uiso   1.00
O1549  O     0.46179   0.89442   0.75000   0.00000  Uiso   1.00
O1550  O     0.53821   0.77225   0.75000   0.00000  Uiso   1.00
O1551  O     0.53823   0.89441   0.75000   0.00000  Uiso   1.00
O1552  O     0.46177   0.77226   0.75000   0.00000  Uiso   1.00
O1553  O     0.43994   0.83334   0.81612   0.00000  Uiso   1.00
O1554  O     0.56006   0.83333   0.68388   0.00000  Uiso   1.00
O1555  O     0.51639   0.83333   0.81612   0.00000  Uiso   1.00
O1556  O     0.48361   0.83334   0.68388   0.00000  Uiso   1.00
Zn1557 Zn    0.44896   0.83334   0.75000   0.00000  Uiso   1.00
Zn1558 Zn    0.55104   0.83333   0.75000   0.00000  Uiso   1.00
N1559  N     0.54664   0.95926   0.80135   0.00000  Uiso   1.00
H1560  H     0.57843   0.94578   0.77843   0.00000  Uiso   1.00
H1561  H     0.52321   0.93733   0.82269   0.00000  Uiso   1.00
N1562  N     0.45745   0.70926   0.69671   0.00000  Uiso   1.00
H1563  H     0.47532   0.70022   0.66224   0.00000  Uiso   1.00
H1564  H     0.42064   0.70193   0.70718   0.00000  Uiso   1.00
C1565  C     0.55010   0.71034   0.80069   0.00000  Uiso   1.00
C1566  C     0.59995   0.71834   0.77862   0.00000  Uiso   1.00
C1567  C     0.62609   0.73536   0.80351   0.00000  Uiso   1.00
C1568  C     0.60290   0.74355   0.85071   0.00000  Uiso   1.00
C1569  C     0.55347   0.73497   0.87300   0.00000  Uiso   1.00
C1570  C     0.52695   0.71879   0.84803   0.00000  Uiso   1.00
H1571  H     0.61849   0.71112   0.74228   0.00000  Uiso   1.00
H1572  H     0.66444   0.74165   0.78636   0.00000  Uiso   1.00
H1573  H     0.62334   0.75619   0.87006   0.00000  Uiso   1.00
H1574  H     0.53567   0.74077   0.90969   0.00000  Uiso   1.00
H1575  H     0.48879   0.71193   0.86568   0.00000  Uiso   1.00
C1576  C     0.44983   0.95641   0.69967   0.00000  Uiso   1.00
C1577  C     0.47301   0.94734   0.65246   0.00000  Uiso   1.00
C1578  C     0.44633   0.93135   0.62755   0.00000  Uiso   1.00
C1579  C     0.39685   0.92306   0.64986   0.00000  Uiso   1.00
C1580  C     0.37367   0.93167   0.69697   0.00000  Uiso   1.00
C1581  C     0.39988   0.94883   0.72171   0.00000  Uiso   1.00
H1582  H     0.51126   0.95381   0.63481   0.00000  Uiso   1.00
H1583  H     0.46409   0.92534   0.59089   0.00000  Uiso   1.00
H1584  H     0.37637   0.91033   0.63058   0.00000  Uiso   1.00
H1585  H     0.33526   0.92566   0.71414   0.00000  Uiso   1.00
H1586  H     0.38132   0.95671   0.75785   0.00000  Uiso   1.00
N1587  N     0.64865   0.79453   0.67773   0.00000  Uiso   1.00
H1588  H     0.64490   0.81842   0.65765   0.00000  Uiso   1.00
H1589  H     0.61760   0.77617   0.68927   0.00000  Uiso   1.00
N1590  N     0.35535   0.87422   0.81973   0.00000  Uiso   1.00
H1591  H     0.34830   0.90560   0.81918   0.00000  Uiso   1.00
H1592  H     0.66593   0.86248   0.85146   0.00000  Uiso   1.00
N1593  N     0.40532   0.79063   0.67967   0.00000  Uiso   1.00
H1594  H     0.42983   0.77784   0.69155   0.00000  Uiso   1.00
H1595  H     0.42294   0.81133   0.65356   0.00000  Uiso   1.00
N1596  N     0.59197   0.87490   0.82004   0.00000  Uiso   1.00
H1597  H     0.58686   0.86075   0.85117   0.00000  Uiso   1.00
H1598  H     0.60360   0.90501   0.82239   0.00000  Uiso   1.00
C1599  C     0.83357   0.91321   0.74978   0.00000  Uiso   1.00
C1600  C     0.83313   0.75349   0.75029   0.00000  Uiso   1.00
C1601  C     0.77728   0.84613   0.55050   0.00000  Uiso   1.00
C1602  C     0.88959   0.81914   0.94956   0.00000  Uiso   1.00
C1603  C     0.74402   0.85182   0.53005   0.00000  Uiso   1.00
C1604  C     0.92244   0.81246   0.97018   0.00000  Uiso   1.00
C1605  C     0.85673   0.97942   0.77496   0.00000  Uiso   1.00
C1606  C     0.81083   0.68758   0.72476   0.00000  Uiso   1.00
C1607  C     0.85694   0.68867   0.77509   0.00000  Uiso   1.00
C1608  C     0.80973   0.97815   0.72519   0.00000  Uiso   1.00
C1609  C     0.83336   0.70931   0.75039   0.00000  Uiso   1.00
C1610  C     0.83354   0.95743   0.74976   0.00000  Uiso   1.00
C1611  C     0.98926   0.81331   0.71612   0.00000  Uiso   1.00
C1612  C     0.67780   0.85344   0.78409   0.00000  Uiso   1.00
C1613  C     0.70304   0.81279   0.71639   0.00000  Uiso   1.00
C1614  C     0.96296   0.85353   0.78415   0.00000  Uiso   1.00
C1615  C     0.80295   0.83334   0.83768   0.00000  Uiso   1.00
C1616  C     0.86373   0.83309   0.66229   0.00000  Uiso   1.00
C1617  C     0.78443   0.83485   0.88794   0.00000  Uiso   1.00
C1618  C     0.88231   0.83087   0.61200   0.00000  Uiso   1.00
C1619  C     0.72405   0.85315   0.96222   0.00000  Uiso   1.00
C1620  C     0.94170   0.80983   0.53818   0.00000  Uiso   1.00
C1621  C     0.73754   0.84786   0.91477   0.00000  Uiso   1.00
C1622  C     0.92815   0.81531   0.58555   0.00000  Uiso   1.00
C1623  C     0.81687   0.82617   0.90877   0.00000  Uiso   1.00
C1624  C     0.85065   0.84098   0.59078   0.00000  Uiso   1.00
C1625  C     0.80560   0.83383   0.95560   0.00000  Uiso   1.00
C1626  C     0.86138   0.83207   0.54425   0.00000  Uiso   1.00
C1627  C     0.75776   0.84640   0.98277   0.00000  Uiso   1.00
C1628  C     0.90866   0.81805   0.51739   0.00000  Uiso   1.00
C1629  C     0.84063   0.82953   0.97586   0.00000  Uiso   1.00
C1630  C     0.82636   0.83638   0.52402   0.00000  Uiso   1.00
H1631  H     0.70713   0.86013   0.55152   0.00000  Uiso   1.00
H1632  H     0.95904   0.80319   0.94891   0.00000  Uiso   1.00
H1633  H     0.81735   0.85548   0.61174   0.00000  Uiso   1.00
H1634  H     0.85125   0.81381   0.88714   0.00000  Uiso   1.00
H1635  H     0.95296   0.80638   0.60122   0.00000  Uiso   1.00
H1636  H     0.71189   0.85475   0.89914   0.00000  Uiso   1.00
H1637  H     0.68773   0.86353   0.98267   0.00000  Uiso   1.00
H1638  H     0.97740   0.79792   0.51806   0.00000  Uiso   1.00
H1639  H     0.76284   0.84914   0.58743   0.00000  Uiso   1.00
H1640  H     0.90426   0.81567   0.91274   0.00000  Uiso   1.00
N1641  N     0.71426   0.83334   0.75001   0.00000  Uiso   1.00
N1642  N     0.95241   0.83332   0.74999   0.00000  Uiso   1.00
O1643  O     0.79512   0.89442   0.75000   0.00000  Uiso   1.00
O1644  O     0.87154   0.77225   0.75000   0.00000  Uiso   1.00
O1645  O     0.87157   0.89441   0.75000   0.00000  Uiso   1.00
O1646  O     0.79510   0.77226   0.75000   0.00000  Uiso   1.00
O1647  O     0.77328   0.83334   0.81612   0.00000  Uiso   1.00
O1648  O     0.89339   0.83333   0.68388   0.00000  Uiso   1.00
O1649  O     0.84972   0.83333   0.81612   0.00000  Uiso   1.00
O1650  O     0.81695   0.83334   0.68388   0.00000  Uiso   1.00
Zn1651 Zn    0.78229   0.83334   0.75000   0.00000  Uiso   1.00
Zn1652 Zn    0.88438   0.83333   0.75000   0.00000  Uiso   1.00
N1653  N     0.87997   0.95926   0.80135   0.00000  Uiso   1.00
H1654  H     0.91176   0.94578   0.77843   0.00000  Uiso   1.00
H1655  H     0.85654   0.93733   0.82269   0.00000  Uiso   1.00
N1656  N     0.79078   0.70926   0.69671   0.00000  Uiso   1.00
H1657  H     0.80865   0.70022   0.66224   0.00000  Uiso   1.00
H1658  H     0.75397   0.70193   0.70718   0.00000  Uiso   1.00
C1659  C     0.88343   0.71034   0.80069   0.00000  Uiso   1.00
C1660  C     0.93328   0.71834   0.77862   0.00000  Uiso   1.00
C1661  C     0.95942   0.73536   0.80351   0.00000  Uiso   1.00
C1662  C     0.93623   0.74355   0.85071   0.00000  Uiso   1.00
C1663  C     0.88680   0.73497   0.87300   0.00000  Uiso   1.00
C1664  C     0.86028   0.71879   0.84803   0.00000  Uiso   1.00
H1665  H     0.95182   0.71112   0.74228   0.00000  Uiso   1.00
H1666  H     0.99777   0.74165   0.78636   0.00000  Uiso   1.00
H1667  H     0.95667   0.75619   0.87006   0.00000  Uiso   1.00
H1668  H     0.86901   0.74077   0.90969   0.00000  Uiso   1.00
H1669  H     0.82212   0.71193   0.86568   0.00000  Uiso   1.00
C1670  C     0.78316   0.95641   0.69967   0.00000  Uiso   1.00
C1671  C     0.80634   0.94734   0.65246   0.00000  Uiso   1.00
C1672  C     0.77966   0.93135   0.62755   0.00000  Uiso   1.00
C1673  C     0.73018   0.92306   0.64986   0.00000  Uiso   1.00
C1674  C     0.70700   0.93167   0.69697   0.00000  Uiso   1.00
C1675  C     0.73322   0.94883   0.72171   0.00000  Uiso   1.00
H1676  H     0.84460   0.95381   0.63481   0.00000  Uiso   1.00
H1677  H     0.79742   0.92534   0.59089   0.00000  Uiso   1.00
H1678  H     0.70971   0.91033   0.63058   0.00000  Uiso   1.00
H1679  H     0.66859   0.92566   0.71414   0.00000  Uiso   1.00
H1680  H     0.71465   0.95671   0.75785   0.00000  Uiso   1.00
N1681  N     0.98198   0.79453   0.67773   0.00000  Uiso   1.00
H1682  H     0.97823   0.81842   0.65765   0.00000  Uiso   1.00
H1683  H     0.95093   0.77617   0.68927   0.00000  Uiso   1.00
N1684  N     0.68868   0.87422   0.81973   0.00000  Uiso   1.00
H1685  H     0.68163   0.90560   0.81918   0.00000  Uiso   1.00
H1686  H     0.99927   0.86248   0.85146   0.00000  Uiso   1.00
N1687  N     0.73866   0.79063   0.67967   0.00000  Uiso   1.00
H1688  H     0.76316   0.77784   0.69155   0.00000  Uiso   1.00
H1689  H     0.75627   0.81133   0.65356   0.00000  Uiso   1.00
N1690  N     0.92530   0.87490   0.82004   0.00000  Uiso   1.00
H1691  H     0.92020   0.86075   0.85117   0.00000  Uiso   1.00
H1692  H     0.93693   0.90501   0.82239   0.00000  Uiso   1.00
loop_
_geom_bond_atom_site_label_1
_geom_bond_atom_site_label_2
_geom_bond_distance
_geom_bond_site_symmetry_2
_ccdc_geom_bond_type
C1     C12     1.435   .     S
C1     O47     1.297   .     A
C1     O45     1.289   .     A
C2     O46     1.287   .     A
C2     C11     1.434   .     S
C2     O48     1.298   .     A
C3     C32     1.419   .     A
C3     H41     1.074   .     S
C3     C5      1.386   .     A
C4     C6      1.384   .     A
C4     H42     1.072   .     S
C4     C31     1.420   .     A
C5     H33     1.085   .     S
C5     C875    1.388   1_554 S
C6     H34     1.085   .     S
C6     C876    1.386   .     S
C7     N55     1.435   .     S
C7     C12     1.410   .     A
C7     C291    1.381   .     S
C8     N58     1.435   .     S
C8     C11     1.402   .     A
C8     C574    1.388   1_545 S
C9     C61     1.485   .     S
C9     C11     1.410   .     A
C9     C571    1.381   1_545 S
C10    C12     1.413   .     A
C10    C72     1.486   .     S
C10    C290    1.388   .     S
C13    N83     1.425   .     S
C13    N44     1.366   .     A
C13    C109    1.409   .     S
C14    N86     1.430   .     S
C14    N43     1.364   .     A
C14    C204    1.436   1_455 S
C15    N89     1.425   .     S
C15    N43     1.378   .     A
C15    C201    1.409   1_455 S
C16    N44     1.377   .     A
C16    N92     1.429   .     S
C16    C108    1.436   .     S
C17    O51     1.300   .     A
C17    O49     1.301   .     A
C17    C19     1.459   .     S
C18    O52     1.300   .     A
C18    O50     1.301   .     A
C18    C20     1.460   .     S
C19    C23     1.397   .     A
C19    C25     1.391   .     A
C20    C26     1.391   .     A
C20    C24     1.398   .     A
C21    C23     1.393   .     A
C21    C29     1.405   .     A
C21    H39     1.083   .     S
C22    C24     1.391   .     A
C22    H40     1.084   .     S
C22    C30     1.403   .     A
C23    H38     1.081   .     S
C24    H37     1.077   .     S
C25    C27     1.394   .     A
C25    H36     1.070   .     S
C26    C28     1.394   .     A
C26    H35     1.070   .     S
C27    C29     1.418   .     A
C27    C31     1.423   .     A
C28    C32     1.422   .     A
C28    C30     1.417   .     A
C29    C851    1.388   .     S
C30    C852    1.386   1_554 S
C31    C878    1.418   .     S
C32    C877    1.418   1_554 S
N43    Zn53    2.029   .     S
N44    Zn54    2.029   .     S
O45    Zn53    2.013   .     S
O46    Zn54    2.013   .     S
O47    Zn54    2.023   .     S
O48    Zn53    2.023   .     S
O49    Zn53    1.986   .     S
O50    Zn54    1.986   .     S
O51    Zn54    1.934   .     S
O52    Zn53    1.934   .     S
N55    H56     1.044   .     S
N55    H57     1.046   .     S
N58    H60     1.046   .     S
N58    H59     1.045   .     S
C61    C66     1.402   .     A
C61    C62     1.406   .     A
C62    C63     1.398   .     A
C62    H67     1.083   .     S
C63    H68     1.083   .     S
C63    C64     1.397   .     A
C64    H69     1.082   .     S
C64    C65     1.399   .     A
C65    H70     1.082   .     S
C65    C66     1.398   .     A
C66    H71     1.083   .     S
C72    C77     1.405   .     A
C72    C73     1.402   .     A
C73    C74     1.398   .     A
C73    H78     1.083   .     S
C74    C75     1.399   .     A
C74    H79     1.082   .     S
C75    H80     1.082   .     S
C75    C76     1.397   .     A
C76    C77     1.398   .     A
C76    H81     1.082   .     S
C77    H82     1.083   .     S
N83    H84     1.041   .     S
N83    H85     1.041   .     S
N86    H87     1.044   .     S
N86    H276    1.045   1_455 S
H88    N180    1.045   .     S
N89    H91     1.041   .     S
N89    H90     1.032   .     S
N92    H94     1.043   .     S
N92    H93     1.043   .     S
C95    C106    1.435   .     S
C95    O141    1.297   .     A
C95    O139    1.289   .     A
C96    O140    1.287   .     A
C96    C105    1.434   .     S
C96    O142    1.298   .     A
C97    C126    1.419   .     A
C97    H135    1.074   .     S
C97    C99     1.386   .     A
C98    C100    1.384   .     A
C98    H136    1.072   .     S
C98    C125    1.420   .     A
C99    H127    1.085   .     S
C99    C969    1.388   1_554 S
C100   H128    1.085   .     S
C100   C970    1.386   .     S
C101   N149    1.435   .     S
C101   C106    1.410   .     A
C101   C385    1.381   .     S
C102   N152    1.435   .     S
C102   C105    1.402   .     A
C102   C668    1.388   1_545 S
C103   C155    1.485   .     S
C103   C105    1.410   .     A
C103   C665    1.381   1_545 S
C104   C106    1.413   .     A
C104   C166    1.486   .     S
C104   C384    1.388   .     S
C107   N177    1.425   .     S
C107   N138    1.366   .     A
C107   C203    1.409   .     S
C108   N180    1.430   .     S
C108   N137    1.364   .     A
C109   N183    1.425   .     S
C109   N137    1.378   .     A
C110   N138    1.377   .     A
C110   N186    1.429   .     S
C110   C202    1.436   .     S
C111   O145    1.300   .     A
C111   O143    1.301   .     A
C111   C113    1.459   .     S
C112   O146    1.300   .     A
C112   O144    1.301   .     A
C112   C114    1.460   .     S
C113   C117    1.397   .     A
C113   C119    1.391   .     A
C114   C120    1.391   .     A
C114   C118    1.398   .     A
C115   C117    1.393   .     A
C115   C123    1.405   .     A
C115   H133    1.083   .     S
C116   C118    1.391   .     A
C116   H134    1.084   .     S
C116   C124    1.403   .     A
C117   H132    1.081   .     S
C118   H131    1.077   .     S
C119   C121    1.394   .     A
C119   H130    1.070   .     S
C120   C122    1.394   .     A
C120   H129    1.070   .     S
C121   C123    1.418   .     A
C121   C125    1.423   .     A
C122   C126    1.422   .     A
C122   C124    1.417   .     A
C123   C945    1.388   .     S
C124   C946    1.386   1_554 S
C125   C972    1.418   .     S
C126   C971    1.418   1_554 S
N137   Zn147   2.029   .     S
N138   Zn148   2.029   .     S
O139   Zn147   2.013   .     S
O140   Zn148   2.013   .     S
O141   Zn148   2.023   .     S
O142   Zn147   2.023   .     S
O143   Zn147   1.986   .     S
O144   Zn148   1.986   .     S
O145   Zn148   1.934   .     S
O146   Zn147   1.934   .     S
N149   H150    1.044   .     S
N149   H151    1.046   .     S
N152   H154    1.046   .     S
N152   H153    1.045   .     S
C155   C160    1.402   .     A
C155   C156    1.406   .     A
C156   C157    1.398   .     A
C156   H161    1.083   .     S
C157   H162    1.083   .     S
C157   C158    1.397   .     A
C158   H163    1.082   .     S
C158   C159    1.399   .     A
C159   H164    1.082   .     S
C159   C160    1.398   .     A
C160   H165    1.083   .     S
C166   C171    1.405   .     A
C166   C167    1.402   .     A
C167   C168    1.398   .     A
C167   H172    1.083   .     S
C168   C169    1.399   .     A
C168   H173    1.082   .     S
C169   H174    1.082   .     S
C169   C170    1.397   .     A
C170   C171    1.398   .     A
C170   H175    1.082   .     S
C171   H176    1.083   .     S
N177   H178    1.041   .     S
N177   H179    1.041   .     S
N180   H181    1.044   .     S
H182   N274    1.045   .     S
N183   H185    1.041   .     S
N183   H184    1.032   .     S
N186   H188    1.043   .     S
N186   H187    1.043   .     S
C189   C200    1.435   .     S
C189   O235    1.297   .     A
C189   O233    1.289   .     A
C190   O234    1.287   .     A
C190   C199    1.434   .     S
C190   O236    1.298   .     A
C191   C220    1.419   .     A
C191   H229    1.074   .     S
C191   C193    1.386   .     A
C192   C194    1.384   .     A
C192   H230    1.072   .     S
C192   C219    1.420   .     A
C193   H221    1.085   .     S
C193   C1063   1.388   1_554 S
C194   H222    1.085   .     S
C194   C1064   1.386   .     S
C195   N243    1.435   .     S
C195   C200    1.410   .     A
C195   C479    1.381   .     S
C196   N246    1.435   .     S
C196   C199    1.402   .     A
C196   C762    1.388   1_545 S
C197   C249    1.485   .     S
C197   C199    1.410   .     A
C197   C759    1.381   1_545 S
C198   C200    1.413   .     A
C198   C260    1.486   .     S
C198   C478    1.388   .     S
C201   N271    1.425   .     S
C201   N232    1.366   .     A
C201   C15     1.409   1_655 S
C202   N274    1.430   .     S
C202   N231    1.364   .     A
C203   N277    1.425   .     S
C203   N231    1.378   .     A
C204   N232    1.377   .     A
C204   N280    1.429   .     S
C204   C14     1.436   1_655 S
C205   O239    1.300   .     A
C205   O237    1.301   .     A
C205   C207    1.459   .     S
C206   O240    1.300   .     A
C206   O238    1.301   .     A
C206   C208    1.460   .     S
C207   C211    1.397   .     A
C207   C213    1.391   .     A
C208   C214    1.391   .     A
C208   C212    1.398   .     A
C209   C211    1.393   .     A
C209   C217    1.405   .     A
C209   H227    1.083   .     S
C210   C212    1.391   .     A
C210   H228    1.084   .     S
C210   C218    1.403   .     A
C211   H226    1.081   .     S
C212   H225    1.077   .     S
C213   C215    1.394   .     A
C213   H224    1.070   .     S
C214   C216    1.394   .     A
C214   H223    1.070   .     S
C215   C217    1.418   .     A
C215   C219    1.423   .     A
C216   C220    1.422   .     A
C216   C218    1.417   .     A
C217   C1039   1.388   .     S
C218   C1040   1.386   1_554 S
C219   C1066   1.418   .     S
C220   C1065   1.418   1_554 S
N231   Zn241   2.029   .     S
N232   Zn242   2.029   .     S
O233   Zn241   2.013   .     S
O234   Zn242   2.013   .     S
O235   Zn242   2.023   .     S
O236   Zn241   2.023   .     S
O237   Zn241   1.986   .     S
O238   Zn242   1.986   .     S
O239   Zn242   1.934   .     S
O240   Zn241   1.934   .     S
N243   H244    1.044   .     S
N243   H245    1.046   .     S
N246   H248    1.046   .     S
N246   H247    1.045   .     S
C249   C254    1.402   .     A
C249   C250    1.406   .     A
C250   C251    1.398   .     A
C250   H255    1.083   .     S
C251   H256    1.083   .     S
C251   C252    1.397   .     A
C252   H257    1.082   .     S
C252   C253    1.399   .     A
C253   H258    1.082   .     S
C253   C254    1.398   .     A
C254   H259    1.083   .     S
C260   C265    1.405   .     A
C260   C261    1.402   .     A
C261   C262    1.398   .     A
C261   H266    1.083   .     S
C262   C263    1.399   .     A
C262   H267    1.082   .     S
C263   H268    1.082   .     S
C263   C264    1.397   .     A
C264   C265    1.398   .     A
C264   H269    1.082   .     S
C265   H270    1.083   .     S
N271   H272    1.041   .     S
N271   H273    1.041   .     S
N274   H275    1.044   .     S
H276   N86     1.045   1_655 S
N277   H279    1.041   .     S
N277   H278    1.032   .     S
N280   H282    1.043   .     S
N280   H281    1.043   .     S
C283   C294    1.435   .     S
C283   O329    1.297   .     A
C283   O327    1.289   .     A
C284   O328    1.287   .     A
C284   C293    1.434   .     S
C284   O330    1.298   .     A
C285   C314    1.419   .     A
C285   H323    1.074   .     S
C285   C287    1.386   .     A
C286   C288    1.384   .     A
C286   H324    1.072   .     S
C286   C313    1.420   .     A
C287   H315    1.085   .     S
C287   C1157   1.388   1_554 S
C288   H316    1.085   .     S
C288   C1158   1.386   .     S
C289   N337    1.435   .     S
C289   C294    1.410   .     A
C289   C573    1.381   .     S
C290   N340    1.435   .     S
C290   C293    1.402   .     A
C291   C343    1.485   .     S
C291   C293    1.410   .     A
C292   C294    1.413   .     A
C292   C354    1.486   .     S
C292   C572    1.388   .     S
C295   N365    1.425   .     S
C295   N326    1.366   .     A
C295   C391    1.409   .     S
C296   N368    1.430   .     S
C296   N325    1.364   .     A
C296   C486    1.436   1_455 S
C297   N371    1.425   .     S
C297   N325    1.378   .     A
C297   C483    1.409   1_455 S
C298   N326    1.377   .     A
C298   N374    1.429   .     S
C298   C390    1.436   .     S
C299   O333    1.300   .     A
C299   O331    1.301   .     A
C299   C301    1.459   .     S
C300   O334    1.300   .     A
C300   O332    1.301   .     A
C300   C302    1.460   .     S
C301   C305    1.397   .     A
C301   C307    1.391   .     A
C302   C308    1.391   .     A
C302   C306    1.398   .     A
C303   C305    1.393   .     A
C303   C311    1.405   .     A
C303   H321    1.083   .     S
C304   C306    1.391   .     A
C304   H322    1.084   .     S
C304   C312    1.403   .     A
C305   H320    1.081   .     S
C306   H319    1.077   .     S
C307   C309    1.394   .     A
C307   H318    1.070   .     S
C308   C310    1.394   .     A
C308   H317    1.070   .     S
C309   C311    1.418   .     A
C309   C313    1.423   .     A
C310   C314    1.422   .     A
C310   C312    1.417   .     A
C311   C1133   1.388   .     S
C312   C1134   1.386   1_554 S
C313   C1160   1.418   .     S
C314   C1159   1.418   1_554 S
N325   Zn335   2.029   .     S
N326   Zn336   2.029   .     S
O327   Zn335   2.013   .     S
O328   Zn336   2.013   .     S
O329   Zn336   2.023   .     S
O330   Zn335   2.023   .     S
O331   Zn335   1.986   .     S
O332   Zn336   1.986   .     S
O333   Zn336   1.934   .     S
O334   Zn335   1.934   .     S
N337   H338    1.044   .     S
N337   H339    1.046   .     S
N340   H342    1.046   .     S
N340   H341    1.045   .     S
C343   C348    1.402   .     A
C343   C344    1.406   .     A
C344   C345    1.398   .     A
C344   H349    1.083   .     S
C345   H350    1.083   .     S
C345   C346    1.397   .     A
C346   H351    1.082   .     S
C346   C347    1.399   .     A
C347   H352    1.082   .     S
C347   C348    1.398   .     A
C348   H353    1.083   .     S
C354   C359    1.405   .     A
C354   C355    1.402   .     A
C355   C356    1.398   .     A
C355   H360    1.083   .     S
C356   C357    1.399   .     A
C356   H361    1.082   .     S
C357   H362    1.082   .     S
C357   C358    1.397   .     A
C358   C359    1.398   .     A
C358   H363    1.082   .     S
C359   H364    1.083   .     S
N365   H366    1.041   .     S
N365   H367    1.041   .     S
N368   H369    1.044   .     S
N368   H558    1.045   1_455 S
H370   N462    1.045   .     S
N371   H373    1.041   .     S
N371   H372    1.032   .     S
N374   H376    1.043   .     S
N374   H375    1.043   .     S
C377   C388    1.435   .     S
C377   O423    1.297   .     A
C377   O421    1.289   .     A
C378   O422    1.287   .     A
C378   C387    1.434   .     S
C378   O424    1.298   .     A
C379   C408    1.419   .     A
C379   H417    1.074   .     S
C379   C381    1.386   .     A
C380   C382    1.384   .     A
C380   H418    1.072   .     S
C380   C407    1.420   .     A
C381   H409    1.085   .     S
C381   C1251   1.388   1_554 S
C382   H410    1.085   .     S
C382   C1252   1.386   .     S
C383   N431    1.435   .     S
C383   C388    1.410   .     A
C383   C667    1.381   .     S
C384   N434    1.435   .     S
C384   C387    1.402   .     A
C385   C437    1.485   .     S
C385   C387    1.410   .     A
C386   C388    1.413   .     A
C386   C448    1.486   .     S
C386   C666    1.388   .     S
C389   N459    1.425   .     S
C389   N420    1.366   .     A
C389   C485    1.409   .     S
C390   N462    1.430   .     S
C390   N419    1.364   .     A
C391   N465    1.425   .     S
C391   N419    1.378   .     A
C392   N420    1.377   .     A
C392   N468    1.429   .     S
C392   C484    1.436   .     S
C393   O427    1.300   .     A
C393   O425    1.301   .     A
C393   C395    1.459   .     S
C394   O428    1.300   .     A
C394   O426    1.301   .     A
C394   C396    1.460   .     S
C395   C399    1.397   .     A
C395   C401    1.391   .     A
C396   C402    1.391   .     A
C396   C400    1.398   .     A
C397   C399    1.393   .     A
C397   C405    1.405   .     A
C397   H415    1.083   .     S
C398   C400    1.391   .     A
C398   H416    1.084   .     S
C398   C406    1.403   .     A
C399   H414    1.081   .     S
C400   H413    1.077   .     S
C401   C403    1.394   .     A
C401   H412    1.070   .     S
C402   C404    1.394   .     A
C402   H411    1.070   .     S
C403   C405    1.418   .     A
C403   C407    1.423   .     A
C404   C408    1.422   .     A
C404   C406    1.417   .     A
C405   C1227   1.388   .     S
C406   C1228   1.386   1_554 S
C407   C1254   1.418   .     S
C408   C1253   1.418   1_554 S
N419   Zn429   2.029   .     S
N420   Zn430   2.029   .     S
O421   Zn429   2.013   .     S
O422   Zn430   2.013   .     S
O423   Zn430   2.023   .     S
O424   Zn429   2.023   .     S
O425   Zn429   1.986   .     S
O426   Zn430   1.986   .     S
O427   Zn430   1.934   .     S
O428   Zn429   1.934   .     S
N431   H432    1.044   .     S
N431   H433    1.046   .     S
N434   H436    1.046   .     S
N434   H435    1.045   .     S
C437   C442    1.402   .     A
C437   C438    1.406   .     A
C438   C439    1.398   .     A
C438   H443    1.083   .     S
C439   H444    1.083   .     S
C439   C440    1.397   .     A
C440   H445    1.082   .     S
C440   C441    1.399   .     A
C441   H446    1.082   .     S
C441   C442    1.398   .     A
C442   H447    1.083   .     S
C448   C453    1.405   .     A
C448   C449    1.402   .     A
C449   C450    1.398   .     A
C449   H454    1.083   .     S
C450   C451    1.399   .     A
C450   H455    1.082   .     S
C451   H456    1.082   .     S
C451   C452    1.397   .     A
C452   C453    1.398   .     A
C452   H457    1.082   .     S
C453   H458    1.083   .     S
N459   H460    1.041   .     S
N459   H461    1.041   .     S
N462   H463    1.044   .     S
H464   N556    1.045   .     S
N465   H467    1.041   .     S
N465   H466    1.032   .     S
N468   H470    1.043   .     S
N468   H469    1.043   .     S
C471   C482    1.435   .     S
C471   O517    1.297   .     A
C471   O515    1.289   .     A
C472   O516    1.287   .     A
C472   C481    1.434   .     S
C472   O518    1.298   .     A
C473   C502    1.419   .     A
C473   H511    1.074   .     S
C473   C475    1.386   .     A
C474   C476    1.384   .     A
C474   H512    1.072   .     S
C474   C501    1.420   .     A
C475   H503    1.085   .     S
C475   C1345   1.388   1_554 S
C476   H504    1.085   .     S
C476   C1346   1.386   .     S
C477   N525    1.435   .     S
C477   C482    1.410   .     A
C477   C761    1.381   .     S
C478   N528    1.435   .     S
C478   C481    1.402   .     A
C479   C531    1.485   .     S
C479   C481    1.410   .     A
C480   C482    1.413   .     A
C480   C542    1.486   .     S
C480   C760    1.388   .     S
C483   N553    1.425   .     S
C483   N514    1.366   .     A
C483   C297    1.409   1_655 S
C484   N556    1.430   .     S
C484   N513    1.364   .     A
C485   N559    1.425   .     S
C485   N513    1.378   .     A
C486   N514    1.377   .     A
C486   N562    1.429   .     S
C486   C296    1.436   1_655 S
C487   O521    1.300   .     A
C487   O519    1.301   .     A
C487   C489    1.459   .     S
C488   O522    1.300   .     A
C488   O520    1.301   .     A
C488   C490    1.460   .     S
C489   C493    1.397   .     A
C489   C495    1.391   .     A
C490   C496    1.391   .     A
C490   C494    1.398   .     A
C491   C493    1.393   .     A
C491   C499    1.405   .     A
C491   H509    1.083   .     S
C492   C494    1.391   .     A
C492   H510    1.084   .     S
C492   C500    1.403   .     A
C493   H508    1.081   .     S
C494   H507    1.077   .     S
C495   C497    1.394   .     A
C495   H506    1.070   .     S
C496   C498    1.394   .     A
C496   H505    1.070   .     S
C497   C499    1.418   .     A
C497   C501    1.423   .     A
C498   C502    1.422   .     A
C498   C500    1.417   .     A
C499   C1321   1.388   .     S
C500   C1322   1.386   1_554 S
C501   C1348   1.418   .     S
C502   C1347   1.418   1_554 S
N513   Zn523   2.029   .     S
N514   Zn524   2.029   .     S
O515   Zn523   2.013   .     S
O516   Zn524   2.013   .     S
O517   Zn524   2.023   .     S
O518   Zn523   2.023   .     S
O519   Zn523   1.986   .     S
O520   Zn524   1.986   .     S
O521   Zn524   1.934   .     S
O522   Zn523   1.934   .     S
N525   H526    1.044   .     S
N525   H527    1.046   .     S
N528   H530    1.046   .     S
N528   H529    1.045   .     S
C531   C536    1.402   .     A
C531   C532    1.406   .     A
C532   C533    1.398   .     A
C532   H537    1.083   .     S
C533   H538    1.083   .     S
C533   C534    1.397   .     A
C534   H539    1.082   .     S
C534   C535    1.399   .     A
C535   H540    1.082   .     S
C535   C536    1.398   .     A
C536   H541    1.083   .     S
C542   C547    1.405   .     A
C542   C543    1.402   .     A
C543   C544    1.398   .     A
C543   H548    1.083   .     S
C544   C545    1.399   .     A
C544   H549    1.082   .     S
C545   H550    1.082   .     S
C545   C546    1.397   .     A
C546   C547    1.398   .     A
C546   H551    1.082   .     S
C547   H552    1.083   .     S
N553   H554    1.041   .     S
N553   H555    1.041   .     S
N556   H557    1.044   .     S
H558   N368    1.045   1_655 S
N559   H561    1.041   .     S
N559   H560    1.032   .     S
N562   H564    1.043   .     S
N562   H563    1.043   .     S
C565   C576    1.435   .     S
C565   O611    1.297   .     A
C565   O609    1.289   .     A
C566   O610    1.287   .     A
C566   C575    1.434   .     S
C566   O612    1.298   .     A
C567   C596    1.419   .     A
C567   H605    1.074   .     S
C567   C569    1.386   .     A
C568   C570    1.384   .     A
C568   H606    1.072   .     S
C568   C595    1.420   .     A
C569   H597    1.085   .     S
C569   C1439   1.388   1_554 S
C570   H598    1.085   .     S
C570   C1440   1.386   .     S
C571   N619    1.435   .     S
C571   C576    1.410   .     A
C571   C9      1.381   1_565 S
C572   N622    1.435   .     S
C572   C575    1.402   .     A
C573   C625    1.485   .     S
C573   C575    1.410   .     A
C574   C576    1.413   .     A
C574   C636    1.486   .     S
C574   C8      1.388   1_565 S
C577   N647    1.425   .     S
C577   N608    1.366   .     A
C577   C673    1.409   .     S
C578   N650    1.430   .     S
C578   N607    1.364   .     A
C578   C768    1.436   1_455 S
C579   N653    1.425   .     S
C579   N607    1.378   .     A
C579   C765    1.409   1_455 S
C580   N608    1.377   .     A
C580   N656    1.429   .     S
C580   C672    1.436   .     S
C581   O615    1.300   .     A
C581   O613    1.301   .     A
C581   C583    1.459   .     S
C582   O616    1.300   .     A
C582   O614    1.301   .     A
C582   C584    1.460   .     S
C583   C587    1.397   .     A
C583   C589    1.391   .     A
C584   C590    1.391   .     A
C584   C588    1.398   .     A
C585   C587    1.393   .     A
C585   C593    1.405   .     A
C585   H603    1.083   .     S
C586   C588    1.391   .     A
C586   H604    1.084   .     S
C586   C594    1.403   .     A
C587   H602    1.081   .     S
C588   H601    1.077   .     S
C589   C591    1.394   .     A
C589   H600    1.070   .     S
C590   C592    1.394   .     A
C590   H599    1.070   .     S
C591   C593    1.418   .     A
C591   C595    1.423   .     A
C592   C596    1.422   .     A
C592   C594    1.417   .     A
C593   C1415   1.388   .     S
C594   C1416   1.386   1_554 S
C595   C1442   1.418   .     S
C596   C1441   1.418   1_554 S
N607   Zn617   2.029   .     S
N608   Zn618   2.029   .     S
O609   Zn617   2.013   .     S
O610   Zn618   2.013   .     S
O611   Zn618   2.023   .     S
O612   Zn617   2.023   .     S
O613   Zn617   1.986   .     S
O614   Zn618   1.986   .     S
O615   Zn618   1.934   .     S
O616   Zn617   1.934   .     S
N619   H620    1.044   .     S
N619   H621    1.046   .     S
N622   H624    1.046   .     S
N622   H623    1.045   .     S
C625   C630    1.402   .     A
C625   C626    1.406   .     A
C626   C627    1.398   .     A
C626   H631    1.083   .     S
C627   H632    1.083   .     S
C627   C628    1.397   .     A
C628   H633    1.082   .     S
C628   C629    1.399   .     A
C629   H634    1.082   .     S
C629   C630    1.398   .     A
C630   H635    1.083   .     S
C636   C641    1.405   .     A
C636   C637    1.402   .     A
C637   C638    1.398   .     A
C637   H642    1.083   .     S
C638   C639    1.399   .     A
C638   H643    1.082   .     S
C639   H644    1.082   .     S
C639   C640    1.397   .     A
C640   C641    1.398   .     A
C640   H645    1.082   .     S
C641   H646    1.083   .     S
N647   H648    1.041   .     S
N647   H649    1.041   .     S
N650   H651    1.044   .     S
N650   H840    1.045   1_455 S
H652   N744    1.045   .     S
N653   H655    1.041   .     S
N653   H654    1.032   .     S
N656   H658    1.043   .     S
N656   H657    1.043   .     S
C659   C670    1.435   .     S
C659   O705    1.297   .     A
C659   O703    1.289   .     A
C660   O704    1.287   .     A
C660   C669    1.434   .     S
C660   O706    1.298   .     A
C661   C690    1.419   .     A
C661   H699    1.074   .     S
C661   C663    1.386   .     A
C662   C664    1.384   .     A
C662   H700    1.072   .     S
C662   C689    1.420   .     A
C663   H691    1.085   .     S
C663   C1533   1.388   1_554 S
C664   H692    1.085   .     S
C664   C1534   1.386   .     S
C665   N713    1.435   .     S
C665   C670    1.410   .     A
C665   C103    1.381   1_565 S
C666   N716    1.435   .     S
C666   C669    1.402   .     A
C667   C719    1.485   .     S
C667   C669    1.410   .     A
C668   C670    1.413   .     A
C668   C730    1.486   .     S
C668   C102    1.388   1_565 S
C671   N741    1.425   .     S
C671   N702    1.366   .     A
C671   C767    1.409   .     S
C672   N744    1.430   .     S
C672   N701    1.364   .     A
C673   N747    1.425   .     S
C673   N701    1.378   .     A
C674   N702    1.377   .     A
C674   N750    1.429   .     S
C674   C766    1.436   .     S
C675   O709    1.300   .     A
C675   O707    1.301   .     A
C675   C677    1.459   .     S
C676   O710    1.300   .     A
C676   O708    1.301   .     A
C676   C678    1.460   .     S
C677   C681    1.397   .     A
C677   C683    1.391   .     A
C678   C684    1.391   .     A
C678   C682    1.398   .     A
C679   C681    1.393   .     A
C679   C687    1.405   .     A
C679   H697    1.083   .     S
C680   C682    1.391   .     A
C680   H698    1.084   .     S
C680   C688    1.403   .     A
C681   H696    1.081   .     S
C682   H695    1.077   .     S
C683   C685    1.394   .     A
C683   H694    1.070   .     S
C684   C686    1.394   .     A
C684   H693    1.070   .     S
C685   C687    1.418   .     A
C685   C689    1.423   .     A
C686   C690    1.422   .     A
C686   C688    1.417   .     A
C687   C1509   1.388   .     S
C688   C1510   1.386   1_554 S
C689   C1536   1.418   .     S
C690   C1535   1.418   1_554 S
N701   Zn711   2.029   .     S
N702   Zn712   2.029   .     S
O703   Zn711   2.013   .     S
O704   Zn712   2.013   .     S
O705   Zn712   2.023   .     S
O706   Zn711   2.023   .     S
O707   Zn711   1.986   .     S
O708   Zn712   1.986   .     S
O709   Zn712   1.934   .     S
O710   Zn711   1.934   .     S
N713   H714    1.044   .     S
N713   H715    1.046   .     S
N716   H718    1.046   .     S
N716   H717    1.045   .     S
C719   C724    1.402   .     A
C719   C720    1.406   .     A
C720   C721    1.398   .     A
C720   H725    1.083   .     S
C721   H726    1.083   .     S
C721   C722    1.397   .     A
C722   H727    1.082   .     S
C722   C723    1.399   .     A
C723   H728    1.082   .     S
C723   C724    1.398   .     A
C724   H729    1.083   .     S
C730   C735    1.405   .     A
C730   C731    1.402   .     A
C731   C732    1.398   .     A
C731   H736    1.083   .     S
C732   C733    1.399   .     A
C732   H737    1.082   .     S
C733   H738    1.082   .     S
C733   C734    1.397   .     A
C734   C735    1.398   .     A
C734   H739    1.082   .     S
C735   H740    1.083   .     S
N741   H742    1.041   .     S
N741   H743    1.041   .     S
N744   H745    1.044   .     S
H746   N838    1.045   .     S
N747   H749    1.041   .     S
N747   H748    1.032   .     S
N750   H752    1.043   .     S
N750   H751    1.043   .     S
C753   C764    1.435   .     S
C753   O799    1.297   .     A
C753   O797    1.289   .     A
C754   O798    1.287   .     A
C754   C763    1.434   .     S
C754   O800    1.298   .     A
C755   C784    1.419   .     A
C755   H793    1.074   .     S
C755   C757    1.386   .     A
C756   C758    1.384   .     A
C756   H794    1.072   .     S
C756   C783    1.420   .     A
C757   H785    1.085   .     S
C757   C1627   1.388   1_554 S
C758   H786    1.085   .     S
C758   C1628   1.386   .     S
C759   N807    1.435   .     S
C759   C764    1.410   .     A
C759   C197    1.381   1_565 S
C760   N810    1.435   .     S
C760   C763    1.402   .     A
C761   C813    1.485   .     S
C761   C763    1.410   .     A
C762   C764    1.413   .     A
C762   C824    1.486   .     S
C762   C196    1.388   1_565 S
C765   N835    1.425   .     S
C765   N796    1.366   .     A
C765   C579    1.409   1_655 S
C766   N838    1.430   .     S
C766   N795    1.364   .     A
C767   N841    1.425   .     S
C767   N795    1.378   .     A
C768   N796    1.377   .     A
C768   N844    1.429   .     S
C768   C578    1.436   1_655 S
C769   O803    1.300   .     A
C769   O801    1.301   .     A
C769   C771    1.459   .     S
C770   O804    1.300   .     A
C770   O802    1.301   .     A
C770   C772    1.460   .     S
C771   C775    1.397   .     A
C771   C777    1.391   .     A
C772   C778    1.391   .     A
C772   C776    1.398   .     A
C773   C775    1.393   .     A
C773   C781    1.405   .     A
C773   H791    1.083   .     S
C774   C776    1.391   .     A
C774   H792    1.084   .     S
C774   C782    1.403   .     A
C775   H790    1.081   .     S
C776   H789    1.077   .     S
C777   C779    1.394   .     A
C777   H788    1.070   .     S
C778   C780    1.394   .     A
C778   H787    1.070   .     S
C779   C781    1.418   .     A
C779   C783    1.423   .     A
C780   C784    1.422   .     A
C780   C782    1.417   .     A
C781   C1603   1.388   .     S
C782   C1604   1.386   1_554 S
C783   C1630   1.418   .     S
C784   C1629   1.418   1_554 S
N795   Zn805   2.029   .     S
N796   Zn806   2.029   .     S
O797   Zn805   2.013   .     S
O798   Zn806   2.013   .     S
O799   Zn806   2.023   .     S
O800   Zn805   2.023   .     S
O801   Zn805   1.986   .     S
O802   Zn806   1.986   .     S
O803   Zn806   1.934   .     S
O804   Zn805   1.934   .     S
N807   H808    1.044   .     S
N807   H809    1.046   .     S
N810   H812    1.046   .     S
N810   H811    1.045   .     S
C813   C818    1.402   .     A
C813   C814    1.406   .     A
C814   C815    1.398   .     A
C814   H819    1.083   .     S
C815   H820    1.083   .     S
C815   C816    1.397   .     A
C816   H821    1.082   .     S
C816   C817    1.399   .     A
C817   H822    1.082   .     S
C817   C818    1.398   .     A
C818   H823    1.083   .     S
C824   C829    1.405   .     A
C824   C825    1.402   .     A
C825   C826    1.398   .     A
C825   H830    1.083   .     S
C826   C827    1.399   .     A
C826   H831    1.082   .     S
C827   H832    1.082   .     S
C827   C828    1.397   .     A
C828   C829    1.398   .     A
C828   H833    1.082   .     S
C829   H834    1.083   .     S
N835   H836    1.041   .     S
N835   H837    1.041   .     S
N838   H839    1.044   .     S
H840   N650    1.045   1_655 S
N841   H843    1.041   .     S
N841   H842    1.032   .     S
N844   H846    1.043   .     S
N844   H845    1.043   .     S
C847   C858    1.435   .     S
C847   O893    1.297   .     A
C847   O891    1.289   .     A
C848   O892    1.287   .     A
C848   C857    1.434   .     S
C848   O894    1.298   .     A
C849   C878    1.419   .     A
C849   H887    1.074   .     S
C849   C851    1.386   .     A
C850   C852    1.384   .     A
C850   H888    1.072   .     S
C850   C877    1.420   .     A
C851   H879    1.085   .     S
C852   H880    1.085   .     S
C852   C30     1.386   1_556 S
C853   N901    1.435   .     S
C853   C858    1.410   .     A
C853   C1137   1.381   .     S
C854   N904    1.435   .     S
C854   C857    1.402   .     A
C854   C1420   1.388   1_545 S
C855   C907    1.485   .     S
C855   C857    1.410   .     A
C855   C1417   1.381   1_545 S
C856   C858    1.413   .     A
C856   C918    1.486   .     S
C856   C1136   1.388   .     S
C859   N929    1.425   .     S
C859   N890    1.366   .     A
C859   C955    1.409   .     S
C860   N932    1.430   .     S
C860   N889    1.364   .     A
C860   C1050   1.436   1_455 S
C861   N935    1.425   .     S
C861   N889    1.378   .     A
C861   C1047   1.409   1_455 S
C862   N890    1.377   .     A
C862   N938    1.429   .     S
C862   C954    1.436   .     S
C863   O897    1.300   .     A
C863   O895    1.301   .     A
C863   C865    1.459   .     S
C864   O898    1.300   .     A
C864   O896    1.301   .     A
C864   C866    1.460   .     S
C865   C869    1.397   .     A
C865   C871    1.391   .     A
C866   C872    1.391   .     A
C866   C870    1.398   .     A
C867   C869    1.393   .     A
C867   C875    1.405   .     A
C867   H885    1.083   .     S
C868   C870    1.391   .     A
C868   H886    1.084   .     S
C868   C876    1.403   .     A
C869   H884    1.081   .     S
C870   H883    1.077   .     S
C871   C873    1.394   .     A
C871   H882    1.070   .     S
C872   C874    1.394   .     A
C872   H881    1.070   .     S
C873   C875    1.418   .     A
C873   C877    1.423   .     A
C874   C878    1.422   .     A
C874   C876    1.417   .     A
C875   C5      1.388   1_556 S
C877   C32     1.418   1_556 S
N889   Zn899   2.029   .     S
N890   Zn900   2.029   .     S
O891   Zn899   2.013   .     S
O892   Zn900   2.013   .     S
O893   Zn900   2.023   .     S
O894   Zn899   2.023   .     S
O895   Zn899   1.986   .     S
O896   Zn900   1.986   .     S
O897   Zn900   1.934   .     S
O898   Zn899   1.934   .     S
N901   H902    1.044   .     S
N901   H903    1.046   .     S
N904   H906    1.046   .     S
N904   H905    1.045   .     S
C907   C912    1.402   .     A
C907   C908    1.406   .     A
C908   C909    1.398   .     A
C908   H913    1.083   .     S
C909   H914    1.083   .     S
C909   C910    1.397   .     A
C910   H915    1.082   .     S
C910   C911    1.399   .     A
C911   H916    1.082   .     S
C911   C912    1.398   .     A
C912   H917    1.083   .     S
C918   C923    1.405   .     A
C918   C919    1.402   .     A
C919   C920    1.398   .     A
C919   H924    1.083   .     S
C920   C921    1.399   .     A
C920   H925    1.082   .     S
C921   H926    1.082   .     S
C921   C922    1.397   .     A
C922   C923    1.398   .     A
C922   H927    1.082   .     S
C923   H928    1.083   .     S
N929   H930    1.041   .     S
N929   H931    1.041   .     S
N932   H933    1.044   .     S
N932   H1122   1.045   1_455 S
H934   N1026   1.045   .     S
N935   H937    1.041   .     S
N935   H936    1.032   .     S
N938   H940    1.043   .     S
N938   H939    1.043   .     S
C941   C952    1.435   .     S
C941   O987    1.297   .     A
C941   O985    1.289   .     A
C942   O986    1.287   .     A
C942   C951    1.434   .     S
C942   O988    1.298   .     A
C943   C972    1.419   .     A
C943   H981    1.074   .     S
C943   C945    1.386   .     A
C944   C946    1.384   .     A
C944   H982    1.072   .     S
C944   C971    1.420   .     A
C945   H973    1.085   .     S
C946   H974    1.085   .     S
C946   C124    1.386   1_556 S
C947   N995    1.435   .     S
C947   C952    1.410   .     A
C947   C1231   1.381   .     S
C948   N998    1.435   .     S
C948   C951    1.402   .     A
C948   C1514   1.388   1_545 S
C949   C1001   1.485   .     S
C949   C951    1.410   .     A
C949   C1511   1.381   1_545 S
C950   C952    1.413   .     A
C950   C1012   1.486   .     S
C950   C1230   1.388   .     S
C953   N1023   1.425   .     S
C953   N984    1.366   .     A
C953   C1049   1.409   .     S
C954   N1026   1.430   .     S
C954   N983    1.364   .     A
C955   N1029   1.425   .     S
C955   N983    1.378   .     A
C956   N984    1.377   .     A
C956   N1032   1.429   .     S
C956   C1048   1.436   .     S
C957   O991    1.300   .     A
C957   O989    1.301   .     A
C957   C959    1.459   .     S
C958   O992    1.300   .     A
C958   O990    1.301   .     A
C958   C960    1.460   .     S
C959   C963    1.397   .     A
C959   C965    1.391   .     A
C960   C966    1.391   .     A
C960   C964    1.398   .     A
C961   C963    1.393   .     A
C961   C969    1.405   .     A
C961   H979    1.083   .     S
C962   C964    1.391   .     A
C962   H980    1.084   .     S
C962   C970    1.403   .     A
C963   H978    1.081   .     S
C964   H977    1.077   .     S
C965   C967    1.394   .     A
C965   H976    1.070   .     S
C966   C968    1.394   .     A
C966   H975    1.070   .     S
C967   C969    1.418   .     A
C967   C971    1.423   .     A
C968   C972    1.422   .     A
C968   C970    1.417   .     A
C969   C99     1.388   1_556 S
C971   C126    1.418   1_556 S
N983   Zn993   2.029   .     S
N984   Zn994   2.029   .     S
O985   Zn993   2.013   .     S
O986   Zn994   2.013   .     S
O987   Zn994   2.023   .     S
O988   Zn993   2.023   .     S
O989   Zn993   1.986   .     S
O990   Zn994   1.986   .     S
O991   Zn994   1.934   .     S
O992   Zn993   1.934   .     S
N995   H996    1.044   .     S
N995   H997    1.046   .     S
N998   H1000   1.046   .     S
N998   H999    1.045   .     S
C1001  C1006   1.402   .     A
C1001  C1002   1.406   .     A
C1002  C1003   1.398   .     A
C1002  H1007   1.083   .     S
C1003  H1008   1.083   .     S
C1003  C1004   1.397   .     A
C1004  H1009   1.082   .     S
C1004  C1005   1.399   .     A
C1005  H1010   1.082   .     S
C1005  C1006   1.398   .     A
C1006  H1011   1.083   .     S
C1012  C1017   1.405   .     A
C1012  C1013   1.402   .     A
C1013  C1014   1.398   .     A
C1013  H1018   1.083   .     S
C1014  C1015   1.399   .     A
C1014  H1019   1.082   .     S
C1015  H1020   1.082   .     S
C1015  C1016   1.397   .     A
C1016  C1017   1.398   .     A
C1016  H1021   1.082   .     S
C1017  H1022   1.083   .     S
N1023  H1024   1.041   .     S
N1023  H1025   1.041   .     S
N1026  H1027   1.044   .     S
H1028  N1120   1.045   .     S
N1029  H1031   1.041   .     S
N1029  H1030   1.032   .     S
N1032  H1034   1.043   .     S
N1032  H1033   1.043   .     S
C1035  C1046   1.435   .     S
C1035  O1081   1.297   .     A
C1035  O1079   1.289   .     A
C1036  O1080   1.287   .     A
C1036  C1045   1.434   .     S
C1036  O1082   1.298   .     A
C1037  C1066   1.419   .     A
C1037  H1075   1.074   .     S
C1037  C1039   1.386   .     A
C1038  C1040   1.384   .     A
C1038  H1076   1.072   .     S
C1038  C1065   1.420   .     A
C1039  H1067   1.085   .     S
C1040  H1068   1.085   .     S
C1040  C218    1.386   1_556 S
C1041  N1089   1.435   .     S
C1041  C1046   1.410   .     A
C1041  C1325   1.381   .     S
C1042  N1092   1.435   .     S
C1042  C1045   1.402   .     A
C1042  C1608   1.388   1_545 S
C1043  C1095   1.485   .     S
C1043  C1045   1.410   .     A
C1043  C1605   1.381   1_545 S
C1044  C1046   1.413   .     A
C1044  C1106   1.486   .     S
C1044  C1324   1.388   .     S
C1047  N1117   1.425   .     S
C1047  N1078   1.366   .     A
C1047  C861    1.409   1_655 S
C1048  N1120   1.430   .     S
C1048  N1077   1.364   .     A
C1049  N1123   1.425   .     S
C1049  N1077   1.378   .     A
C1050  N1078   1.377   .     A
C1050  N1126   1.429   .     S
C1050  C860    1.436   1_655 S
C1051  O1085   1.300   .     A
C1051  O1083   1.301   .     A
C1051  C1053   1.459   .     S
C1052  O1086   1.300   .     A
C1052  O1084   1.301   .     A
C1052  C1054   1.460   .     S
C1053  C1057   1.397   .     A
C1053  C1059   1.391   .     A
C1054  C1060   1.391   .     A
C1054  C1058   1.398   .     A
C1055  C1057   1.393   .     A
C1055  C1063   1.405   .     A
C1055  H1073   1.083   .     S
C1056  C1058   1.391   .     A
C1056  H1074   1.084   .     S
C1056  C1064   1.403   .     A
C1057  H1072   1.081   .     S
C1058  H1071   1.077   .     S
C1059  C1061   1.394   .     A
C1059  H1070   1.070   .     S
C1060  C1062   1.394   .     A
C1060  H1069   1.070   .     S
C1061  C1063   1.418   .     A
C1061  C1065   1.423   .     A
C1062  C1066   1.422   .     A
C1062  C1064   1.417   .     A
C1063  C193    1.388   1_556 S
C1065  C220    1.418   1_556 S
N1077  Zn1087  2.029   .     S
N1078  Zn1088  2.029   .     S
O1079  Zn1087  2.013   .     S
O1080  Zn1088  2.013   .     S
O1081  Zn1088  2.023   .     S
O1082  Zn1087  2.023   .     S
O1083  Zn1087  1.986   .     S
O1084  Zn1088  1.986   .     S
O1085  Zn1088  1.934   .     S
O1086  Zn1087  1.934   .     S
N1089  H1090   1.044   .     S
N1089  H1091   1.046   .     S
N1092  H1094   1.046   .     S
N1092  H1093   1.045   .     S
C1095  C1100   1.402   .     A
C1095  C1096   1.406   .     A
C1096  C1097   1.398   .     A
C1096  H1101   1.083   .     S
C1097  H1102   1.083   .     S
C1097  C1098   1.397   .     A
C1098  H1103   1.082   .     S
C1098  C1099   1.399   .     A
C1099  H1104   1.082   .     S
C1099  C1100   1.398   .     A
C1100  H1105   1.083   .     S
C1106  C1111   1.405   .     A
C1106  C1107   1.402   .     A
C1107  C1108   1.398   .     A
C1107  H1112   1.083   .     S
C1108  C1109   1.399   .     A
C1108  H1113   1.082   .     S
C1109  H1114   1.082   .     S
C1109  C1110   1.397   .     A
C1110  C1111   1.398   .     A
C1110  H1115   1.082   .     S
C1111  H1116   1.083   .     S
N1117  H1118   1.041   .     S
N1117  H1119   1.041   .     S
N1120  H1121   1.044   .     S
H1122  N932    1.045   1_655 S
N1123  H1125   1.041   .     S
N1123  H1124   1.032   .     S
N1126  H1128   1.043   .     S
N1126  H1127   1.043   .     S
C1129  C1140   1.435   .     S
C1129  O1175   1.297   .     A
C1129  O1173   1.289   .     A
C1130  O1174   1.287   .     A
C1130  C1139   1.434   .     S
C1130  O1176   1.298   .     A
C1131  C1160   1.419   .     A
C1131  H1169   1.074   .     S
C1131  C1133   1.386   .     A
C1132  C1134   1.384   .     A
C1132  H1170   1.072   .     S
C1132  C1159   1.420   .     A
C1133  H1161   1.085   .     S
C1134  H1162   1.085   .     S
C1134  C312    1.386   1_556 S
C1135  N1183   1.435   .     S
C1135  C1140   1.410   .     A
C1135  C1419   1.381   .     S
C1136  N1186   1.435   .     S
C1136  C1139   1.402   .     A
C1137  C1189   1.485   .     S
C1137  C1139   1.410   .     A
C1138  C1140   1.413   .     A
C1138  C1200   1.486   .     S
C1138  C1418   1.388   .     S
C1141  N1211   1.425   .     S
C1141  N1172   1.366   .     A
C1141  C1237   1.409   .     S
C1142  N1214   1.430   .     S
C1142  N1171   1.364   .     A
C1142  C1332   1.436   1_455 S
C1143  N1217   1.425   .     S
C1143  N1171   1.378   .     A
C1143  C1329   1.409   1_455 S
C1144  N1172   1.377   .     A
C1144  N1220   1.429   .     S
C1144  C1236   1.436   .     S
C1145  O1179   1.300   .     A
C1145  O1177   1.301   .     A
C1145  C1147   1.459   .     S
C1146  O1180   1.300   .     A
C1146  O1178   1.301   .     A
C1146  C1148   1.460   .     S
C1147  C1151   1.397   .     A
C1147  C1153   1.391   .     A
C1148  C1154   1.391   .     A
C1148  C1152   1.398   .     A
C1149  C1151   1.393   .     A
C1149  C1157   1.405   .     A
C1149  H1167   1.083   .     S
C1150  C1152   1.391   .     A
C1150  H1168   1.084   .     S
C1150  C1158   1.403   .     A
C1151  H1166   1.081   .     S
C1152  H1165   1.077   .     S
C1153  C1155   1.394   .     A
C1153  H1164   1.070   .     S
C1154  C1156   1.394   .     A
C1154  H1163   1.070   .     S
C1155  C1157   1.418   .     A
C1155  C1159   1.423   .     A
C1156  C1160   1.422   .     A
C1156  C1158   1.417   .     A
C1157  C287    1.388   1_556 S
C1159  C314    1.418   1_556 S
N1171  Zn1181  2.029   .     S
N1172  Zn1182  2.029   .     S
O1173  Zn1181  2.013   .     S
O1174  Zn1182  2.013   .     S
O1175  Zn1182  2.023   .     S
O1176  Zn1181  2.023   .     S
O1177  Zn1181  1.986   .     S
O1178  Zn1182  1.986   .     S
O1179  Zn1182  1.934   .     S
O1180  Zn1181  1.934   .     S
N1183  H1184   1.044   .     S
N1183  H1185   1.046   .     S
N1186  H1188   1.046   .     S
N1186  H1187   1.045   .     S
C1189  C1194   1.402   .     A
C1189  C1190   1.406   .     A
C1190  C1191   1.398   .     A
C1190  H1195   1.083   .     S
C1191  H1196   1.083   .     S
C1191  C1192   1.397   .     A
C1192  H1197   1.082   .     S
C1192  C1193   1.399   .     A
C1193  H1198   1.082   .     S
C1193  C1194   1.398   .     A
C1194  H1199   1.083   .     S
C1200  C1205   1.405   .     A
C1200  C1201   1.402   .     A
C1201  C1202   1.398   .     A
C1201  H1206   1.083   .     S
C1202  C1203   1.399   .     A
C1202  H1207   1.082   .     S
C1203  H1208   1.082   .     S
C1203  C1204   1.397   .     A
C1204  C1205   1.398   .     A
C1204  H1209   1.082   .     S
C1205  H1210   1.083   .     S
N1211  H1212   1.041   .     S
N1211  H1213   1.041   .     S
N1214  H1215   1.044   .     S
N1214  H1404   1.045   1_455 S
H1216  N1308   1.045   .     S
N1217  H1219   1.041   .     S
N1217  H1218   1.032   .     S
N1220  H1222   1.043   .     S
N1220  H1221   1.043   .     S
C1223  C1234   1.435   .     S
C1223  O1269   1.297   .     A
C1223  O1267   1.289   .     A
C1224  O1268   1.287   .     A
C1224  C1233   1.434   .     S
C1224  O1270   1.298   .     A
C1225  C1254   1.419   .     A
C1225  H1263   1.074   .     S
C1225  C1227   1.386   .     A
C1226  C1228   1.384   .     A
C1226  H1264   1.072   .     S
C1226  C1253   1.420   .     A
C1227  H1255   1.085   .     S
C1228  H1256   1.085   .     S
C1228  C406    1.386   1_556 S
C1229  N1277   1.435   .     S
C1229  C1234   1.410   .     A
C1229  C1513   1.381   .     S
C1230  N1280   1.435   .     S
C1230  C1233   1.402   .     A
C1231  C1283   1.485   .     S
C1231  C1233   1.410   .     A
C1232  C1234   1.413   .     A
C1232  C1294   1.486   .     S
C1232  C1512   1.388   .     S
C1235  N1305   1.425   .     S
C1235  N1266   1.366   .     A
C1235  C1331   1.409   .     S
C1236  N1308   1.430   .     S
C1236  N1265   1.364   .     A
C1237  N1311   1.425   .     S
C1237  N1265   1.378   .     A
C1238  N1266   1.377   .     A
C1238  N1314   1.429   .     S
C1238  C1330   1.436   .     S
C1239  O1273   1.300   .     A
C1239  O1271   1.301   .     A
C1239  C1241   1.459   .     S
C1240  O1274   1.300   .     A
C1240  O1272   1.301   .     A
C1240  C1242   1.460   .     S
C1241  C1245   1.397   .     A
C1241  C1247   1.391   .     A
C1242  C1248   1.391   .     A
C1242  C1246   1.398   .     A
C1243  C1245   1.393   .     A
C1243  C1251   1.405   .     A
C1243  H1261   1.083   .     S
C1244  C1246   1.391   .     A
C1244  H1262   1.084   .     S
C1244  C1252   1.403   .     A
C1245  H1260   1.081   .     S
C1246  H1259   1.077   .     S
C1247  C1249   1.394   .     A
C1247  H1258   1.070   .     S
C1248  C1250   1.394   .     A
C1248  H1257   1.070   .     S
C1249  C1251   1.418   .     A
C1249  C1253   1.423   .     A
C1250  C1254   1.422   .     A
C1250  C1252   1.417   .     A
C1251  C381    1.388   1_556 S
C1253  C408    1.418   1_556 S
N1265  Zn1275  2.029   .     S
N1266  Zn1276  2.029   .     S
O1267  Zn1275  2.013   .     S
O1268  Zn1276  2.013   .     S
O1269  Zn1276  2.023   .     S
O1270  Zn1275  2.023   .     S
O1271  Zn1275  1.986   .     S
O1272  Zn1276  1.986   .     S
O1273  Zn1276  1.934   .     S
O1274  Zn1275  1.934   .     S
N1277  H1278   1.044   .     S
N1277  H1279   1.046   .     S
N1280  H1282   1.046   .     S
N1280  H1281   1.045   .     S
C1283  C1288   1.402   .     A
C1283  C1284   1.406   .     A
C1284  C1285   1.398   .     A
C1284  H1289   1.083   .     S
C1285  H1290   1.083   .     S
C1285  C1286   1.397   .     A
C1286  H1291   1.082   .     S
C1286  C1287   1.399   .     A
C1287  H1292   1.082   .     S
C1287  C1288   1.398   .     A
C1288  H1293   1.083   .     S
C1294  C1299   1.405   .     A
C1294  C1295   1.402   .     A
C1295  C1296   1.398   .     A
C1295  H1300   1.083   .     S
C1296  C1297   1.399   .     A
C1296  H1301   1.082   .     S
C1297  H1302   1.082   .     S
C1297  C1298   1.397   .     A
C1298  C1299   1.398   .     A
C1298  H1303   1.082   .     S
C1299  H1304   1.083   .     S
N1305  H1306   1.041   .     S
N1305  H1307   1.041   .     S
N1308  H1309   1.044   .     S
H1310  N1402   1.045   .     S
N1311  H1313   1.041   .     S
N1311  H1312   1.032   .     S
N1314  H1316   1.043   .     S
N1314  H1315   1.043   .     S
C1317  C1328   1.435   .     S
C1317  O1363   1.297   .     A
C1317  O1361   1.289   .     A
C1318  O1362   1.287   .     A
C1318  C1327   1.434   .     S
C1318  O1364   1.298   .     A
C1319  C1348   1.419   .     A
C1319  H1357   1.074   .     S
C1319  C1321   1.386   .     A
C1320  C1322   1.384   .     A
C1320  H1358   1.072   .     S
C1320  C1347   1.420   .     A
C1321  H1349   1.085   .     S
C1322  H1350   1.085   .     S
C1322  C500    1.386   1_556 S
C1323  N1371   1.435   .     S
C1323  C1328   1.410   .     A
C1323  C1607   1.381   .     S
C1324  N1374   1.435   .     S
C1324  C1327   1.402   .     A
C1325  C1377   1.485   .     S
C1325  C1327   1.410   .     A
C1326  C1328   1.413   .     A
C1326  C1388   1.486   .     S
C1326  C1606   1.388   .     S
C1329  N1399   1.425   .     S
C1329  N1360   1.366   .     A
C1329  C1143   1.409   1_655 S
C1330  N1402   1.430   .     S
C1330  N1359   1.364   .     A
C1331  N1405   1.425   .     S
C1331  N1359   1.378   .     A
C1332  N1360   1.377   .     A
C1332  N1408   1.429   .     S
C1332  C1142   1.436   1_655 S
C1333  O1367   1.300   .     A
C1333  O1365   1.301   .     A
C1333  C1335   1.459   .     S
C1334  O1368   1.300   .     A
C1334  O1366   1.301   .     A
C1334  C1336   1.460   .     S
C1335  C1339   1.397   .     A
C1335  C1341   1.391   .     A
C1336  C1342   1.391   .     A
C1336  C1340   1.398   .     A
C1337  C1339   1.393   .     A
C1337  C1345   1.405   .     A
C1337  H1355   1.083   .     S
C1338  C1340   1.391   .     A
C1338  H1356   1.084   .     S
C1338  C1346   1.403   .     A
C1339  H1354   1.081   .     S
C1340  H1353   1.077   .     S
C1341  C1343   1.394   .     A
C1341  H1352   1.070   .     S
C1342  C1344   1.394   .     A
C1342  H1351   1.070   .     S
C1343  C1345   1.418   .     A
C1343  C1347   1.423   .     A
C1344  C1348   1.422   .     A
C1344  C1346   1.417   .     A
C1345  C475    1.388   1_556 S
C1347  C502    1.418   1_556 S
N1359  Zn1369  2.029   .     S
N1360  Zn1370  2.029   .     S
O1361  Zn1369  2.013   .     S
O1362  Zn1370  2.013   .     S
O1363  Zn1370  2.023   .     S
O1364  Zn1369  2.023   .     S
O1365  Zn1369  1.986   .     S
O1366  Zn1370  1.986   .     S
O1367  Zn1370  1.934   .     S
O1368  Zn1369  1.934   .     S
N1371  H1372   1.044   .     S
N1371  H1373   1.046   .     S
N1374  H1376   1.046   .     S
N1374  H1375   1.045   .     S
C1377  C1382   1.402   .     A
C1377  C1378   1.406   .     A
C1378  C1379   1.398   .     A
C1378  H1383   1.083   .     S
C1379  H1384   1.083   .     S
C1379  C1380   1.397   .     A
C1380  H1385   1.082   .     S
C1380  C1381   1.399   .     A
C1381  H1386   1.082   .     S
C1381  C1382   1.398   .     A
C1382  H1387   1.083   .     S
C1388  C1393   1.405   .     A
C1388  C1389   1.402   .     A
C1389  C1390   1.398   .     A
C1389  H1394   1.083   .     S
C1390  C1391   1.399   .     A
C1390  H1395   1.082   .     S
C1391  H1396   1.082   .     S
C1391  C1392   1.397   .     A
C1392  C1393   1.398   .     A
C1392  H1397   1.082   .     S
C1393  H1398   1.083   .     S
N1399  H1400   1.041   .     S
N1399  H1401   1.041   .     S
N1402  H1403   1.044   .     S
H1404  N1214   1.045   1_655 S
N1405  H1407   1.041   .     S
N1405  H1406   1.032   .     S
N1408  H1410   1.043   .     S
N1408  H1409   1.043   .     S
C1411  C1422   1.435   .     S
C1411  O1457   1.297   .     A
C1411  O1455   1.289   .     A
C1412  O1456   1.287   .     A
C1412  C1421   1.434   .     S
C1412  O1458   1.298   .     A
C1413  C1442   1.419   .     A
C1413  H1451   1.074   .     S
C1413  C1415   1.386   .     A
C1414  C1416   1.384   .     A
C1414  H1452   1.072   .     S
C1414  C1441   1.420   .     A
C1415  H1443   1.085   .     S
C1416  H1444   1.085   .     S
C1416  C594    1.386   1_556 S
C1417  N1465   1.435   .     S
C1417  C1422   1.410   .     A
C1417  C855    1.381   1_565 S
C1418  N1468   1.435   .     S
C1418  C1421   1.402   .     A
C1419  C1471   1.485   .     S
C1419  C1421   1.410   .     A
C1420  C1422   1.413   .     A
C1420  C1482   1.486   .     S
C1420  C854    1.388   1_565 S
C1423  N1493   1.425   .     S
C1423  N1454   1.366   .     A
C1423  C1519   1.409   .     S
C1424  N1496   1.430   .     S
C1424  N1453   1.364   .     A
C1424  C1614   1.436   1_455 S
C1425  N1499   1.425   .     S
C1425  N1453   1.378   .     A
C1425  C1611   1.409   1_455 S
C1426  N1454   1.377   .     A
C1426  N1502   1.429   .     S
C1426  C1518   1.436   .     S
C1427  O1461   1.300   .     A
C1427  O1459   1.301   .     A
C1427  C1429   1.459   .     S
C1428  O1462   1.300   .     A
C1428  O1460   1.301   .     A
C1428  C1430   1.460   .     S
C1429  C1433   1.397   .     A
C1429  C1435   1.391   .     A
C1430  C1436   1.391   .     A
C1430  C1434   1.398   .     A
C1431  C1433   1.393   .     A
C1431  C1439   1.405   .     A
C1431  H1449   1.083   .     S
C1432  C1434   1.391   .     A
C1432  H1450   1.084   .     S
C1432  C1440   1.403   .     A
C1433  H1448   1.081   .     S
C1434  H1447   1.077   .     S
C1435  C1437   1.394   .     A
C1435  H1446   1.070   .     S
C1436  C1438   1.394   .     A
C1436  H1445   1.070   .     S
C1437  C1439   1.418   .     A
C1437  C1441   1.423   .     A
C1438  C1442   1.422   .     A
C1438  C1440   1.417   .     A
C1439  C569    1.388   1_556 S
C1441  C596    1.418   1_556 S
N1453  Zn1463  2.029   .     S
N1454  Zn1464  2.029   .     S
O1455  Zn1463  2.013   .     S
O1456  Zn1464  2.013   .     S
O1457  Zn1464  2.023   .     S
O1458  Zn1463  2.023   .     S
O1459  Zn1463  1.986   .     S
O1460  Zn1464  1.986   .     S
O1461  Zn1464  1.934   .     S
O1462  Zn1463  1.934   .     S
N1465  H1466   1.044   .     S
N1465  H1467   1.046   .     S
N1468  H1470   1.046   .     S
N1468  H1469   1.045   .     S
C1471  C1476   1.402   .     A
C1471  C1472   1.406   .     A
C1472  C1473   1.398   .     A
C1472  H1477   1.083   .     S
C1473  H1478   1.083   .     S
C1473  C1474   1.397   .     A
C1474  H1479   1.082   .     S
C1474  C1475   1.399   .     A
C1475  H1480   1.082   .     S
C1475  C1476   1.398   .     A
C1476  H1481   1.083   .     S
C1482  C1487   1.405   .     A
C1482  C1483   1.402   .     A
C1483  C1484   1.398   .     A
C1483  H1488   1.083   .     S
C1484  C1485   1.399   .     A
C1484  H1489   1.082   .     S
C1485  H1490   1.082   .     S
C1485  C1486   1.397   .     A
C1486  C1487   1.398   .     A
C1486  H1491   1.082   .     S
C1487  H1492   1.083   .     S
N1493  H1494   1.041   .     S
N1493  H1495   1.041   .     S
N1496  H1497   1.044   .     S
N1496  H1686   1.045   1_455 S
H1498  N1590   1.045   .     S
N1499  H1501   1.041   .     S
N1499  H1500   1.032   .     S
N1502  H1504   1.043   .     S
N1502  H1503   1.043   .     S
C1505  C1516   1.435   .     S
C1505  O1551   1.297   .     A
C1505  O1549   1.289   .     A
C1506  O1550   1.287   .     A
C1506  C1515   1.434   .     S
C1506  O1552   1.298   .     A
C1507  C1536   1.419   .     A
C1507  H1545   1.074   .     S
C1507  C1509   1.386   .     A
C1508  C1510   1.384   .     A
C1508  H1546   1.072   .     S
C1508  C1535   1.420   .     A
C1509  H1537   1.085   .     S
C1510  H1538   1.085   .     S
C1510  C688    1.386   1_556 S
C1511  N1559   1.435   .     S
C1511  C1516   1.410   .     A
C1511  C949    1.381   1_565 S
C1512  N1562   1.435   .     S
C1512  C1515   1.402   .     A
C1513  C1565   1.485   .     S
C1513  C1515   1.410   .     A
C1514  C1516   1.413   .     A
C1514  C1576   1.486   .     S
C1514  C948    1.388   1_565 S
C1517  N1587   1.425   .     S
C1517  N1548   1.366   .     A
C1517  C1613   1.409   .     S
C1518  N1590   1.430   .     S
C1518  N1547   1.364   .     A
C1519  N1593   1.425   .     S
C1519  N1547   1.378   .     A
C1520  N1548   1.377   .     A
C1520  N1596   1.429   .     S
C1520  C1612   1.436   .     S
C1521  O1555   1.300   .     A
C1521  O1553   1.301   .     A
C1521  C1523   1.459   .     S
C1522  O1556   1.300   .     A
C1522  O1554   1.301   .     A
C1522  C1524   1.460   .     S
C1523  C1527   1.397   .     A
C1523  C1529   1.391   .     A
C1524  C1530   1.391   .     A
C1524  C1528   1.398   .     A
C1525  C1527   1.393   .     A
C1525  C1533   1.405   .     A
C1525  H1543   1.083   .     S
C1526  C1528   1.391   .     A
C1526  H1544   1.084   .     S
C1526  C1534   1.403   .     A
C1527  H1542   1.081   .     S
C1528  H1541   1.077   .     S
C1529  C1531   1.394   .     A
C1529  H1540   1.070   .     S
C1530  C1532   1.394   .     A
C1530  H1539   1.070   .     S
C1531  C1533   1.418   .     A
C1531  C1535   1.423   .     A
C1532  C1536   1.422   .     A
C1532  C1534   1.417   .     A
C1533  C663    1.388   1_556 S
C1535  C690    1.418   1_556 S
N1547  Zn1557  2.029   .     S
N1548  Zn1558  2.029   .     S
O1549  Zn1557  2.013   .     S
O1550  Zn1558  2.013   .     S
O1551  Zn1558  2.023   .     S
O1552  Zn1557  2.023   .     S
O1553  Zn1557  1.986   .     S
O1554  Zn1558  1.986   .     S
O1555  Zn1558  1.934   .     S
O1556  Zn1557  1.934   .     S
N1559  H1560   1.044   .     S
N1559  H1561   1.046   .     S
N1562  H1564   1.046   .     S
N1562  H1563   1.045   .     S
C1565  C1570   1.402   .     A
C1565  C1566   1.406   .     A
C1566  C1567   1.398   .     A
C1566  H1571   1.083   .     S
C1567  H1572   1.083   .     S
C1567  C1568   1.397   .     A
C1568  H1573   1.082   .     S
C1568  C1569   1.399   .     A
C1569  H1574   1.082   .     S
C1569  C1570   1.398   .     A
C1570  H1575   1.083   .     S
C1576  C1581   1.405   .     A
C1576  C1577   1.402   .     A
C1577  C1578   1.398   .     A
C1577  H1582   1.083   .     S
C1578  C1579   1.399   .     A
C1578  H1583   1.082   .     S
C1579  H1584   1.082   .     S
C1579  C1580   1.397   .     A
C1580  C1581   1.398   .     A
C1580  H1585   1.082   .     S
C1581  H1586   1.083   .     S
N1587  H1588   1.041   .     S
N1587  H1589   1.041   .     S
N1590  H1591   1.044   .     S
H1592  N1684   1.045   .     S
N1593  H1595   1.041   .     S
N1593  H1594   1.032   .     S
N1596  H1598   1.043   .     S
N1596  H1597   1.043   .     S
C1599  C1610   1.435   .     S
C1599  O1645   1.297   .     A
C1599  O1643   1.289   .     A
C1600  O1644   1.287   .     A
C1600  C1609   1.434   .     S
C1600  O1646   1.298   .     A
C1601  C1630   1.419   .     A
C1601  H1639   1.074   .     S
C1601  C1603   1.386   .     A
C1602  C1604   1.384   .     A
C1602  H1640   1.072   .     S
C1602  C1629   1.420   .     A
C1603  H1631   1.085   .     S
C1604  H1632   1.085   .     S
C1604  C782    1.386   1_556 S
C1605  N1653   1.435   .     S
C1605  C1610   1.410   .     A
C1605  C1043   1.381   1_565 S
C1606  N1656   1.435   .     S
C1606  C1609   1.402   .     A
C1607  C1659   1.485   .     S
C1607  C1609   1.410   .     A
C1608  C1610   1.413   .     A
C1608  C1670   1.486   .     S
C1608  C1042   1.388   1_565 S
C1611  N1681   1.425   .     S
C1611  N1642   1.366   .     A
C1611  C1425   1.409   1_655 S
C1612  N1684   1.430   .     S
C1612  N1641   1.364   .     A
C1613  N1687   1.425   .     S
C1613  N1641   1.378   .     A
C1614  N1642   1.377   .     A
C1614  N1690   1.429   .     S
C1614  C1424   1.436   1_655 S
C1615  O1649   1.300   .     A
C1615  O1647   1.301   .     A
C1615  C1617   1.459   .     S
C1616  O1650   1.300   .     A
C1616  O1648   1.301   .     A
C1616  C1618   1.460   .     S
C1617  C1621   1.397   .     A
C1617  C1623   1.391   .     A
C1618  C1624   1.391   .     A
C1618  C1622   1.398   .     A
C1619  C1621   1.393   .     A
C1619  C1627   1.405   .     A
C1619  H1637   1.083   .     S
C1620  C1622   1.391   .     A
C1620  H1638   1.084   .     S
C1620  C1628   1.403   .     A
C1621  H1636   1.081   .     S
C1622  H1635   1.077   .     S
C1623  C1625   1.394   .     A
C1623  H1634   1.070   .     S
C1624  C1626   1.394   .     A
C1624  H1633   1.070   .     S
C1625  C1627   1.418   .     A
C1625  C1629   1.423   .     A
C1626  C1630   1.422   .     A
C1626  C1628   1.417   .     A
C1627  C757    1.388   1_556 S
C1629  C784    1.418   1_556 S
N1641  Zn1651  2.029   .     S
N1642  Zn1652  2.029   .     S
O1643  Zn1651  2.013   .     S
O1644  Zn1652  2.013   .     S
O1645  Zn1652  2.023   .     S
O1646  Zn1651  2.023   .     S
O1647  Zn1651  1.986   .     S
O1648  Zn1652  1.986   .     S
O1649  Zn1652  1.934   .     S
O1650  Zn1651  1.934   .     S
N1653  H1654   1.044   .     S
N1653  H1655   1.046   .     S
N1656  H1658   1.046   .     S
N1656  H1657   1.045   .     S
C1659  C1664   1.402   .     A
C1659  C1660   1.406   .     A
C1660  C1661   1.398   .     A
C1660  H1665   1.083   .     S
C1661  H1666   1.083   .     S
C1661  C1662   1.397   .     A
C1662  H1667   1.082   .     S
C1662  C1663   1.399   .     A
C1663  H1668   1.082   .     S
C1663  C1664   1.398   .     A
C1664  H1669   1.083   .     S
C1670  C1675   1.405   .     A
C1670  C1671   1.402   .     A
C1671  C1672   1.398   .     A
C1671  H1676   1.083   .     S
C1672  C1673   1.399   .     A
C1672  H1677   1.082   .     S
C1673  H1678   1.082   .     S
C1673  C1674   1.397   .     A
C1674  C1675   1.398   .     A
C1674  H1679   1.082   .     S
C1675  H1680   1.083   .     S
N1681  H1682   1.041   .     S
N1681  H1683   1.041   .     S
N1684  H1685   1.044   .     S
H1686  N1496   1.045   1_655 S
N1687  H1689   1.041   .     S
N1687  H1688   1.032   .     S
N1690  H1692   1.043   .     S
N1690  H1691   1.043   .     S
