data_str_m3_o1_o10_pcu_sym.117
_audit_creation_date              2020-01-03
_audit_creation_method            'Materials Studio'
_symmetry_space_group_name_H-M    'P1'
_symmetry_Int_Tables_number       1
_symmetry_cell_setting            triclinic
loop_
_symmetry_equiv_pos_as_xyz
  x,y,z
_cell_length_a                    25.7689
_cell_length_b                    31.9870
_cell_length_c                    29.5713
_cell_angle_alpha                 89.6837
_cell_angle_beta                  98.6721
_cell_angle_gamma                 90.0166
loop_
_atom_site_label
_atom_site_type_symbol
_atom_site_fract_x
_atom_site_fract_y
_atom_site_fract_z
_atom_site_U_iso_or_equiv
_atom_site_adp_type
_atom_site_occupancy
O1     O     0.16666   0.10558   0.20487   0.00000  Uiso   1.00
O2     O     0.16667   0.22775   0.12846   0.00000  Uiso   1.00
O3     O     0.16666   0.10559   0.12843   0.00000  Uiso   1.00
O4     O     0.16667   0.22774   0.20490   0.00000  Uiso   1.00
C5     C     0.16826   0.08674   0.16700   0.00000  Uiso   1.00
C6     C     0.16507   0.24659   0.16634   0.00000  Uiso   1.00
O7     O     0.09058   0.16666   0.19595   0.00000  Uiso   1.00
O8     O     0.24275   0.16667   0.13739   0.00000  Uiso   1.00
O9     O     0.09058   0.16667   0.11950   0.00000  Uiso   1.00
O10    O     0.24275   0.16666   0.21383   0.00000  Uiso   1.00
C11    C     0.06704   0.16654   0.15469   0.00000  Uiso   1.00
C12    C     0.26629   0.16679   0.17864   0.00000  Uiso   1.00
Zn13   Zn    0.16667   0.16666   0.21771   0.00000  Uiso   1.00
Zn14   Zn    0.16667   0.16667   0.11563   0.00000  Uiso   1.00
N15    N     0.16665   0.16666   0.28573   0.00000  Uiso   1.00
N16    N     0.16668   0.16668   0.04760   0.00000  Uiso   1.00
C17    C     0.01198   0.16657   0.14826   0.00000  Uiso   1.00
C18    C     0.32135   0.16677   0.18508   0.00000  Uiso   1.00
H19    H     0.32466   0.16645   0.11334   0.00000  Uiso   1.00
H20    H     0.00867   0.16689   0.22000   0.00000  Uiso   1.00
C21    C     0.20186   0.02063   0.14161   0.00000  Uiso   1.00
C22    C     0.13147   0.31270   0.19172   0.00000  Uiso   1.00
C23    C     0.19789   0.31103   0.14045   0.00000  Uiso   1.00
C24    C     0.13544   0.02231   0.19288   0.00000  Uiso   1.00
H25    H     0.22321   0.29321   0.12153   0.00000  Uiso   1.00
H26    H     0.11012   0.04012   0.21180   0.00000  Uiso   1.00
C27    C     0.16367   0.29075   0.16566   0.00000  Uiso   1.00
C28    C     0.16966   0.04258   0.16768   0.00000  Uiso   1.00
C29    C     0.19880   0.19300   0.02802   0.00000  Uiso   1.00
C30    C     0.13453   0.14034   0.30531   0.00000  Uiso   1.00
H31    H     0.22451   0.21406   0.04939   0.00000  Uiso   1.00
H32    H     0.10882   0.11928   0.28394   0.00000  Uiso   1.00
C33    C     0.19878   0.19299   0.31342   0.00000  Uiso   1.00
C34    C     0.13456   0.14035   0.01991   0.00000  Uiso   1.00
H35    H     0.22447   0.21405   0.29854   0.00000  Uiso   1.00
H36    H     0.10886   0.11929   0.03480   0.00000  Uiso   1.00
N37    N     0.23990   0.04110   0.11812   0.00000  Uiso   1.00
O38    O     0.26850   0.07139   0.13766   0.00000  Uiso   1.00
O39    O     0.25145   0.02560   0.08027   0.00000  Uiso   1.00
N40    N     0.09343   0.29223   0.21521   0.00000  Uiso   1.00
O41    O     0.06483   0.26194   0.19567   0.00000  Uiso   1.00
O42    O     0.08188   0.30774   0.25306   0.00000  Uiso   1.00
O43    O     0.50000   0.10558   0.20487   0.00000  Uiso   1.00
O44    O     0.50000   0.22775   0.12846   0.00000  Uiso   1.00
O45    O     0.50000   0.10559   0.12843   0.00000  Uiso   1.00
O46    O     0.50000   0.22774   0.20490   0.00000  Uiso   1.00
C47    C     0.50160   0.08674   0.16700   0.00000  Uiso   1.00
C48    C     0.49840   0.24659   0.16634   0.00000  Uiso   1.00
O49    O     0.42392   0.16666   0.19595   0.00000  Uiso   1.00
O50    O     0.57608   0.16667   0.13739   0.00000  Uiso   1.00
O51    O     0.42392   0.16667   0.11950   0.00000  Uiso   1.00
O52    O     0.57608   0.16666   0.21383   0.00000  Uiso   1.00
C53    C     0.40037   0.16654   0.15469   0.00000  Uiso   1.00
C54    C     0.59963   0.16679   0.17864   0.00000  Uiso   1.00
Zn55   Zn    0.50000   0.16666   0.21771   0.00000  Uiso   1.00
Zn56   Zn    0.50000   0.16667   0.11563   0.00000  Uiso   1.00
N57    N     0.49999   0.16666   0.28573   0.00000  Uiso   1.00
N58    N     0.50001   0.16668   0.04760   0.00000  Uiso   1.00
C59    C     0.34532   0.16657   0.14826   0.00000  Uiso   1.00
C60    C     0.65468   0.16677   0.18508   0.00000  Uiso   1.00
H61    H     0.65800   0.16645   0.11334   0.00000  Uiso   1.00
H62    H     0.34200   0.16689   0.22000   0.00000  Uiso   1.00
C63    C     0.53520   0.02063   0.14161   0.00000  Uiso   1.00
C64    C     0.46480   0.31270   0.19172   0.00000  Uiso   1.00
C65    C     0.53123   0.31103   0.14045   0.00000  Uiso   1.00
C66    C     0.46877   0.02231   0.19288   0.00000  Uiso   1.00
H67    H     0.55654   0.29321   0.12153   0.00000  Uiso   1.00
H68    H     0.44346   0.04012   0.21180   0.00000  Uiso   1.00
C69    C     0.49701   0.29075   0.16566   0.00000  Uiso   1.00
C70    C     0.50299   0.04258   0.16768   0.00000  Uiso   1.00
C71    C     0.53213   0.19300   0.02802   0.00000  Uiso   1.00
C72    C     0.46787   0.14034   0.30531   0.00000  Uiso   1.00
H73    H     0.55784   0.21406   0.04939   0.00000  Uiso   1.00
H74    H     0.44216   0.11928   0.28394   0.00000  Uiso   1.00
C75    C     0.53211   0.19299   0.31342   0.00000  Uiso   1.00
C76    C     0.46789   0.14035   0.01991   0.00000  Uiso   1.00
H77    H     0.55780   0.21405   0.29854   0.00000  Uiso   1.00
H78    H     0.44219   0.11929   0.03480   0.00000  Uiso   1.00
N79    N     0.57323   0.04110   0.11812   0.00000  Uiso   1.00
O80    O     0.60183   0.07139   0.13766   0.00000  Uiso   1.00
O81    O     0.58478   0.02560   0.08027   0.00000  Uiso   1.00
N82    N     0.42676   0.29223   0.21521   0.00000  Uiso   1.00
O83    O     0.39816   0.26194   0.19567   0.00000  Uiso   1.00
O84    O     0.41521   0.30774   0.25306   0.00000  Uiso   1.00
O85    O     0.83333   0.10558   0.20487   0.00000  Uiso   1.00
O86    O     0.83334   0.22775   0.12846   0.00000  Uiso   1.00
O87    O     0.83333   0.10559   0.12843   0.00000  Uiso   1.00
O88    O     0.83334   0.22774   0.20490   0.00000  Uiso   1.00
C89    C     0.83493   0.08674   0.16700   0.00000  Uiso   1.00
C90    C     0.83174   0.24659   0.16634   0.00000  Uiso   1.00
O91    O     0.75725   0.16666   0.19595   0.00000  Uiso   1.00
O92    O     0.90942   0.16667   0.13739   0.00000  Uiso   1.00
O93    O     0.75725   0.16667   0.11950   0.00000  Uiso   1.00
O94    O     0.90942   0.16666   0.21383   0.00000  Uiso   1.00
C95    C     0.73371   0.16654   0.15469   0.00000  Uiso   1.00
C96    C     0.93296   0.16679   0.17864   0.00000  Uiso   1.00
Zn97   Zn    0.83333   0.16666   0.21771   0.00000  Uiso   1.00
Zn98   Zn    0.83333   0.16667   0.11563   0.00000  Uiso   1.00
N99    N     0.83332   0.16666   0.28573   0.00000  Uiso   1.00
N100   N     0.83335   0.16668   0.04760   0.00000  Uiso   1.00
C101   C     0.67865   0.16657   0.14826   0.00000  Uiso   1.00
C102   C     0.98802   0.16677   0.18508   0.00000  Uiso   1.00
H103   H     0.99133   0.16645   0.11334   0.00000  Uiso   1.00
H104   H     0.67534   0.16689   0.22000   0.00000  Uiso   1.00
C105   C     0.86853   0.02063   0.14161   0.00000  Uiso   1.00
C106   C     0.79813   0.31270   0.19172   0.00000  Uiso   1.00
C107   C     0.86456   0.31103   0.14045   0.00000  Uiso   1.00
C108   C     0.80211   0.02231   0.19288   0.00000  Uiso   1.00
H109   H     0.88988   0.29321   0.12153   0.00000  Uiso   1.00
H110   H     0.77679   0.04012   0.21180   0.00000  Uiso   1.00
C111   C     0.83034   0.29075   0.16566   0.00000  Uiso   1.00
C112   C     0.83633   0.04258   0.16768   0.00000  Uiso   1.00
C113   C     0.86547   0.19300   0.02802   0.00000  Uiso   1.00
C114   C     0.80120   0.14034   0.30531   0.00000  Uiso   1.00
H115   H     0.89118   0.21406   0.04939   0.00000  Uiso   1.00
H116   H     0.77549   0.11928   0.28394   0.00000  Uiso   1.00
C117   C     0.86544   0.19299   0.31342   0.00000  Uiso   1.00
C118   C     0.80122   0.14035   0.01991   0.00000  Uiso   1.00
H119   H     0.89114   0.21405   0.29854   0.00000  Uiso   1.00
H120   H     0.77553   0.11929   0.03480   0.00000  Uiso   1.00
N121   N     0.90657   0.04110   0.11812   0.00000  Uiso   1.00
O122   O     0.93517   0.07139   0.13766   0.00000  Uiso   1.00
O123   O     0.91812   0.02560   0.08027   0.00000  Uiso   1.00
N124   N     0.76010   0.29223   0.21521   0.00000  Uiso   1.00
O125   O     0.73150   0.26194   0.19567   0.00000  Uiso   1.00
O126   O     0.74855   0.30774   0.25306   0.00000  Uiso   1.00
O127   O     0.16666   0.43892   0.20487   0.00000  Uiso   1.00
O128   O     0.16667   0.56108   0.12846   0.00000  Uiso   1.00
O129   O     0.16666   0.43893   0.12843   0.00000  Uiso   1.00
O130   O     0.16667   0.56107   0.20490   0.00000  Uiso   1.00
C131   C     0.16826   0.42008   0.16700   0.00000  Uiso   1.00
C132   C     0.16507   0.57992   0.16634   0.00000  Uiso   1.00
O133   O     0.09058   0.50000   0.19595   0.00000  Uiso   1.00
O134   O     0.24275   0.50000   0.13739   0.00000  Uiso   1.00
O135   O     0.09058   0.50000   0.11950   0.00000  Uiso   1.00
O136   O     0.24275   0.50000   0.21383   0.00000  Uiso   1.00
C137   C     0.06704   0.49987   0.15469   0.00000  Uiso   1.00
C138   C     0.26629   0.50013   0.17864   0.00000  Uiso   1.00
Zn139  Zn    0.16667   0.49999   0.21771   0.00000  Uiso   1.00
Zn140  Zn    0.16667   0.50001   0.11563   0.00000  Uiso   1.00
N141   N     0.16665   0.49999   0.28573   0.00000  Uiso   1.00
N142   N     0.16668   0.50001   0.04760   0.00000  Uiso   1.00
C143   C     0.01198   0.49990   0.14826   0.00000  Uiso   1.00
C144   C     0.32135   0.50010   0.18508   0.00000  Uiso   1.00
H145   H     0.32466   0.49978   0.11334   0.00000  Uiso   1.00
H146   H     0.00867   0.50022   0.22000   0.00000  Uiso   1.00
C147   C     0.20186   0.35397   0.14161   0.00000  Uiso   1.00
C148   C     0.13147   0.64603   0.19172   0.00000  Uiso   1.00
C149   C     0.19789   0.64436   0.14045   0.00000  Uiso   1.00
C150   C     0.13544   0.35564   0.19288   0.00000  Uiso   1.00
H151   H     0.22321   0.62654   0.12153   0.00000  Uiso   1.00
H152   H     0.11012   0.37346   0.21180   0.00000  Uiso   1.00
C153   C     0.16367   0.62408   0.16566   0.00000  Uiso   1.00
C154   C     0.16966   0.37592   0.16768   0.00000  Uiso   1.00
C155   C     0.19880   0.52633   0.02802   0.00000  Uiso   1.00
C156   C     0.13453   0.47367   0.30531   0.00000  Uiso   1.00
H157   H     0.22451   0.54739   0.04939   0.00000  Uiso   1.00
H158   H     0.10882   0.45261   0.28394   0.00000  Uiso   1.00
C159   C     0.19878   0.52632   0.31342   0.00000  Uiso   1.00
C160   C     0.13456   0.47368   0.01991   0.00000  Uiso   1.00
H161   H     0.22447   0.54738   0.29854   0.00000  Uiso   1.00
H162   H     0.10886   0.45262   0.03480   0.00000  Uiso   1.00
N163   N     0.23990   0.37443   0.11812   0.00000  Uiso   1.00
O164   O     0.26850   0.40472   0.13766   0.00000  Uiso   1.00
O165   O     0.25145   0.35893   0.08027   0.00000  Uiso   1.00
N166   N     0.09343   0.62557   0.21521   0.00000  Uiso   1.00
O167   O     0.06483   0.59528   0.19567   0.00000  Uiso   1.00
O168   O     0.08188   0.64107   0.25306   0.00000  Uiso   1.00
O169   O     0.50000   0.43892   0.20487   0.00000  Uiso   1.00
O170   O     0.50000   0.56108   0.12846   0.00000  Uiso   1.00
O171   O     0.50000   0.43893   0.12843   0.00000  Uiso   1.00
O172   O     0.50000   0.56107   0.20490   0.00000  Uiso   1.00
C173   C     0.50160   0.42008   0.16700   0.00000  Uiso   1.00
C174   C     0.49840   0.57992   0.16634   0.00000  Uiso   1.00
O175   O     0.42392   0.50000   0.19595   0.00000  Uiso   1.00
O176   O     0.57608   0.50000   0.13739   0.00000  Uiso   1.00
O177   O     0.42392   0.50000   0.11950   0.00000  Uiso   1.00
O178   O     0.57608   0.50000   0.21383   0.00000  Uiso   1.00
C179   C     0.40037   0.49987   0.15469   0.00000  Uiso   1.00
C180   C     0.59963   0.50013   0.17864   0.00000  Uiso   1.00
Zn181  Zn    0.50000   0.49999   0.21771   0.00000  Uiso   1.00
Zn182  Zn    0.50000   0.50001   0.11563   0.00000  Uiso   1.00
N183   N     0.49999   0.49999   0.28573   0.00000  Uiso   1.00
N184   N     0.50001   0.50001   0.04760   0.00000  Uiso   1.00
C185   C     0.34532   0.49990   0.14826   0.00000  Uiso   1.00
C186   C     0.65468   0.50010   0.18508   0.00000  Uiso   1.00
H187   H     0.65800   0.49978   0.11334   0.00000  Uiso   1.00
H188   H     0.34200   0.50022   0.22000   0.00000  Uiso   1.00
C189   C     0.53520   0.35397   0.14161   0.00000  Uiso   1.00
C190   C     0.46480   0.64603   0.19172   0.00000  Uiso   1.00
C191   C     0.53123   0.64436   0.14045   0.00000  Uiso   1.00
C192   C     0.46877   0.35564   0.19288   0.00000  Uiso   1.00
H193   H     0.55654   0.62654   0.12153   0.00000  Uiso   1.00
H194   H     0.44346   0.37346   0.21180   0.00000  Uiso   1.00
C195   C     0.49701   0.62408   0.16566   0.00000  Uiso   1.00
C196   C     0.50299   0.37592   0.16768   0.00000  Uiso   1.00
C197   C     0.53213   0.52633   0.02802   0.00000  Uiso   1.00
C198   C     0.46787   0.47367   0.30531   0.00000  Uiso   1.00
H199   H     0.55784   0.54739   0.04939   0.00000  Uiso   1.00
H200   H     0.44216   0.45261   0.28394   0.00000  Uiso   1.00
C201   C     0.53211   0.52632   0.31342   0.00000  Uiso   1.00
C202   C     0.46789   0.47368   0.01991   0.00000  Uiso   1.00
H203   H     0.55780   0.54738   0.29854   0.00000  Uiso   1.00
H204   H     0.44219   0.45262   0.03480   0.00000  Uiso   1.00
N205   N     0.57323   0.37443   0.11812   0.00000  Uiso   1.00
O206   O     0.60183   0.40472   0.13766   0.00000  Uiso   1.00
O207   O     0.58478   0.35893   0.08027   0.00000  Uiso   1.00
N208   N     0.42676   0.62557   0.21521   0.00000  Uiso   1.00
O209   O     0.39816   0.59528   0.19567   0.00000  Uiso   1.00
O210   O     0.41521   0.64107   0.25306   0.00000  Uiso   1.00
O211   O     0.83333   0.43892   0.20487   0.00000  Uiso   1.00
O212   O     0.83334   0.56108   0.12846   0.00000  Uiso   1.00
O213   O     0.83333   0.43893   0.12843   0.00000  Uiso   1.00
O214   O     0.83334   0.56107   0.20490   0.00000  Uiso   1.00
C215   C     0.83493   0.42008   0.16700   0.00000  Uiso   1.00
C216   C     0.83174   0.57992   0.16634   0.00000  Uiso   1.00
O217   O     0.75725   0.50000   0.19595   0.00000  Uiso   1.00
O218   O     0.90942   0.50000   0.13739   0.00000  Uiso   1.00
O219   O     0.75725   0.50000   0.11950   0.00000  Uiso   1.00
O220   O     0.90942   0.50000   0.21383   0.00000  Uiso   1.00
C221   C     0.73371   0.49987   0.15469   0.00000  Uiso   1.00
C222   C     0.93296   0.50013   0.17864   0.00000  Uiso   1.00
Zn223  Zn    0.83333   0.49999   0.21771   0.00000  Uiso   1.00
Zn224  Zn    0.83333   0.50001   0.11563   0.00000  Uiso   1.00
N225   N     0.83332   0.49999   0.28573   0.00000  Uiso   1.00
N226   N     0.83335   0.50001   0.04760   0.00000  Uiso   1.00
C227   C     0.67865   0.49990   0.14826   0.00000  Uiso   1.00
C228   C     0.98802   0.50010   0.18508   0.00000  Uiso   1.00
H229   H     0.99133   0.49978   0.11334   0.00000  Uiso   1.00
H230   H     0.67534   0.50022   0.22000   0.00000  Uiso   1.00
C231   C     0.86853   0.35397   0.14161   0.00000  Uiso   1.00
C232   C     0.79813   0.64603   0.19172   0.00000  Uiso   1.00
C233   C     0.86456   0.64436   0.14045   0.00000  Uiso   1.00
C234   C     0.80211   0.35564   0.19288   0.00000  Uiso   1.00
H235   H     0.88988   0.62654   0.12153   0.00000  Uiso   1.00
H236   H     0.77679   0.37346   0.21180   0.00000  Uiso   1.00
C237   C     0.83034   0.62408   0.16566   0.00000  Uiso   1.00
C238   C     0.83633   0.37592   0.16768   0.00000  Uiso   1.00
C239   C     0.86547   0.52633   0.02802   0.00000  Uiso   1.00
C240   C     0.80120   0.47367   0.30531   0.00000  Uiso   1.00
H241   H     0.89118   0.54739   0.04939   0.00000  Uiso   1.00
H242   H     0.77549   0.45261   0.28394   0.00000  Uiso   1.00
C243   C     0.86544   0.52632   0.31342   0.00000  Uiso   1.00
C244   C     0.80122   0.47368   0.01991   0.00000  Uiso   1.00
H245   H     0.89114   0.54738   0.29854   0.00000  Uiso   1.00
H246   H     0.77553   0.45262   0.03480   0.00000  Uiso   1.00
N247   N     0.90657   0.37443   0.11812   0.00000  Uiso   1.00
O248   O     0.93517   0.40472   0.13766   0.00000  Uiso   1.00
O249   O     0.91812   0.35893   0.08027   0.00000  Uiso   1.00
N250   N     0.76010   0.62557   0.21521   0.00000  Uiso   1.00
O251   O     0.73150   0.59528   0.19567   0.00000  Uiso   1.00
O252   O     0.74855   0.64107   0.25306   0.00000  Uiso   1.00
O253   O     0.16666   0.77225   0.20487   0.00000  Uiso   1.00
O254   O     0.16667   0.89442   0.12846   0.00000  Uiso   1.00
O255   O     0.16666   0.77226   0.12843   0.00000  Uiso   1.00
O256   O     0.16667   0.89441   0.20490   0.00000  Uiso   1.00
C257   C     0.16826   0.75341   0.16700   0.00000  Uiso   1.00
C258   C     0.16507   0.91326   0.16634   0.00000  Uiso   1.00
O259   O     0.09058   0.83333   0.19595   0.00000  Uiso   1.00
O260   O     0.24275   0.83334   0.13739   0.00000  Uiso   1.00
O261   O     0.09058   0.83334   0.11950   0.00000  Uiso   1.00
O262   O     0.24275   0.83333   0.21383   0.00000  Uiso   1.00
C263   C     0.06704   0.83321   0.15469   0.00000  Uiso   1.00
C264   C     0.26629   0.83346   0.17864   0.00000  Uiso   1.00
Zn265  Zn    0.16667   0.83333   0.21771   0.00000  Uiso   1.00
Zn266  Zn    0.16667   0.83334   0.11563   0.00000  Uiso   1.00
N267   N     0.16665   0.83332   0.28573   0.00000  Uiso   1.00
N268   N     0.16668   0.83334   0.04760   0.00000  Uiso   1.00
C269   C     0.01198   0.83323   0.14826   0.00000  Uiso   1.00
C270   C     0.32135   0.83343   0.18508   0.00000  Uiso   1.00
H271   H     0.32466   0.83311   0.11334   0.00000  Uiso   1.00
H272   H     0.00867   0.83355   0.22000   0.00000  Uiso   1.00
C273   C     0.20186   0.68730   0.14161   0.00000  Uiso   1.00
C274   C     0.13147   0.97937   0.19172   0.00000  Uiso   1.00
C275   C     0.19789   0.97769   0.14045   0.00000  Uiso   1.00
C276   C     0.13544   0.68897   0.19288   0.00000  Uiso   1.00
H277   H     0.22321   0.95988   0.12153   0.00000  Uiso   1.00
H278   H     0.11012   0.70679   0.21180   0.00000  Uiso   1.00
C279   C     0.16367   0.95742   0.16566   0.00000  Uiso   1.00
C280   C     0.16966   0.70925   0.16768   0.00000  Uiso   1.00
C281   C     0.19880   0.85966   0.02802   0.00000  Uiso   1.00
C282   C     0.13453   0.80700   0.30531   0.00000  Uiso   1.00
H283   H     0.22451   0.88072   0.04939   0.00000  Uiso   1.00
H284   H     0.10882   0.78594   0.28394   0.00000  Uiso   1.00
C285   C     0.19878   0.85965   0.31342   0.00000  Uiso   1.00
C286   C     0.13456   0.80701   0.01991   0.00000  Uiso   1.00
H287   H     0.22447   0.88071   0.29854   0.00000  Uiso   1.00
H288   H     0.10886   0.78595   0.03480   0.00000  Uiso   1.00
N289   N     0.23990   0.70777   0.11812   0.00000  Uiso   1.00
O290   O     0.26850   0.73805   0.13766   0.00000  Uiso   1.00
O291   O     0.25145   0.69227   0.08027   0.00000  Uiso   1.00
N292   N     0.09343   0.95890   0.21521   0.00000  Uiso   1.00
O293   O     0.06483   0.92861   0.19567   0.00000  Uiso   1.00
O294   O     0.08188   0.97440   0.25306   0.00000  Uiso   1.00
O295   O     0.50000   0.77225   0.20487   0.00000  Uiso   1.00
O296   O     0.50000   0.89442   0.12846   0.00000  Uiso   1.00
O297   O     0.50000   0.77226   0.12843   0.00000  Uiso   1.00
O298   O     0.50000   0.89441   0.20490   0.00000  Uiso   1.00
C299   C     0.50160   0.75341   0.16700   0.00000  Uiso   1.00
C300   C     0.49840   0.91326   0.16634   0.00000  Uiso   1.00
O301   O     0.42392   0.83333   0.19595   0.00000  Uiso   1.00
O302   O     0.57608   0.83334   0.13739   0.00000  Uiso   1.00
O303   O     0.42392   0.83334   0.11950   0.00000  Uiso   1.00
O304   O     0.57608   0.83333   0.21383   0.00000  Uiso   1.00
C305   C     0.40037   0.83321   0.15469   0.00000  Uiso   1.00
C306   C     0.59963   0.83346   0.17864   0.00000  Uiso   1.00
Zn307  Zn    0.50000   0.83333   0.21771   0.00000  Uiso   1.00
Zn308  Zn    0.50000   0.83334   0.11563   0.00000  Uiso   1.00
N309   N     0.49999   0.83332   0.28573   0.00000  Uiso   1.00
N310   N     0.50001   0.83334   0.04760   0.00000  Uiso   1.00
C311   C     0.34532   0.83323   0.14826   0.00000  Uiso   1.00
C312   C     0.65468   0.83343   0.18508   0.00000  Uiso   1.00
H313   H     0.65800   0.83311   0.11334   0.00000  Uiso   1.00
H314   H     0.34200   0.83355   0.22000   0.00000  Uiso   1.00
C315   C     0.53520   0.68730   0.14161   0.00000  Uiso   1.00
C316   C     0.46480   0.97937   0.19172   0.00000  Uiso   1.00
C317   C     0.53123   0.97769   0.14045   0.00000  Uiso   1.00
C318   C     0.46877   0.68897   0.19288   0.00000  Uiso   1.00
H319   H     0.55654   0.95988   0.12153   0.00000  Uiso   1.00
H320   H     0.44346   0.70679   0.21180   0.00000  Uiso   1.00
C321   C     0.49701   0.95742   0.16566   0.00000  Uiso   1.00
C322   C     0.50299   0.70925   0.16768   0.00000  Uiso   1.00
C323   C     0.53213   0.85966   0.02802   0.00000  Uiso   1.00
C324   C     0.46787   0.80700   0.30531   0.00000  Uiso   1.00
H325   H     0.55784   0.88072   0.04939   0.00000  Uiso   1.00
H326   H     0.44216   0.78594   0.28394   0.00000  Uiso   1.00
C327   C     0.53211   0.85965   0.31342   0.00000  Uiso   1.00
C328   C     0.46789   0.80701   0.01991   0.00000  Uiso   1.00
H329   H     0.55780   0.88071   0.29854   0.00000  Uiso   1.00
H330   H     0.44219   0.78595   0.03480   0.00000  Uiso   1.00
N331   N     0.57323   0.70777   0.11812   0.00000  Uiso   1.00
O332   O     0.60183   0.73805   0.13766   0.00000  Uiso   1.00
O333   O     0.58478   0.69227   0.08027   0.00000  Uiso   1.00
N334   N     0.42676   0.95890   0.21521   0.00000  Uiso   1.00
O335   O     0.39816   0.92861   0.19567   0.00000  Uiso   1.00
O336   O     0.41521   0.97440   0.25306   0.00000  Uiso   1.00
O337   O     0.83333   0.77225   0.20487   0.00000  Uiso   1.00
O338   O     0.83334   0.89442   0.12846   0.00000  Uiso   1.00
O339   O     0.83333   0.77226   0.12843   0.00000  Uiso   1.00
O340   O     0.83334   0.89441   0.20490   0.00000  Uiso   1.00
C341   C     0.83493   0.75341   0.16700   0.00000  Uiso   1.00
C342   C     0.83174   0.91326   0.16634   0.00000  Uiso   1.00
O343   O     0.75725   0.83333   0.19595   0.00000  Uiso   1.00
O344   O     0.90942   0.83334   0.13739   0.00000  Uiso   1.00
O345   O     0.75725   0.83334   0.11950   0.00000  Uiso   1.00
O346   O     0.90942   0.83333   0.21383   0.00000  Uiso   1.00
C347   C     0.73371   0.83321   0.15469   0.00000  Uiso   1.00
C348   C     0.93296   0.83346   0.17864   0.00000  Uiso   1.00
Zn349  Zn    0.83333   0.83333   0.21771   0.00000  Uiso   1.00
Zn350  Zn    0.83333   0.83334   0.11563   0.00000  Uiso   1.00
N351   N     0.83332   0.83332   0.28573   0.00000  Uiso   1.00
N352   N     0.83335   0.83334   0.04760   0.00000  Uiso   1.00
C353   C     0.67865   0.83323   0.14826   0.00000  Uiso   1.00
C354   C     0.98802   0.83343   0.18508   0.00000  Uiso   1.00
H355   H     0.99133   0.83311   0.11334   0.00000  Uiso   1.00
H356   H     0.67534   0.83355   0.22000   0.00000  Uiso   1.00
C357   C     0.86853   0.68730   0.14161   0.00000  Uiso   1.00
C358   C     0.79813   0.97937   0.19172   0.00000  Uiso   1.00
C359   C     0.86456   0.97769   0.14045   0.00000  Uiso   1.00
C360   C     0.80211   0.68897   0.19288   0.00000  Uiso   1.00
H361   H     0.88988   0.95988   0.12153   0.00000  Uiso   1.00
H362   H     0.77679   0.70679   0.21180   0.00000  Uiso   1.00
C363   C     0.83034   0.95742   0.16566   0.00000  Uiso   1.00
C364   C     0.83633   0.70925   0.16768   0.00000  Uiso   1.00
C365   C     0.86547   0.85966   0.02802   0.00000  Uiso   1.00
C366   C     0.80120   0.80700   0.30531   0.00000  Uiso   1.00
H367   H     0.89118   0.88072   0.04939   0.00000  Uiso   1.00
H368   H     0.77549   0.78594   0.28394   0.00000  Uiso   1.00
C369   C     0.86544   0.85965   0.31342   0.00000  Uiso   1.00
C370   C     0.80122   0.80701   0.01991   0.00000  Uiso   1.00
H371   H     0.89114   0.88071   0.29854   0.00000  Uiso   1.00
H372   H     0.77553   0.78595   0.03480   0.00000  Uiso   1.00
N373   N     0.90657   0.70777   0.11812   0.00000  Uiso   1.00
O374   O     0.93517   0.73805   0.13766   0.00000  Uiso   1.00
O375   O     0.91812   0.69227   0.08027   0.00000  Uiso   1.00
N376   N     0.76010   0.95890   0.21521   0.00000  Uiso   1.00
O377   O     0.73150   0.92861   0.19567   0.00000  Uiso   1.00
O378   O     0.74855   0.97440   0.25306   0.00000  Uiso   1.00
O379   O     0.16666   0.10558   0.53821   0.00000  Uiso   1.00
O380   O     0.16667   0.22775   0.46179   0.00000  Uiso   1.00
O381   O     0.16666   0.10559   0.46176   0.00000  Uiso   1.00
O382   O     0.16667   0.22774   0.53824   0.00000  Uiso   1.00
C383   C     0.16826   0.08674   0.50033   0.00000  Uiso   1.00
C384   C     0.16507   0.24659   0.49967   0.00000  Uiso   1.00
O385   O     0.09058   0.16666   0.52928   0.00000  Uiso   1.00
O386   O     0.24275   0.16667   0.47072   0.00000  Uiso   1.00
O387   O     0.09058   0.16667   0.45284   0.00000  Uiso   1.00
O388   O     0.24275   0.16666   0.54716   0.00000  Uiso   1.00
C389   C     0.06704   0.16654   0.48802   0.00000  Uiso   1.00
C390   C     0.26629   0.16679   0.51198   0.00000  Uiso   1.00
Zn391  Zn    0.16667   0.16666   0.55104   0.00000  Uiso   1.00
Zn392  Zn    0.16667   0.16667   0.44896   0.00000  Uiso   1.00
N393   N     0.16665   0.16666   0.61907   0.00000  Uiso   1.00
N394   N     0.16668   0.16668   0.38093   0.00000  Uiso   1.00
C395   C     0.01198   0.16657   0.48159   0.00000  Uiso   1.00
C396   C     0.32135   0.16677   0.51841   0.00000  Uiso   1.00
H397   H     0.32466   0.16645   0.44667   0.00000  Uiso   1.00
H398   H     0.00867   0.16689   0.55333   0.00000  Uiso   1.00
C399   C     0.20186   0.02063   0.47495   0.00000  Uiso   1.00
C400   C     0.13147   0.31270   0.52505   0.00000  Uiso   1.00
C401   C     0.19789   0.31103   0.47378   0.00000  Uiso   1.00
C402   C     0.13544   0.02231   0.52622   0.00000  Uiso   1.00
H403   H     0.22321   0.29321   0.45487   0.00000  Uiso   1.00
H404   H     0.11012   0.04012   0.54513   0.00000  Uiso   1.00
C405   C     0.16367   0.29075   0.49899   0.00000  Uiso   1.00
C406   C     0.16966   0.04258   0.50101   0.00000  Uiso   1.00
C407   C     0.19880   0.19300   0.36135   0.00000  Uiso   1.00
C408   C     0.13453   0.14034   0.63865   0.00000  Uiso   1.00
H409   H     0.22451   0.21406   0.38272   0.00000  Uiso   1.00
H410   H     0.10882   0.11928   0.61728   0.00000  Uiso   1.00
C411   C     0.19878   0.19299   0.64676   0.00000  Uiso   1.00
C412   C     0.13456   0.14035   0.35324   0.00000  Uiso   1.00
H413   H     0.22447   0.21405   0.63187   0.00000  Uiso   1.00
H414   H     0.10886   0.11929   0.36813   0.00000  Uiso   1.00
N415   N     0.23990   0.04110   0.45145   0.00000  Uiso   1.00
O416   O     0.26850   0.07139   0.47099   0.00000  Uiso   1.00
O417   O     0.25145   0.02560   0.41360   0.00000  Uiso   1.00
N418   N     0.09343   0.29223   0.54855   0.00000  Uiso   1.00
O419   O     0.06483   0.26194   0.52901   0.00000  Uiso   1.00
O420   O     0.08188   0.30774   0.58639   0.00000  Uiso   1.00
O421   O     0.50000   0.10558   0.53821   0.00000  Uiso   1.00
O422   O     0.50000   0.22775   0.46179   0.00000  Uiso   1.00
O423   O     0.50000   0.10559   0.46176   0.00000  Uiso   1.00
O424   O     0.50000   0.22774   0.53824   0.00000  Uiso   1.00
C425   C     0.50160   0.08674   0.50033   0.00000  Uiso   1.00
C426   C     0.49840   0.24659   0.49967   0.00000  Uiso   1.00
O427   O     0.42392   0.16666   0.52928   0.00000  Uiso   1.00
O428   O     0.57608   0.16667   0.47072   0.00000  Uiso   1.00
O429   O     0.42392   0.16667   0.45284   0.00000  Uiso   1.00
O430   O     0.57608   0.16666   0.54716   0.00000  Uiso   1.00
C431   C     0.40037   0.16654   0.48802   0.00000  Uiso   1.00
C432   C     0.59963   0.16679   0.51198   0.00000  Uiso   1.00
Zn433  Zn    0.50000   0.16666   0.55104   0.00000  Uiso   1.00
Zn434  Zn    0.50000   0.16667   0.44896   0.00000  Uiso   1.00
N435   N     0.49999   0.16666   0.61907   0.00000  Uiso   1.00
N436   N     0.50001   0.16668   0.38093   0.00000  Uiso   1.00
C437   C     0.34532   0.16657   0.48159   0.00000  Uiso   1.00
C438   C     0.65468   0.16677   0.51841   0.00000  Uiso   1.00
H439   H     0.65800   0.16645   0.44667   0.00000  Uiso   1.00
H440   H     0.34200   0.16689   0.55333   0.00000  Uiso   1.00
C441   C     0.53520   0.02063   0.47495   0.00000  Uiso   1.00
C442   C     0.46480   0.31270   0.52505   0.00000  Uiso   1.00
C443   C     0.53123   0.31103   0.47378   0.00000  Uiso   1.00
C444   C     0.46877   0.02231   0.52622   0.00000  Uiso   1.00
H445   H     0.55654   0.29321   0.45487   0.00000  Uiso   1.00
H446   H     0.44346   0.04012   0.54513   0.00000  Uiso   1.00
C447   C     0.49701   0.29075   0.49899   0.00000  Uiso   1.00
C448   C     0.50299   0.04258   0.50101   0.00000  Uiso   1.00
C449   C     0.53213   0.19300   0.36135   0.00000  Uiso   1.00
C450   C     0.46787   0.14034   0.63865   0.00000  Uiso   1.00
H451   H     0.55784   0.21406   0.38272   0.00000  Uiso   1.00
H452   H     0.44216   0.11928   0.61728   0.00000  Uiso   1.00
C453   C     0.53211   0.19299   0.64676   0.00000  Uiso   1.00
C454   C     0.46789   0.14035   0.35324   0.00000  Uiso   1.00
H455   H     0.55780   0.21405   0.63187   0.00000  Uiso   1.00
H456   H     0.44219   0.11929   0.36813   0.00000  Uiso   1.00
N457   N     0.57323   0.04110   0.45145   0.00000  Uiso   1.00
O458   O     0.60183   0.07139   0.47099   0.00000  Uiso   1.00
O459   O     0.58478   0.02560   0.41360   0.00000  Uiso   1.00
N460   N     0.42676   0.29223   0.54855   0.00000  Uiso   1.00
O461   O     0.39816   0.26194   0.52901   0.00000  Uiso   1.00
O462   O     0.41521   0.30774   0.58639   0.00000  Uiso   1.00
O463   O     0.83333   0.10558   0.53821   0.00000  Uiso   1.00
O464   O     0.83334   0.22775   0.46179   0.00000  Uiso   1.00
O465   O     0.83333   0.10559   0.46176   0.00000  Uiso   1.00
O466   O     0.83334   0.22774   0.53824   0.00000  Uiso   1.00
C467   C     0.83493   0.08674   0.50033   0.00000  Uiso   1.00
C468   C     0.83174   0.24659   0.49967   0.00000  Uiso   1.00
O469   O     0.75725   0.16666   0.52928   0.00000  Uiso   1.00
O470   O     0.90942   0.16667   0.47072   0.00000  Uiso   1.00
O471   O     0.75725   0.16667   0.45284   0.00000  Uiso   1.00
O472   O     0.90942   0.16666   0.54716   0.00000  Uiso   1.00
C473   C     0.73371   0.16654   0.48802   0.00000  Uiso   1.00
C474   C     0.93296   0.16679   0.51198   0.00000  Uiso   1.00
Zn475  Zn    0.83333   0.16666   0.55104   0.00000  Uiso   1.00
Zn476  Zn    0.83333   0.16667   0.44896   0.00000  Uiso   1.00
N477   N     0.83332   0.16666   0.61907   0.00000  Uiso   1.00
N478   N     0.83335   0.16668   0.38093   0.00000  Uiso   1.00
C479   C     0.67865   0.16657   0.48159   0.00000  Uiso   1.00
C480   C     0.98802   0.16677   0.51841   0.00000  Uiso   1.00
H481   H     0.99133   0.16645   0.44667   0.00000  Uiso   1.00
H482   H     0.67534   0.16689   0.55333   0.00000  Uiso   1.00
C483   C     0.86853   0.02063   0.47495   0.00000  Uiso   1.00
C484   C     0.79813   0.31270   0.52505   0.00000  Uiso   1.00
C485   C     0.86456   0.31103   0.47378   0.00000  Uiso   1.00
C486   C     0.80211   0.02231   0.52622   0.00000  Uiso   1.00
H487   H     0.88988   0.29321   0.45487   0.00000  Uiso   1.00
H488   H     0.77679   0.04012   0.54513   0.00000  Uiso   1.00
C489   C     0.83034   0.29075   0.49899   0.00000  Uiso   1.00
C490   C     0.83633   0.04258   0.50101   0.00000  Uiso   1.00
C491   C     0.86547   0.19300   0.36135   0.00000  Uiso   1.00
C492   C     0.80120   0.14034   0.63865   0.00000  Uiso   1.00
H493   H     0.89118   0.21406   0.38272   0.00000  Uiso   1.00
H494   H     0.77549   0.11928   0.61728   0.00000  Uiso   1.00
C495   C     0.86544   0.19299   0.64676   0.00000  Uiso   1.00
C496   C     0.80122   0.14035   0.35324   0.00000  Uiso   1.00
H497   H     0.89114   0.21405   0.63187   0.00000  Uiso   1.00
H498   H     0.77553   0.11929   0.36813   0.00000  Uiso   1.00
N499   N     0.90657   0.04110   0.45145   0.00000  Uiso   1.00
O500   O     0.93517   0.07139   0.47099   0.00000  Uiso   1.00
O501   O     0.91812   0.02560   0.41360   0.00000  Uiso   1.00
N502   N     0.76010   0.29223   0.54855   0.00000  Uiso   1.00
O503   O     0.73150   0.26194   0.52901   0.00000  Uiso   1.00
O504   O     0.74855   0.30774   0.58639   0.00000  Uiso   1.00
O505   O     0.16666   0.43892   0.53821   0.00000  Uiso   1.00
O506   O     0.16667   0.56108   0.46179   0.00000  Uiso   1.00
O507   O     0.16666   0.43893   0.46176   0.00000  Uiso   1.00
O508   O     0.16667   0.56107   0.53824   0.00000  Uiso   1.00
C509   C     0.16826   0.42008   0.50033   0.00000  Uiso   1.00
C510   C     0.16507   0.57992   0.49967   0.00000  Uiso   1.00
O511   O     0.09058   0.50000   0.52928   0.00000  Uiso   1.00
O512   O     0.24275   0.50000   0.47072   0.00000  Uiso   1.00
O513   O     0.09058   0.50000   0.45284   0.00000  Uiso   1.00
O514   O     0.24275   0.50000   0.54716   0.00000  Uiso   1.00
C515   C     0.06704   0.49987   0.48802   0.00000  Uiso   1.00
C516   C     0.26629   0.50013   0.51198   0.00000  Uiso   1.00
Zn517  Zn    0.16667   0.49999   0.55104   0.00000  Uiso   1.00
Zn518  Zn    0.16667   0.50001   0.44896   0.00000  Uiso   1.00
N519   N     0.16665   0.49999   0.61907   0.00000  Uiso   1.00
N520   N     0.16668   0.50001   0.38093   0.00000  Uiso   1.00
C521   C     0.01198   0.49990   0.48159   0.00000  Uiso   1.00
C522   C     0.32135   0.50010   0.51841   0.00000  Uiso   1.00
H523   H     0.32466   0.49978   0.44667   0.00000  Uiso   1.00
H524   H     0.00867   0.50022   0.55333   0.00000  Uiso   1.00
C525   C     0.20186   0.35397   0.47495   0.00000  Uiso   1.00
C526   C     0.13147   0.64603   0.52505   0.00000  Uiso   1.00
C527   C     0.19789   0.64436   0.47378   0.00000  Uiso   1.00
C528   C     0.13544   0.35564   0.52622   0.00000  Uiso   1.00
H529   H     0.22321   0.62654   0.45487   0.00000  Uiso   1.00
H530   H     0.11012   0.37346   0.54513   0.00000  Uiso   1.00
C531   C     0.16367   0.62408   0.49899   0.00000  Uiso   1.00
C532   C     0.16966   0.37592   0.50101   0.00000  Uiso   1.00
C533   C     0.19880   0.52633   0.36135   0.00000  Uiso   1.00
C534   C     0.13453   0.47367   0.63865   0.00000  Uiso   1.00
H535   H     0.22451   0.54739   0.38272   0.00000  Uiso   1.00
H536   H     0.10882   0.45261   0.61728   0.00000  Uiso   1.00
C537   C     0.19878   0.52632   0.64676   0.00000  Uiso   1.00
C538   C     0.13456   0.47368   0.35324   0.00000  Uiso   1.00
H539   H     0.22447   0.54738   0.63187   0.00000  Uiso   1.00
H540   H     0.10886   0.45262   0.36813   0.00000  Uiso   1.00
N541   N     0.23990   0.37443   0.45145   0.00000  Uiso   1.00
O542   O     0.26850   0.40472   0.47099   0.00000  Uiso   1.00
O543   O     0.25145   0.35893   0.41360   0.00000  Uiso   1.00
N544   N     0.09343   0.62557   0.54855   0.00000  Uiso   1.00
O545   O     0.06483   0.59528   0.52901   0.00000  Uiso   1.00
O546   O     0.08188   0.64107   0.58639   0.00000  Uiso   1.00
O547   O     0.50000   0.43892   0.53821   0.00000  Uiso   1.00
O548   O     0.50000   0.56108   0.46179   0.00000  Uiso   1.00
O549   O     0.50000   0.43893   0.46176   0.00000  Uiso   1.00
O550   O     0.50000   0.56107   0.53824   0.00000  Uiso   1.00
C551   C     0.50160   0.42008   0.50033   0.00000  Uiso   1.00
C552   C     0.49840   0.57992   0.49967   0.00000  Uiso   1.00
O553   O     0.42392   0.50000   0.52928   0.00000  Uiso   1.00
O554   O     0.57608   0.50000   0.47072   0.00000  Uiso   1.00
O555   O     0.42392   0.50000   0.45284   0.00000  Uiso   1.00
O556   O     0.57608   0.50000   0.54716   0.00000  Uiso   1.00
C557   C     0.40037   0.49987   0.48802   0.00000  Uiso   1.00
C558   C     0.59963   0.50013   0.51198   0.00000  Uiso   1.00
Zn559  Zn    0.50000   0.49999   0.55104   0.00000  Uiso   1.00
Zn560  Zn    0.50000   0.50001   0.44896   0.00000  Uiso   1.00
N561   N     0.49999   0.49999   0.61907   0.00000  Uiso   1.00
N562   N     0.50001   0.50001   0.38093   0.00000  Uiso   1.00
C563   C     0.34532   0.49990   0.48159   0.00000  Uiso   1.00
C564   C     0.65468   0.50010   0.51841   0.00000  Uiso   1.00
H565   H     0.65800   0.49978   0.44667   0.00000  Uiso   1.00
H566   H     0.34200   0.50022   0.55333   0.00000  Uiso   1.00
C567   C     0.53520   0.35397   0.47495   0.00000  Uiso   1.00
C568   C     0.46480   0.64603   0.52505   0.00000  Uiso   1.00
C569   C     0.53123   0.64436   0.47378   0.00000  Uiso   1.00
C570   C     0.46877   0.35564   0.52622   0.00000  Uiso   1.00
H571   H     0.55654   0.62654   0.45487   0.00000  Uiso   1.00
H572   H     0.44346   0.37346   0.54513   0.00000  Uiso   1.00
C573   C     0.49701   0.62408   0.49899   0.00000  Uiso   1.00
C574   C     0.50299   0.37592   0.50101   0.00000  Uiso   1.00
C575   C     0.53213   0.52633   0.36135   0.00000  Uiso   1.00
C576   C     0.46787   0.47367   0.63865   0.00000  Uiso   1.00
H577   H     0.55784   0.54739   0.38272   0.00000  Uiso   1.00
H578   H     0.44216   0.45261   0.61728   0.00000  Uiso   1.00
C579   C     0.53211   0.52632   0.64676   0.00000  Uiso   1.00
C580   C     0.46789   0.47368   0.35324   0.00000  Uiso   1.00
H581   H     0.55780   0.54738   0.63187   0.00000  Uiso   1.00
H582   H     0.44219   0.45262   0.36813   0.00000  Uiso   1.00
N583   N     0.57323   0.37443   0.45145   0.00000  Uiso   1.00
O584   O     0.60183   0.40472   0.47099   0.00000  Uiso   1.00
O585   O     0.58478   0.35893   0.41360   0.00000  Uiso   1.00
N586   N     0.42676   0.62557   0.54855   0.00000  Uiso   1.00
O587   O     0.39816   0.59528   0.52901   0.00000  Uiso   1.00
O588   O     0.41521   0.64107   0.58639   0.00000  Uiso   1.00
O589   O     0.83333   0.43892   0.53821   0.00000  Uiso   1.00
O590   O     0.83334   0.56108   0.46179   0.00000  Uiso   1.00
O591   O     0.83333   0.43893   0.46176   0.00000  Uiso   1.00
O592   O     0.83334   0.56107   0.53824   0.00000  Uiso   1.00
C593   C     0.83493   0.42008   0.50033   0.00000  Uiso   1.00
C594   C     0.83174   0.57992   0.49967   0.00000  Uiso   1.00
O595   O     0.75725   0.50000   0.52928   0.00000  Uiso   1.00
O596   O     0.90942   0.50000   0.47072   0.00000  Uiso   1.00
O597   O     0.75725   0.50000   0.45284   0.00000  Uiso   1.00
O598   O     0.90942   0.50000   0.54716   0.00000  Uiso   1.00
C599   C     0.73371   0.49987   0.48802   0.00000  Uiso   1.00
C600   C     0.93296   0.50013   0.51198   0.00000  Uiso   1.00
Zn601  Zn    0.83333   0.49999   0.55104   0.00000  Uiso   1.00
Zn602  Zn    0.83333   0.50001   0.44896   0.00000  Uiso   1.00
N603   N     0.83332   0.49999   0.61907   0.00000  Uiso   1.00
N604   N     0.83335   0.50001   0.38093   0.00000  Uiso   1.00
C605   C     0.67865   0.49990   0.48159   0.00000  Uiso   1.00
C606   C     0.98802   0.50010   0.51841   0.00000  Uiso   1.00
H607   H     0.99133   0.49978   0.44667   0.00000  Uiso   1.00
H608   H     0.67534   0.50022   0.55333   0.00000  Uiso   1.00
C609   C     0.86853   0.35397   0.47495   0.00000  Uiso   1.00
C610   C     0.79813   0.64603   0.52505   0.00000  Uiso   1.00
C611   C     0.86456   0.64436   0.47378   0.00000  Uiso   1.00
C612   C     0.80211   0.35564   0.52622   0.00000  Uiso   1.00
H613   H     0.88988   0.62654   0.45487   0.00000  Uiso   1.00
H614   H     0.77679   0.37346   0.54513   0.00000  Uiso   1.00
C615   C     0.83034   0.62408   0.49899   0.00000  Uiso   1.00
C616   C     0.83633   0.37592   0.50101   0.00000  Uiso   1.00
C617   C     0.86547   0.52633   0.36135   0.00000  Uiso   1.00
C618   C     0.80120   0.47367   0.63865   0.00000  Uiso   1.00
H619   H     0.89118   0.54739   0.38272   0.00000  Uiso   1.00
H620   H     0.77549   0.45261   0.61728   0.00000  Uiso   1.00
C621   C     0.86544   0.52632   0.64676   0.00000  Uiso   1.00
C622   C     0.80122   0.47368   0.35324   0.00000  Uiso   1.00
H623   H     0.89114   0.54738   0.63187   0.00000  Uiso   1.00
H624   H     0.77553   0.45262   0.36813   0.00000  Uiso   1.00
N625   N     0.90657   0.37443   0.45145   0.00000  Uiso   1.00
O626   O     0.93517   0.40472   0.47099   0.00000  Uiso   1.00
O627   O     0.91812   0.35893   0.41360   0.00000  Uiso   1.00
N628   N     0.76010   0.62557   0.54855   0.00000  Uiso   1.00
O629   O     0.73150   0.59528   0.52901   0.00000  Uiso   1.00
O630   O     0.74855   0.64107   0.58639   0.00000  Uiso   1.00
O631   O     0.16666   0.77225   0.53821   0.00000  Uiso   1.00
O632   O     0.16667   0.89442   0.46179   0.00000  Uiso   1.00
O633   O     0.16666   0.77226   0.46176   0.00000  Uiso   1.00
O634   O     0.16667   0.89441   0.53824   0.00000  Uiso   1.00
C635   C     0.16826   0.75341   0.50033   0.00000  Uiso   1.00
C636   C     0.16507   0.91326   0.49967   0.00000  Uiso   1.00
O637   O     0.09058   0.83333   0.52928   0.00000  Uiso   1.00
O638   O     0.24275   0.83334   0.47072   0.00000  Uiso   1.00
O639   O     0.09058   0.83334   0.45284   0.00000  Uiso   1.00
O640   O     0.24275   0.83333   0.54716   0.00000  Uiso   1.00
C641   C     0.06704   0.83321   0.48802   0.00000  Uiso   1.00
C642   C     0.26629   0.83346   0.51198   0.00000  Uiso   1.00
Zn643  Zn    0.16667   0.83333   0.55104   0.00000  Uiso   1.00
Zn644  Zn    0.16667   0.83334   0.44896   0.00000  Uiso   1.00
N645   N     0.16665   0.83332   0.61907   0.00000  Uiso   1.00
N646   N     0.16668   0.83334   0.38093   0.00000  Uiso   1.00
C647   C     0.01198   0.83323   0.48159   0.00000  Uiso   1.00
C648   C     0.32135   0.83343   0.51841   0.00000  Uiso   1.00
H649   H     0.32466   0.83311   0.44667   0.00000  Uiso   1.00
H650   H     0.00867   0.83355   0.55333   0.00000  Uiso   1.00
C651   C     0.20186   0.68730   0.47495   0.00000  Uiso   1.00
C652   C     0.13147   0.97937   0.52505   0.00000  Uiso   1.00
C653   C     0.19789   0.97769   0.47378   0.00000  Uiso   1.00
C654   C     0.13544   0.68897   0.52622   0.00000  Uiso   1.00
H655   H     0.22321   0.95988   0.45487   0.00000  Uiso   1.00
H656   H     0.11012   0.70679   0.54513   0.00000  Uiso   1.00
C657   C     0.16367   0.95742   0.49899   0.00000  Uiso   1.00
C658   C     0.16966   0.70925   0.50101   0.00000  Uiso   1.00
C659   C     0.19880   0.85966   0.36135   0.00000  Uiso   1.00
C660   C     0.13453   0.80700   0.63865   0.00000  Uiso   1.00
H661   H     0.22451   0.88072   0.38272   0.00000  Uiso   1.00
H662   H     0.10882   0.78594   0.61728   0.00000  Uiso   1.00
C663   C     0.19878   0.85965   0.64676   0.00000  Uiso   1.00
C664   C     0.13456   0.80701   0.35324   0.00000  Uiso   1.00
H665   H     0.22447   0.88071   0.63187   0.00000  Uiso   1.00
H666   H     0.10886   0.78595   0.36813   0.00000  Uiso   1.00
N667   N     0.23990   0.70777   0.45145   0.00000  Uiso   1.00
O668   O     0.26850   0.73805   0.47099   0.00000  Uiso   1.00
O669   O     0.25145   0.69227   0.41360   0.00000  Uiso   1.00
N670   N     0.09343   0.95890   0.54855   0.00000  Uiso   1.00
O671   O     0.06483   0.92861   0.52901   0.00000  Uiso   1.00
O672   O     0.08188   0.97440   0.58639   0.00000  Uiso   1.00
O673   O     0.50000   0.77225   0.53821   0.00000  Uiso   1.00
O674   O     0.50000   0.89442   0.46179   0.00000  Uiso   1.00
O675   O     0.50000   0.77226   0.46176   0.00000  Uiso   1.00
O676   O     0.50000   0.89441   0.53824   0.00000  Uiso   1.00
C677   C     0.50160   0.75341   0.50033   0.00000  Uiso   1.00
C678   C     0.49840   0.91326   0.49967   0.00000  Uiso   1.00
O679   O     0.42392   0.83333   0.52928   0.00000  Uiso   1.00
O680   O     0.57608   0.83334   0.47072   0.00000  Uiso   1.00
O681   O     0.42392   0.83334   0.45284   0.00000  Uiso   1.00
O682   O     0.57608   0.83333   0.54716   0.00000  Uiso   1.00
C683   C     0.40037   0.83321   0.48802   0.00000  Uiso   1.00
C684   C     0.59963   0.83346   0.51198   0.00000  Uiso   1.00
Zn685  Zn    0.50000   0.83333   0.55104   0.00000  Uiso   1.00
Zn686  Zn    0.50000   0.83334   0.44896   0.00000  Uiso   1.00
N687   N     0.49999   0.83332   0.61907   0.00000  Uiso   1.00
N688   N     0.50001   0.83334   0.38093   0.00000  Uiso   1.00
C689   C     0.34532   0.83323   0.48159   0.00000  Uiso   1.00
C690   C     0.65468   0.83343   0.51841   0.00000  Uiso   1.00
H691   H     0.65800   0.83311   0.44667   0.00000  Uiso   1.00
H692   H     0.34200   0.83355   0.55333   0.00000  Uiso   1.00
C693   C     0.53520   0.68730   0.47495   0.00000  Uiso   1.00
C694   C     0.46480   0.97937   0.52505   0.00000  Uiso   1.00
C695   C     0.53123   0.97769   0.47378   0.00000  Uiso   1.00
C696   C     0.46877   0.68897   0.52622   0.00000  Uiso   1.00
H697   H     0.55654   0.95988   0.45487   0.00000  Uiso   1.00
H698   H     0.44346   0.70679   0.54513   0.00000  Uiso   1.00
C699   C     0.49701   0.95742   0.49899   0.00000  Uiso   1.00
C700   C     0.50299   0.70925   0.50101   0.00000  Uiso   1.00
C701   C     0.53213   0.85966   0.36135   0.00000  Uiso   1.00
C702   C     0.46787   0.80700   0.63865   0.00000  Uiso   1.00
H703   H     0.55784   0.88072   0.38272   0.00000  Uiso   1.00
H704   H     0.44216   0.78594   0.61728   0.00000  Uiso   1.00
C705   C     0.53211   0.85965   0.64676   0.00000  Uiso   1.00
C706   C     0.46789   0.80701   0.35324   0.00000  Uiso   1.00
H707   H     0.55780   0.88071   0.63187   0.00000  Uiso   1.00
H708   H     0.44219   0.78595   0.36813   0.00000  Uiso   1.00
N709   N     0.57323   0.70777   0.45145   0.00000  Uiso   1.00
O710   O     0.60183   0.73805   0.47099   0.00000  Uiso   1.00
O711   O     0.58478   0.69227   0.41360   0.00000  Uiso   1.00
N712   N     0.42676   0.95890   0.54855   0.00000  Uiso   1.00
O713   O     0.39816   0.92861   0.52901   0.00000  Uiso   1.00
O714   O     0.41521   0.97440   0.58639   0.00000  Uiso   1.00
O715   O     0.83333   0.77225   0.53821   0.00000  Uiso   1.00
O716   O     0.83334   0.89442   0.46179   0.00000  Uiso   1.00
O717   O     0.83333   0.77226   0.46176   0.00000  Uiso   1.00
O718   O     0.83334   0.89441   0.53824   0.00000  Uiso   1.00
C719   C     0.83493   0.75341   0.50033   0.00000  Uiso   1.00
C720   C     0.83174   0.91326   0.49967   0.00000  Uiso   1.00
O721   O     0.75725   0.83333   0.52928   0.00000  Uiso   1.00
O722   O     0.90942   0.83334   0.47072   0.00000  Uiso   1.00
O723   O     0.75725   0.83334   0.45284   0.00000  Uiso   1.00
O724   O     0.90942   0.83333   0.54716   0.00000  Uiso   1.00
C725   C     0.73371   0.83321   0.48802   0.00000  Uiso   1.00
C726   C     0.93296   0.83346   0.51198   0.00000  Uiso   1.00
Zn727  Zn    0.83333   0.83333   0.55104   0.00000  Uiso   1.00
Zn728  Zn    0.83333   0.83334   0.44896   0.00000  Uiso   1.00
N729   N     0.83332   0.83332   0.61907   0.00000  Uiso   1.00
N730   N     0.83335   0.83334   0.38093   0.00000  Uiso   1.00
C731   C     0.67865   0.83323   0.48159   0.00000  Uiso   1.00
C732   C     0.98802   0.83343   0.51841   0.00000  Uiso   1.00
H733   H     0.99133   0.83311   0.44667   0.00000  Uiso   1.00
H734   H     0.67534   0.83355   0.55333   0.00000  Uiso   1.00
C735   C     0.86853   0.68730   0.47495   0.00000  Uiso   1.00
C736   C     0.79813   0.97937   0.52505   0.00000  Uiso   1.00
C737   C     0.86456   0.97769   0.47378   0.00000  Uiso   1.00
C738   C     0.80211   0.68897   0.52622   0.00000  Uiso   1.00
H739   H     0.88988   0.95988   0.45487   0.00000  Uiso   1.00
H740   H     0.77679   0.70679   0.54513   0.00000  Uiso   1.00
C741   C     0.83034   0.95742   0.49899   0.00000  Uiso   1.00
C742   C     0.83633   0.70925   0.50101   0.00000  Uiso   1.00
C743   C     0.86547   0.85966   0.36135   0.00000  Uiso   1.00
C744   C     0.80120   0.80700   0.63865   0.00000  Uiso   1.00
H745   H     0.89118   0.88072   0.38272   0.00000  Uiso   1.00
H746   H     0.77549   0.78594   0.61728   0.00000  Uiso   1.00
C747   C     0.86544   0.85965   0.64676   0.00000  Uiso   1.00
C748   C     0.80122   0.80701   0.35324   0.00000  Uiso   1.00
H749   H     0.89114   0.88071   0.63187   0.00000  Uiso   1.00
H750   H     0.77553   0.78595   0.36813   0.00000  Uiso   1.00
N751   N     0.90657   0.70777   0.45145   0.00000  Uiso   1.00
O752   O     0.93517   0.73805   0.47099   0.00000  Uiso   1.00
O753   O     0.91812   0.69227   0.41360   0.00000  Uiso   1.00
N754   N     0.76010   0.95890   0.54855   0.00000  Uiso   1.00
O755   O     0.73150   0.92861   0.52901   0.00000  Uiso   1.00
O756   O     0.74855   0.97440   0.58639   0.00000  Uiso   1.00
O757   O     0.16666   0.10558   0.87154   0.00000  Uiso   1.00
O758   O     0.16667   0.22775   0.79513   0.00000  Uiso   1.00
O759   O     0.16666   0.10559   0.79510   0.00000  Uiso   1.00
O760   O     0.16667   0.22774   0.87157   0.00000  Uiso   1.00
C761   C     0.16826   0.08674   0.83366   0.00000  Uiso   1.00
C762   C     0.16507   0.24659   0.83300   0.00000  Uiso   1.00
O763   O     0.09058   0.16666   0.86261   0.00000  Uiso   1.00
O764   O     0.24275   0.16667   0.80405   0.00000  Uiso   1.00
O765   O     0.09058   0.16667   0.78617   0.00000  Uiso   1.00
O766   O     0.24275   0.16666   0.88050   0.00000  Uiso   1.00
C767   C     0.06704   0.16654   0.82136   0.00000  Uiso   1.00
C768   C     0.26629   0.16679   0.84531   0.00000  Uiso   1.00
Zn769  Zn    0.16667   0.16666   0.88437   0.00000  Uiso   1.00
Zn770  Zn    0.16667   0.16667   0.78229   0.00000  Uiso   1.00
N771   N     0.16665   0.16666   0.95240   0.00000  Uiso   1.00
N772   N     0.16668   0.16668   0.71427   0.00000  Uiso   1.00
C773   C     0.01198   0.16657   0.81492   0.00000  Uiso   1.00
C774   C     0.32135   0.16677   0.85174   0.00000  Uiso   1.00
H775   H     0.32466   0.16645   0.78000   0.00000  Uiso   1.00
H776   H     0.00867   0.16689   0.88666   0.00000  Uiso   1.00
C777   C     0.20186   0.02063   0.80828   0.00000  Uiso   1.00
C778   C     0.13147   0.31270   0.85839   0.00000  Uiso   1.00
C779   C     0.19789   0.31103   0.80712   0.00000  Uiso   1.00
C780   C     0.13544   0.02231   0.85955   0.00000  Uiso   1.00
H781   H     0.22321   0.29321   0.78820   0.00000  Uiso   1.00
H782   H     0.11012   0.04012   0.87847   0.00000  Uiso   1.00
C783   C     0.16367   0.29075   0.83232   0.00000  Uiso   1.00
C784   C     0.16966   0.04258   0.83434   0.00000  Uiso   1.00
C785   C     0.19880   0.19300   0.69469   0.00000  Uiso   1.00
C786   C     0.13453   0.14034   0.97198   0.00000  Uiso   1.00
H787   H     0.22451   0.21406   0.71606   0.00000  Uiso   1.00
H788   H     0.10882   0.11928   0.95061   0.00000  Uiso   1.00
C789   C     0.19878   0.19299   0.98009   0.00000  Uiso   1.00
C790   C     0.13456   0.14035   0.68658   0.00000  Uiso   1.00
H791   H     0.22447   0.21405   0.96520   0.00000  Uiso   1.00
H792   H     0.10886   0.11929   0.70146   0.00000  Uiso   1.00
N793   N     0.23990   0.04110   0.78479   0.00000  Uiso   1.00
O794   O     0.26850   0.07139   0.80433   0.00000  Uiso   1.00
O795   O     0.25145   0.02560   0.74694   0.00000  Uiso   1.00
N796   N     0.09343   0.29223   0.88188   0.00000  Uiso   1.00
O797   O     0.06483   0.26194   0.86234   0.00000  Uiso   1.00
O798   O     0.08188   0.30774   0.91973   0.00000  Uiso   1.00
O799   O     0.50000   0.10558   0.87154   0.00000  Uiso   1.00
O800   O     0.50000   0.22775   0.79513   0.00000  Uiso   1.00
O801   O     0.50000   0.10559   0.79510   0.00000  Uiso   1.00
O802   O     0.50000   0.22774   0.87157   0.00000  Uiso   1.00
C803   C     0.50160   0.08674   0.83366   0.00000  Uiso   1.00
C804   C     0.49840   0.24659   0.83300   0.00000  Uiso   1.00
O805   O     0.42392   0.16666   0.86261   0.00000  Uiso   1.00
O806   O     0.57608   0.16667   0.80405   0.00000  Uiso   1.00
O807   O     0.42392   0.16667   0.78617   0.00000  Uiso   1.00
O808   O     0.57608   0.16666   0.88050   0.00000  Uiso   1.00
C809   C     0.40037   0.16654   0.82136   0.00000  Uiso   1.00
C810   C     0.59963   0.16679   0.84531   0.00000  Uiso   1.00
Zn811  Zn    0.50000   0.16666   0.88437   0.00000  Uiso   1.00
Zn812  Zn    0.50000   0.16667   0.78229   0.00000  Uiso   1.00
N813   N     0.49999   0.16666   0.95240   0.00000  Uiso   1.00
N814   N     0.50001   0.16668   0.71427   0.00000  Uiso   1.00
C815   C     0.34532   0.16657   0.81492   0.00000  Uiso   1.00
C816   C     0.65468   0.16677   0.85174   0.00000  Uiso   1.00
H817   H     0.65800   0.16645   0.78000   0.00000  Uiso   1.00
H818   H     0.34200   0.16689   0.88666   0.00000  Uiso   1.00
C819   C     0.53520   0.02063   0.80828   0.00000  Uiso   1.00
C820   C     0.46480   0.31270   0.85839   0.00000  Uiso   1.00
C821   C     0.53123   0.31103   0.80712   0.00000  Uiso   1.00
C822   C     0.46877   0.02231   0.85955   0.00000  Uiso   1.00
H823   H     0.55654   0.29321   0.78820   0.00000  Uiso   1.00
H824   H     0.44346   0.04012   0.87847   0.00000  Uiso   1.00
C825   C     0.49701   0.29075   0.83232   0.00000  Uiso   1.00
C826   C     0.50299   0.04258   0.83434   0.00000  Uiso   1.00
C827   C     0.53213   0.19300   0.69469   0.00000  Uiso   1.00
C828   C     0.46787   0.14034   0.97198   0.00000  Uiso   1.00
H829   H     0.55784   0.21406   0.71606   0.00000  Uiso   1.00
H830   H     0.44216   0.11928   0.95061   0.00000  Uiso   1.00
C831   C     0.53211   0.19299   0.98009   0.00000  Uiso   1.00
C832   C     0.46789   0.14035   0.68658   0.00000  Uiso   1.00
H833   H     0.55780   0.21405   0.96520   0.00000  Uiso   1.00
H834   H     0.44219   0.11929   0.70146   0.00000  Uiso   1.00
N835   N     0.57323   0.04110   0.78479   0.00000  Uiso   1.00
O836   O     0.60183   0.07139   0.80433   0.00000  Uiso   1.00
O837   O     0.58478   0.02560   0.74694   0.00000  Uiso   1.00
N838   N     0.42676   0.29223   0.88188   0.00000  Uiso   1.00
O839   O     0.39816   0.26194   0.86234   0.00000  Uiso   1.00
O840   O     0.41521   0.30774   0.91973   0.00000  Uiso   1.00
O841   O     0.83333   0.10558   0.87154   0.00000  Uiso   1.00
O842   O     0.83334   0.22775   0.79513   0.00000  Uiso   1.00
O843   O     0.83333   0.10559   0.79510   0.00000  Uiso   1.00
O844   O     0.83334   0.22774   0.87157   0.00000  Uiso   1.00
C845   C     0.83493   0.08674   0.83366   0.00000  Uiso   1.00
C846   C     0.83174   0.24659   0.83300   0.00000  Uiso   1.00
O847   O     0.75725   0.16666   0.86261   0.00000  Uiso   1.00
O848   O     0.90942   0.16667   0.80405   0.00000  Uiso   1.00
O849   O     0.75725   0.16667   0.78617   0.00000  Uiso   1.00
O850   O     0.90942   0.16666   0.88050   0.00000  Uiso   1.00
C851   C     0.73371   0.16654   0.82136   0.00000  Uiso   1.00
C852   C     0.93296   0.16679   0.84531   0.00000  Uiso   1.00
Zn853  Zn    0.83333   0.16666   0.88437   0.00000  Uiso   1.00
Zn854  Zn    0.83333   0.16667   0.78229   0.00000  Uiso   1.00
N855   N     0.83332   0.16666   0.95240   0.00000  Uiso   1.00
N856   N     0.83335   0.16668   0.71427   0.00000  Uiso   1.00
C857   C     0.67865   0.16657   0.81492   0.00000  Uiso   1.00
C858   C     0.98802   0.16677   0.85174   0.00000  Uiso   1.00
H859   H     0.99133   0.16645   0.78000   0.00000  Uiso   1.00
H860   H     0.67534   0.16689   0.88666   0.00000  Uiso   1.00
C861   C     0.86853   0.02063   0.80828   0.00000  Uiso   1.00
C862   C     0.79813   0.31270   0.85839   0.00000  Uiso   1.00
C863   C     0.86456   0.31103   0.80712   0.00000  Uiso   1.00
C864   C     0.80211   0.02231   0.85955   0.00000  Uiso   1.00
H865   H     0.88988   0.29321   0.78820   0.00000  Uiso   1.00
H866   H     0.77679   0.04012   0.87847   0.00000  Uiso   1.00
C867   C     0.83034   0.29075   0.83232   0.00000  Uiso   1.00
C868   C     0.83633   0.04258   0.83434   0.00000  Uiso   1.00
C869   C     0.86547   0.19300   0.69469   0.00000  Uiso   1.00
C870   C     0.80120   0.14034   0.97198   0.00000  Uiso   1.00
H871   H     0.89118   0.21406   0.71606   0.00000  Uiso   1.00
H872   H     0.77549   0.11928   0.95061   0.00000  Uiso   1.00
C873   C     0.86544   0.19299   0.98009   0.00000  Uiso   1.00
C874   C     0.80122   0.14035   0.68658   0.00000  Uiso   1.00
H875   H     0.89114   0.21405   0.96520   0.00000  Uiso   1.00
H876   H     0.77553   0.11929   0.70146   0.00000  Uiso   1.00
N877   N     0.90657   0.04110   0.78479   0.00000  Uiso   1.00
O878   O     0.93517   0.07139   0.80433   0.00000  Uiso   1.00
O879   O     0.91812   0.02560   0.74694   0.00000  Uiso   1.00
N880   N     0.76010   0.29223   0.88188   0.00000  Uiso   1.00
O881   O     0.73150   0.26194   0.86234   0.00000  Uiso   1.00
O882   O     0.74855   0.30774   0.91973   0.00000  Uiso   1.00
O883   O     0.16666   0.43892   0.87154   0.00000  Uiso   1.00
O884   O     0.16667   0.56108   0.79513   0.00000  Uiso   1.00
O885   O     0.16666   0.43893   0.79510   0.00000  Uiso   1.00
O886   O     0.16667   0.56107   0.87157   0.00000  Uiso   1.00
C887   C     0.16826   0.42008   0.83366   0.00000  Uiso   1.00
C888   C     0.16507   0.57992   0.83300   0.00000  Uiso   1.00
O889   O     0.09058   0.50000   0.86261   0.00000  Uiso   1.00
O890   O     0.24275   0.50000   0.80405   0.00000  Uiso   1.00
O891   O     0.09058   0.50000   0.78617   0.00000  Uiso   1.00
O892   O     0.24275   0.50000   0.88050   0.00000  Uiso   1.00
C893   C     0.06704   0.49987   0.82136   0.00000  Uiso   1.00
C894   C     0.26629   0.50013   0.84531   0.00000  Uiso   1.00
Zn895  Zn    0.16667   0.49999   0.88437   0.00000  Uiso   1.00
Zn896  Zn    0.16667   0.50001   0.78229   0.00000  Uiso   1.00
N897   N     0.16665   0.49999   0.95240   0.00000  Uiso   1.00
N898   N     0.16668   0.50001   0.71427   0.00000  Uiso   1.00
C899   C     0.01198   0.49990   0.81492   0.00000  Uiso   1.00
C900   C     0.32135   0.50010   0.85174   0.00000  Uiso   1.00
H901   H     0.32466   0.49978   0.78000   0.00000  Uiso   1.00
H902   H     0.00867   0.50022   0.88666   0.00000  Uiso   1.00
C903   C     0.20186   0.35397   0.80828   0.00000  Uiso   1.00
C904   C     0.13147   0.64603   0.85839   0.00000  Uiso   1.00
C905   C     0.19789   0.64436   0.80712   0.00000  Uiso   1.00
C906   C     0.13544   0.35564   0.85955   0.00000  Uiso   1.00
H907   H     0.22321   0.62654   0.78820   0.00000  Uiso   1.00
H908   H     0.11012   0.37346   0.87847   0.00000  Uiso   1.00
C909   C     0.16367   0.62408   0.83232   0.00000  Uiso   1.00
C910   C     0.16966   0.37592   0.83434   0.00000  Uiso   1.00
C911   C     0.19880   0.52633   0.69469   0.00000  Uiso   1.00
C912   C     0.13453   0.47367   0.97198   0.00000  Uiso   1.00
H913   H     0.22451   0.54739   0.71606   0.00000  Uiso   1.00
H914   H     0.10882   0.45261   0.95061   0.00000  Uiso   1.00
C915   C     0.19878   0.52632   0.98009   0.00000  Uiso   1.00
C916   C     0.13456   0.47368   0.68658   0.00000  Uiso   1.00
H917   H     0.22447   0.54738   0.96520   0.00000  Uiso   1.00
H918   H     0.10886   0.45262   0.70146   0.00000  Uiso   1.00
N919   N     0.23990   0.37443   0.78479   0.00000  Uiso   1.00
O920   O     0.26850   0.40472   0.80433   0.00000  Uiso   1.00
O921   O     0.25145   0.35893   0.74694   0.00000  Uiso   1.00
N922   N     0.09343   0.62557   0.88188   0.00000  Uiso   1.00
O923   O     0.06483   0.59528   0.86234   0.00000  Uiso   1.00
O924   O     0.08188   0.64107   0.91973   0.00000  Uiso   1.00
O925   O     0.50000   0.43892   0.87154   0.00000  Uiso   1.00
O926   O     0.50000   0.56108   0.79513   0.00000  Uiso   1.00
O927   O     0.50000   0.43893   0.79510   0.00000  Uiso   1.00
O928   O     0.50000   0.56107   0.87157   0.00000  Uiso   1.00
C929   C     0.50160   0.42008   0.83366   0.00000  Uiso   1.00
C930   C     0.49840   0.57992   0.83300   0.00000  Uiso   1.00
O931   O     0.42392   0.50000   0.86261   0.00000  Uiso   1.00
O932   O     0.57608   0.50000   0.80405   0.00000  Uiso   1.00
O933   O     0.42392   0.50000   0.78617   0.00000  Uiso   1.00
O934   O     0.57608   0.50000   0.88050   0.00000  Uiso   1.00
C935   C     0.40037   0.49987   0.82136   0.00000  Uiso   1.00
C936   C     0.59963   0.50013   0.84531   0.00000  Uiso   1.00
Zn937  Zn    0.50000   0.49999   0.88437   0.00000  Uiso   1.00
Zn938  Zn    0.50000   0.50001   0.78229   0.00000  Uiso   1.00
N939   N     0.49999   0.49999   0.95240   0.00000  Uiso   1.00
N940   N     0.50001   0.50001   0.71427   0.00000  Uiso   1.00
C941   C     0.34532   0.49990   0.81492   0.00000  Uiso   1.00
C942   C     0.65468   0.50010   0.85174   0.00000  Uiso   1.00
H943   H     0.65800   0.49978   0.78000   0.00000  Uiso   1.00
H944   H     0.34200   0.50022   0.88666   0.00000  Uiso   1.00
C945   C     0.53520   0.35397   0.80828   0.00000  Uiso   1.00
C946   C     0.46480   0.64603   0.85839   0.00000  Uiso   1.00
C947   C     0.53123   0.64436   0.80712   0.00000  Uiso   1.00
C948   C     0.46877   0.35564   0.85955   0.00000  Uiso   1.00
H949   H     0.55654   0.62654   0.78820   0.00000  Uiso   1.00
H950   H     0.44346   0.37346   0.87847   0.00000  Uiso   1.00
C951   C     0.49701   0.62408   0.83232   0.00000  Uiso   1.00
C952   C     0.50299   0.37592   0.83434   0.00000  Uiso   1.00
C953   C     0.53213   0.52633   0.69469   0.00000  Uiso   1.00
C954   C     0.46787   0.47367   0.97198   0.00000  Uiso   1.00
H955   H     0.55784   0.54739   0.71606   0.00000  Uiso   1.00
H956   H     0.44216   0.45261   0.95061   0.00000  Uiso   1.00
C957   C     0.53211   0.52632   0.98009   0.00000  Uiso   1.00
C958   C     0.46789   0.47368   0.68658   0.00000  Uiso   1.00
H959   H     0.55780   0.54738   0.96520   0.00000  Uiso   1.00
H960   H     0.44219   0.45262   0.70146   0.00000  Uiso   1.00
N961   N     0.57323   0.37443   0.78479   0.00000  Uiso   1.00
O962   O     0.60183   0.40472   0.80433   0.00000  Uiso   1.00
O963   O     0.58478   0.35893   0.74694   0.00000  Uiso   1.00
N964   N     0.42676   0.62557   0.88188   0.00000  Uiso   1.00
O965   O     0.39816   0.59528   0.86234   0.00000  Uiso   1.00
O966   O     0.41521   0.64107   0.91973   0.00000  Uiso   1.00
O967   O     0.83333   0.43892   0.87154   0.00000  Uiso   1.00
O968   O     0.83334   0.56108   0.79513   0.00000  Uiso   1.00
O969   O     0.83333   0.43893   0.79510   0.00000  Uiso   1.00
O970   O     0.83334   0.56107   0.87157   0.00000  Uiso   1.00
C971   C     0.83493   0.42008   0.83366   0.00000  Uiso   1.00
C972   C     0.83174   0.57992   0.83300   0.00000  Uiso   1.00
O973   O     0.75725   0.50000   0.86261   0.00000  Uiso   1.00
O974   O     0.90942   0.50000   0.80405   0.00000  Uiso   1.00
O975   O     0.75725   0.50000   0.78617   0.00000  Uiso   1.00
O976   O     0.90942   0.50000   0.88050   0.00000  Uiso   1.00
C977   C     0.73371   0.49987   0.82136   0.00000  Uiso   1.00
C978   C     0.93296   0.50013   0.84531   0.00000  Uiso   1.00
Zn979  Zn    0.83333   0.49999   0.88437   0.00000  Uiso   1.00
Zn980  Zn    0.83333   0.50001   0.78229   0.00000  Uiso   1.00
N981   N     0.83332   0.49999   0.95240   0.00000  Uiso   1.00
N982   N     0.83335   0.50001   0.71427   0.00000  Uiso   1.00
C983   C     0.67865   0.49990   0.81492   0.00000  Uiso   1.00
C984   C     0.98802   0.50010   0.85174   0.00000  Uiso   1.00
H985   H     0.99133   0.49978   0.78000   0.00000  Uiso   1.00
H986   H     0.67534   0.50022   0.88666   0.00000  Uiso   1.00
C987   C     0.86853   0.35397   0.80828   0.00000  Uiso   1.00
C988   C     0.79813   0.64603   0.85839   0.00000  Uiso   1.00
C989   C     0.86456   0.64436   0.80712   0.00000  Uiso   1.00
C990   C     0.80211   0.35564   0.85955   0.00000  Uiso   1.00
H991   H     0.88988   0.62654   0.78820   0.00000  Uiso   1.00
H992   H     0.77679   0.37346   0.87847   0.00000  Uiso   1.00
C993   C     0.83034   0.62408   0.83232   0.00000  Uiso   1.00
C994   C     0.83633   0.37592   0.83434   0.00000  Uiso   1.00
C995   C     0.86547   0.52633   0.69469   0.00000  Uiso   1.00
C996   C     0.80120   0.47367   0.97198   0.00000  Uiso   1.00
H997   H     0.89118   0.54739   0.71606   0.00000  Uiso   1.00
H998   H     0.77549   0.45261   0.95061   0.00000  Uiso   1.00
C999   C     0.86544   0.52632   0.98009   0.00000  Uiso   1.00
C1000  C     0.80122   0.47368   0.68658   0.00000  Uiso   1.00
H1001  H     0.89114   0.54738   0.96520   0.00000  Uiso   1.00
H1002  H     0.77553   0.45262   0.70146   0.00000  Uiso   1.00
N1003  N     0.90657   0.37443   0.78479   0.00000  Uiso   1.00
O1004  O     0.93517   0.40472   0.80433   0.00000  Uiso   1.00
O1005  O     0.91812   0.35893   0.74694   0.00000  Uiso   1.00
N1006  N     0.76010   0.62557   0.88188   0.00000  Uiso   1.00
O1007  O     0.73150   0.59528   0.86234   0.00000  Uiso   1.00
O1008  O     0.74855   0.64107   0.91973   0.00000  Uiso   1.00
O1009  O     0.16666   0.77225   0.87154   0.00000  Uiso   1.00
O1010  O     0.16667   0.89442   0.79513   0.00000  Uiso   1.00
O1011  O     0.16666   0.77226   0.79510   0.00000  Uiso   1.00
O1012  O     0.16667   0.89441   0.87157   0.00000  Uiso   1.00
C1013  C     0.16826   0.75341   0.83366   0.00000  Uiso   1.00
C1014  C     0.16507   0.91326   0.83300   0.00000  Uiso   1.00
O1015  O     0.09058   0.83333   0.86261   0.00000  Uiso   1.00
O1016  O     0.24275   0.83334   0.80405   0.00000  Uiso   1.00
O1017  O     0.09058   0.83334   0.78617   0.00000  Uiso   1.00
O1018  O     0.24275   0.83333   0.88050   0.00000  Uiso   1.00
C1019  C     0.06704   0.83321   0.82136   0.00000  Uiso   1.00
C1020  C     0.26629   0.83346   0.84531   0.00000  Uiso   1.00
Zn1021 Zn    0.16667   0.83333   0.88437   0.00000  Uiso   1.00
Zn1022 Zn    0.16667   0.83334   0.78229   0.00000  Uiso   1.00
N1023  N     0.16665   0.83332   0.95240   0.00000  Uiso   1.00
N1024  N     0.16668   0.83334   0.71427   0.00000  Uiso   1.00
C1025  C     0.01198   0.83323   0.81492   0.00000  Uiso   1.00
C1026  C     0.32135   0.83343   0.85174   0.00000  Uiso   1.00
H1027  H     0.32466   0.83311   0.78000   0.00000  Uiso   1.00
H1028  H     0.00867   0.83355   0.88666   0.00000  Uiso   1.00
C1029  C     0.20186   0.68730   0.80828   0.00000  Uiso   1.00
C1030  C     0.13147   0.97937   0.85839   0.00000  Uiso   1.00
C1031  C     0.19789   0.97769   0.80712   0.00000  Uiso   1.00
C1032  C     0.13544   0.68897   0.85955   0.00000  Uiso   1.00
H1033  H     0.22321   0.95988   0.78820   0.00000  Uiso   1.00
H1034  H     0.11012   0.70679   0.87847   0.00000  Uiso   1.00
C1035  C     0.16367   0.95742   0.83232   0.00000  Uiso   1.00
C1036  C     0.16966   0.70925   0.83434   0.00000  Uiso   1.00
C1037  C     0.19880   0.85966   0.69469   0.00000  Uiso   1.00
C1038  C     0.13453   0.80700   0.97198   0.00000  Uiso   1.00
H1039  H     0.22451   0.88072   0.71606   0.00000  Uiso   1.00
H1040  H     0.10882   0.78594   0.95061   0.00000  Uiso   1.00
C1041  C     0.19878   0.85965   0.98009   0.00000  Uiso   1.00
C1042  C     0.13456   0.80701   0.68658   0.00000  Uiso   1.00
H1043  H     0.22447   0.88071   0.96520   0.00000  Uiso   1.00
H1044  H     0.10886   0.78595   0.70146   0.00000  Uiso   1.00
N1045  N     0.23990   0.70777   0.78479   0.00000  Uiso   1.00
O1046  O     0.26850   0.73805   0.80433   0.00000  Uiso   1.00
O1047  O     0.25145   0.69227   0.74694   0.00000  Uiso   1.00
N1048  N     0.09343   0.95890   0.88188   0.00000  Uiso   1.00
O1049  O     0.06483   0.92861   0.86234   0.00000  Uiso   1.00
O1050  O     0.08188   0.97440   0.91973   0.00000  Uiso   1.00
O1051  O     0.50000   0.77225   0.87154   0.00000  Uiso   1.00
O1052  O     0.50000   0.89442   0.79513   0.00000  Uiso   1.00
O1053  O     0.50000   0.77226   0.79510   0.00000  Uiso   1.00
O1054  O     0.50000   0.89441   0.87157   0.00000  Uiso   1.00
C1055  C     0.50160   0.75341   0.83366   0.00000  Uiso   1.00
C1056  C     0.49840   0.91326   0.83300   0.00000  Uiso   1.00
O1057  O     0.42392   0.83333   0.86261   0.00000  Uiso   1.00
O1058  O     0.57608   0.83334   0.80405   0.00000  Uiso   1.00
O1059  O     0.42392   0.83334   0.78617   0.00000  Uiso   1.00
O1060  O     0.57608   0.83333   0.88050   0.00000  Uiso   1.00
C1061  C     0.40037   0.83321   0.82136   0.00000  Uiso   1.00
C1062  C     0.59963   0.83346   0.84531   0.00000  Uiso   1.00
Zn1063 Zn    0.50000   0.83333   0.88437   0.00000  Uiso   1.00
Zn1064 Zn    0.50000   0.83334   0.78229   0.00000  Uiso   1.00
N1065  N     0.49999   0.83332   0.95240   0.00000  Uiso   1.00
N1066  N     0.50001   0.83334   0.71427   0.00000  Uiso   1.00
C1067  C     0.34532   0.83323   0.81492   0.00000  Uiso   1.00
C1068  C     0.65468   0.83343   0.85174   0.00000  Uiso   1.00
H1069  H     0.65800   0.83311   0.78000   0.00000  Uiso   1.00
H1070  H     0.34200   0.83355   0.88666   0.00000  Uiso   1.00
C1071  C     0.53520   0.68730   0.80828   0.00000  Uiso   1.00
C1072  C     0.46480   0.97937   0.85839   0.00000  Uiso   1.00
C1073  C     0.53123   0.97769   0.80712   0.00000  Uiso   1.00
C1074  C     0.46877   0.68897   0.85955   0.00000  Uiso   1.00
H1075  H     0.55654   0.95988   0.78820   0.00000  Uiso   1.00
H1076  H     0.44346   0.70679   0.87847   0.00000  Uiso   1.00
C1077  C     0.49701   0.95742   0.83232   0.00000  Uiso   1.00
C1078  C     0.50299   0.70925   0.83434   0.00000  Uiso   1.00
C1079  C     0.53213   0.85966   0.69469   0.00000  Uiso   1.00
C1080  C     0.46787   0.80700   0.97198   0.00000  Uiso   1.00
H1081  H     0.55784   0.88072   0.71606   0.00000  Uiso   1.00
H1082  H     0.44216   0.78594   0.95061   0.00000  Uiso   1.00
C1083  C     0.53211   0.85965   0.98009   0.00000  Uiso   1.00
C1084  C     0.46789   0.80701   0.68658   0.00000  Uiso   1.00
H1085  H     0.55780   0.88071   0.96520   0.00000  Uiso   1.00
H1086  H     0.44219   0.78595   0.70146   0.00000  Uiso   1.00
N1087  N     0.57323   0.70777   0.78479   0.00000  Uiso   1.00
O1088  O     0.60183   0.73805   0.80433   0.00000  Uiso   1.00
O1089  O     0.58478   0.69227   0.74694   0.00000  Uiso   1.00
N1090  N     0.42676   0.95890   0.88188   0.00000  Uiso   1.00
O1091  O     0.39816   0.92861   0.86234   0.00000  Uiso   1.00
O1092  O     0.41521   0.97440   0.91973   0.00000  Uiso   1.00
O1093  O     0.83333   0.77225   0.87154   0.00000  Uiso   1.00
O1094  O     0.83334   0.89442   0.79513   0.00000  Uiso   1.00
O1095  O     0.83333   0.77226   0.79510   0.00000  Uiso   1.00
O1096  O     0.83334   0.89441   0.87157   0.00000  Uiso   1.00
C1097  C     0.83493   0.75341   0.83366   0.00000  Uiso   1.00
C1098  C     0.83174   0.91326   0.83300   0.00000  Uiso   1.00
O1099  O     0.75725   0.83333   0.86261   0.00000  Uiso   1.00
O1100  O     0.90942   0.83334   0.80405   0.00000  Uiso   1.00
O1101  O     0.75725   0.83334   0.78617   0.00000  Uiso   1.00
O1102  O     0.90942   0.83333   0.88050   0.00000  Uiso   1.00
C1103  C     0.73371   0.83321   0.82136   0.00000  Uiso   1.00
C1104  C     0.93296   0.83346   0.84531   0.00000  Uiso   1.00
Zn1105 Zn    0.83333   0.83333   0.88437   0.00000  Uiso   1.00
Zn1106 Zn    0.83333   0.83334   0.78229   0.00000  Uiso   1.00
N1107  N     0.83332   0.83332   0.95240   0.00000  Uiso   1.00
N1108  N     0.83335   0.83334   0.71427   0.00000  Uiso   1.00
C1109  C     0.67865   0.83323   0.81492   0.00000  Uiso   1.00
C1110  C     0.98802   0.83343   0.85174   0.00000  Uiso   1.00
H1111  H     0.99133   0.83311   0.78000   0.00000  Uiso   1.00
H1112  H     0.67534   0.83355   0.88666   0.00000  Uiso   1.00
C1113  C     0.86853   0.68730   0.80828   0.00000  Uiso   1.00
C1114  C     0.79813   0.97937   0.85839   0.00000  Uiso   1.00
C1115  C     0.86456   0.97769   0.80712   0.00000  Uiso   1.00
C1116  C     0.80211   0.68897   0.85955   0.00000  Uiso   1.00
H1117  H     0.88988   0.95988   0.78820   0.00000  Uiso   1.00
H1118  H     0.77679   0.70679   0.87847   0.00000  Uiso   1.00
C1119  C     0.83034   0.95742   0.83232   0.00000  Uiso   1.00
C1120  C     0.83633   0.70925   0.83434   0.00000  Uiso   1.00
C1121  C     0.86547   0.85966   0.69469   0.00000  Uiso   1.00
C1122  C     0.80120   0.80700   0.97198   0.00000  Uiso   1.00
H1123  H     0.89118   0.88072   0.71606   0.00000  Uiso   1.00
H1124  H     0.77549   0.78594   0.95061   0.00000  Uiso   1.00
C1125  C     0.86544   0.85965   0.98009   0.00000  Uiso   1.00
C1126  C     0.80122   0.80701   0.68658   0.00000  Uiso   1.00
H1127  H     0.89114   0.88071   0.96520   0.00000  Uiso   1.00
H1128  H     0.77553   0.78595   0.70146   0.00000  Uiso   1.00
N1129  N     0.90657   0.70777   0.78479   0.00000  Uiso   1.00
O1130  O     0.93517   0.73805   0.80433   0.00000  Uiso   1.00
O1131  O     0.91812   0.69227   0.74694   0.00000  Uiso   1.00
N1132  N     0.76010   0.95890   0.88188   0.00000  Uiso   1.00
O1133  O     0.73150   0.92861   0.86234   0.00000  Uiso   1.00
O1134  O     0.74855   0.97440   0.91973   0.00000  Uiso   1.00
loop_
_geom_bond_atom_site_label_1
_geom_bond_atom_site_label_2
_geom_bond_distance
_geom_bond_site_symmetry_2
_ccdc_geom_bond_type
O1     C5      1.281   .     A
O1     Zn13    1.992   .     S
O2     C6      1.281   .     A
O2     Zn14    1.992   .     S
O3     Zn14    1.988   .     S
O3     C5      1.282   .     A
O4     C6      1.282   .     A
O4     Zn13    1.988   .     S
C5     C28     1.413   .     S
C6     C27     1.413   .     S
O7     C11     1.278   .     A
O7     Zn13    1.969   .     S
O8     C12     1.278   .     A
O8     Zn14    1.969   .     S
O9     Zn14    1.981   .     S
O9     C11     1.281   .     A
O10    C12     1.281   .     A
O10    Zn13    1.981   .     S
C11    C17     1.403   .     S
C12    C18     1.403   .     S
Zn13   N15     2.012   .     S
Zn14   N16     2.012   .     S
N15    C30     1.367   .     A
N15    C33     1.367   .     A
N16    C34     1.367   .     A
N16    C29     1.367   .     A
C17    C102    1.330   1_455 S
C17    H103    1.088   1_455 S
C18    C59     1.330   .     S
C18    H62     1.088   .     S
H19    C59     1.088   .     S
H20    C102    1.088   1_455 S
C21    C28     1.405   .     A
C21    N37     1.439   .     S
C21    C275    1.378   1_545 S
C22    N40     1.439   .     S
C22    C27     1.405   .     A
C22    C150    1.378   .     S
C23    C27     1.395   .     A
C23    H25     1.085   .     S
C23    C147    1.378   .     S
C24    H26     1.085   .     S
C24    C28     1.395   .     A
C24    C274    1.378   1_545 S
C29    H31     1.082   .     S
C29    C789    1.417   1_554 S
C30    H32     1.082   .     S
C30    C412    1.417   .     S
C33    H35     1.082   .     S
C33    C407    1.417   .     S
C34    H36     1.082   .     S
C34    C786    1.417   1_554 S
N37    O38     1.301   .     A
N37    O39     1.301   .     A
N40    O42     1.301   .     A
N40    O41     1.301   .     A
O43    C47     1.281   .     A
O43    Zn55    1.992   .     S
O44    C48     1.281   .     A
O44    Zn56    1.992   .     S
O45    Zn56    1.988   .     S
O45    C47     1.282   .     A
O46    C48     1.282   .     A
O46    Zn55    1.988   .     S
C47    C70     1.413   .     S
C48    C69     1.413   .     S
O49    C53     1.278   .     A
O49    Zn55    1.969   .     S
O50    C54     1.278   .     A
O50    Zn56    1.969   .     S
O51    Zn56    1.981   .     S
O51    C53     1.281   .     A
O52    C54     1.281   .     A
O52    Zn55    1.981   .     S
C53    C59     1.403   .     S
C54    C60     1.403   .     S
Zn55   N57     2.012   .     S
Zn56   N58     2.012   .     S
N57    C72     1.367   .     A
N57    C75     1.367   .     A
N58    C76     1.367   .     A
N58    C71     1.367   .     A
C60    C101    1.330   .     S
C60    H104    1.088   .     S
H61    C101    1.088   .     S
C63    C70     1.405   .     A
C63    N79     1.439   .     S
C63    C317    1.378   1_545 S
C64    N82     1.439   .     S
C64    C69     1.405   .     A
C64    C192    1.378   .     S
C65    C69     1.395   .     A
C65    H67     1.085   .     S
C65    C189    1.378   .     S
C66    H68     1.085   .     S
C66    C70     1.395   .     A
C66    C316    1.378   1_545 S
C71    H73     1.082   .     S
C71    C831    1.417   1_554 S
C72    H74     1.082   .     S
C72    C454    1.417   .     S
C75    H77     1.082   .     S
C75    C449    1.417   .     S
C76    H78     1.082   .     S
C76    C828    1.417   1_554 S
N79    O80     1.301   .     A
N79    O81     1.301   .     A
N82    O84     1.301   .     A
N82    O83     1.301   .     A
O85    C89     1.281   .     A
O85    Zn97    1.992   .     S
O86    C90     1.281   .     A
O86    Zn98    1.992   .     S
O87    Zn98    1.988   .     S
O87    C89     1.282   .     A
O88    C90     1.282   .     A
O88    Zn97    1.988   .     S
C89    C112    1.413   .     S
C90    C111    1.413   .     S
O91    C95     1.278   .     A
O91    Zn97    1.969   .     S
O92    C96     1.278   .     A
O92    Zn98    1.969   .     S
O93    Zn98    1.981   .     S
O93    C95     1.281   .     A
O94    C96     1.281   .     A
O94    Zn97    1.981   .     S
C95    C101    1.403   .     S
C96    C102    1.403   .     S
Zn97   N99     2.012   .     S
Zn98   N100    2.012   .     S
N99    C114    1.367   .     A
N99    C117    1.367   .     A
N100   C118    1.367   .     A
N100   C113    1.367   .     A
C102   C17     1.330   1_655 S
C102   H20     1.088   1_655 S
H103   C17     1.088   1_655 S
C105   C112    1.405   .     A
C105   N121    1.439   .     S
C105   C359    1.378   1_545 S
C106   N124    1.439   .     S
C106   C111    1.405   .     A
C106   C234    1.378   .     S
C107   C111    1.395   .     A
C107   H109    1.085   .     S
C107   C231    1.378   .     S
C108   H110    1.085   .     S
C108   C112    1.395   .     A
C108   C358    1.378   1_545 S
C113   H115    1.082   .     S
C113   C873    1.417   1_554 S
C114   H116    1.082   .     S
C114   C496    1.417   .     S
C117   H119    1.082   .     S
C117   C491    1.417   .     S
C118   H120    1.082   .     S
C118   C870    1.417   1_554 S
N121   O122    1.301   .     A
N121   O123    1.301   .     A
N124   O126    1.301   .     A
N124   O125    1.301   .     A
O127   C131    1.281   .     A
O127   Zn139   1.992   .     S
O128   C132    1.281   .     A
O128   Zn140   1.992   .     S
O129   Zn140   1.988   .     S
O129   C131    1.282   .     A
O130   C132    1.282   .     A
O130   Zn139   1.988   .     S
C131   C154    1.413   .     S
C132   C153    1.413   .     S
O133   C137    1.278   .     A
O133   Zn139   1.969   .     S
O134   C138    1.278   .     A
O134   Zn140   1.969   .     S
O135   Zn140   1.981   .     S
O135   C137    1.281   .     A
O136   C138    1.281   .     A
O136   Zn139   1.981   .     S
C137   C143    1.403   .     S
C138   C144    1.403   .     S
Zn139  N141    2.012   .     S
Zn140  N142    2.012   .     S
N141   C156    1.367   .     A
N141   C159    1.367   .     A
N142   C160    1.367   .     A
N142   C155    1.367   .     A
C143   C228    1.330   1_455 S
C143   H229    1.088   1_455 S
C144   C185    1.330   .     S
C144   H188    1.088   .     S
H145   C185    1.088   .     S
H146   C228    1.088   1_455 S
C147   C154    1.405   .     A
C147   N163    1.439   .     S
C148   N166    1.439   .     S
C148   C153    1.405   .     A
C148   C276    1.378   .     S
C149   C153    1.395   .     A
C149   H151    1.085   .     S
C149   C273    1.378   .     S
C150   H152    1.085   .     S
C150   C154    1.395   .     A
C155   H157    1.082   .     S
C155   C915    1.417   1_554 S
C156   H158    1.082   .     S
C156   C538    1.417   .     S
C159   H161    1.082   .     S
C159   C533    1.417   .     S
C160   H162    1.082   .     S
C160   C912    1.417   1_554 S
N163   O164    1.301   .     A
N163   O165    1.301   .     A
N166   O168    1.301   .     A
N166   O167    1.301   .     A
O169   C173    1.281   .     A
O169   Zn181   1.992   .     S
O170   C174    1.281   .     A
O170   Zn182   1.992   .     S
O171   Zn182   1.988   .     S
O171   C173    1.282   .     A
O172   C174    1.282   .     A
O172   Zn181   1.988   .     S
C173   C196    1.413   .     S
C174   C195    1.413   .     S
O175   C179    1.278   .     A
O175   Zn181   1.969   .     S
O176   C180    1.278   .     A
O176   Zn182   1.969   .     S
O177   Zn182   1.981   .     S
O177   C179    1.281   .     A
O178   C180    1.281   .     A
O178   Zn181   1.981   .     S
C179   C185    1.403   .     S
C180   C186    1.403   .     S
Zn181  N183    2.012   .     S
Zn182  N184    2.012   .     S
N183   C198    1.367   .     A
N183   C201    1.367   .     A
N184   C202    1.367   .     A
N184   C197    1.367   .     A
C186   C227    1.330   .     S
C186   H230    1.088   .     S
H187   C227    1.088   .     S
C189   C196    1.405   .     A
C189   N205    1.439   .     S
C190   N208    1.439   .     S
C190   C195    1.405   .     A
C190   C318    1.378   .     S
C191   C195    1.395   .     A
C191   H193    1.085   .     S
C191   C315    1.378   .     S
C192   H194    1.085   .     S
C192   C196    1.395   .     A
C197   H199    1.082   .     S
C197   C957    1.417   1_554 S
C198   H200    1.082   .     S
C198   C580    1.417   .     S
C201   H203    1.082   .     S
C201   C575    1.417   .     S
C202   H204    1.082   .     S
C202   C954    1.417   1_554 S
N205   O206    1.301   .     A
N205   O207    1.301   .     A
N208   O210    1.301   .     A
N208   O209    1.301   .     A
O211   C215    1.281   .     A
O211   Zn223   1.992   .     S
O212   C216    1.281   .     A
O212   Zn224   1.992   .     S
O213   Zn224   1.988   .     S
O213   C215    1.282   .     A
O214   C216    1.282   .     A
O214   Zn223   1.988   .     S
C215   C238    1.413   .     S
C216   C237    1.413   .     S
O217   C221    1.278   .     A
O217   Zn223   1.969   .     S
O218   C222    1.278   .     A
O218   Zn224   1.969   .     S
O219   Zn224   1.981   .     S
O219   C221    1.281   .     A
O220   C222    1.281   .     A
O220   Zn223   1.981   .     S
C221   C227    1.403   .     S
C222   C228    1.403   .     S
Zn223  N225    2.012   .     S
Zn224  N226    2.012   .     S
N225   C240    1.367   .     A
N225   C243    1.367   .     A
N226   C244    1.367   .     A
N226   C239    1.367   .     A
C228   C143    1.330   1_655 S
C228   H146    1.088   1_655 S
H229   C143    1.088   1_655 S
C231   C238    1.405   .     A
C231   N247    1.439   .     S
C232   N250    1.439   .     S
C232   C237    1.405   .     A
C232   C360    1.378   .     S
C233   C237    1.395   .     A
C233   H235    1.085   .     S
C233   C357    1.378   .     S
C234   H236    1.085   .     S
C234   C238    1.395   .     A
C239   H241    1.082   .     S
C239   C999    1.417   1_554 S
C240   H242    1.082   .     S
C240   C622    1.417   .     S
C243   H245    1.082   .     S
C243   C617    1.417   .     S
C244   H246    1.082   .     S
C244   C996    1.417   1_554 S
N247   O248    1.301   .     A
N247   O249    1.301   .     A
N250   O252    1.301   .     A
N250   O251    1.301   .     A
O253   C257    1.281   .     A
O253   Zn265   1.992   .     S
O254   C258    1.281   .     A
O254   Zn266   1.992   .     S
O255   Zn266   1.988   .     S
O255   C257    1.282   .     A
O256   C258    1.282   .     A
O256   Zn265   1.988   .     S
C257   C280    1.413   .     S
C258   C279    1.413   .     S
O259   C263    1.278   .     A
O259   Zn265   1.969   .     S
O260   C264    1.278   .     A
O260   Zn266   1.969   .     S
O261   Zn266   1.981   .     S
O261   C263    1.281   .     A
O262   C264    1.281   .     A
O262   Zn265   1.981   .     S
C263   C269    1.403   .     S
C264   C270    1.403   .     S
Zn265  N267    2.012   .     S
Zn266  N268    2.012   .     S
N267   C282    1.367   .     A
N267   C285    1.367   .     A
N268   C286    1.367   .     A
N268   C281    1.367   .     A
C269   C354    1.330   1_455 S
C269   H355    1.088   1_455 S
C270   C311    1.330   .     S
C270   H314    1.088   .     S
H271   C311    1.088   .     S
H272   C354    1.088   1_455 S
C273   C280    1.405   .     A
C273   N289    1.439   .     S
C274   N292    1.439   .     S
C274   C279    1.405   .     A
C274   C24     1.378   1_565 S
C275   C279    1.395   .     A
C275   H277    1.085   .     S
C275   C21     1.378   1_565 S
C276   H278    1.085   .     S
C276   C280    1.395   .     A
C281   H283    1.082   .     S
C281   C1041   1.417   1_554 S
C282   H284    1.082   .     S
C282   C664    1.417   .     S
C285   H287    1.082   .     S
C285   C659    1.417   .     S
C286   H288    1.082   .     S
C286   C1038   1.417   1_554 S
N289   O290    1.301   .     A
N289   O291    1.301   .     A
N292   O294    1.301   .     A
N292   O293    1.301   .     A
O295   C299    1.281   .     A
O295   Zn307   1.992   .     S
O296   C300    1.281   .     A
O296   Zn308   1.992   .     S
O297   Zn308   1.988   .     S
O297   C299    1.282   .     A
O298   C300    1.282   .     A
O298   Zn307   1.988   .     S
C299   C322    1.413   .     S
C300   C321    1.413   .     S
O301   C305    1.278   .     A
O301   Zn307   1.969   .     S
O302   C306    1.278   .     A
O302   Zn308   1.969   .     S
O303   Zn308   1.981   .     S
O303   C305    1.281   .     A
O304   C306    1.281   .     A
O304   Zn307   1.981   .     S
C305   C311    1.403   .     S
C306   C312    1.403   .     S
Zn307  N309    2.012   .     S
Zn308  N310    2.012   .     S
N309   C324    1.367   .     A
N309   C327    1.367   .     A
N310   C328    1.367   .     A
N310   C323    1.367   .     A
C312   C353    1.330   .     S
C312   H356    1.088   .     S
H313   C353    1.088   .     S
C315   C322    1.405   .     A
C315   N331    1.439   .     S
C316   N334    1.439   .     S
C316   C321    1.405   .     A
C316   C66     1.378   1_565 S
C317   C321    1.395   .     A
C317   H319    1.085   .     S
C317   C63     1.378   1_565 S
C318   H320    1.085   .     S
C318   C322    1.395   .     A
C323   H325    1.082   .     S
C323   C1083   1.417   1_554 S
C324   H326    1.082   .     S
C324   C706    1.417   .     S
C327   H329    1.082   .     S
C327   C701    1.417   .     S
C328   H330    1.082   .     S
C328   C1080   1.417   1_554 S
N331   O332    1.301   .     A
N331   O333    1.301   .     A
N334   O336    1.301   .     A
N334   O335    1.301   .     A
O337   C341    1.281   .     A
O337   Zn349   1.992   .     S
O338   C342    1.281   .     A
O338   Zn350   1.992   .     S
O339   Zn350   1.988   .     S
O339   C341    1.282   .     A
O340   C342    1.282   .     A
O340   Zn349   1.988   .     S
C341   C364    1.413   .     S
C342   C363    1.413   .     S
O343   C347    1.278   .     A
O343   Zn349   1.969   .     S
O344   C348    1.278   .     A
O344   Zn350   1.969   .     S
O345   Zn350   1.981   .     S
O345   C347    1.281   .     A
O346   C348    1.281   .     A
O346   Zn349   1.981   .     S
C347   C353    1.403   .     S
C348   C354    1.403   .     S
Zn349  N351    2.012   .     S
Zn350  N352    2.012   .     S
N351   C366    1.367   .     A
N351   C369    1.367   .     A
N352   C370    1.367   .     A
N352   C365    1.367   .     A
C354   C269    1.330   1_655 S
C354   H272    1.088   1_655 S
H355   C269    1.088   1_655 S
C357   C364    1.405   .     A
C357   N373    1.439   .     S
C358   N376    1.439   .     S
C358   C363    1.405   .     A
C358   C108    1.378   1_565 S
C359   C363    1.395   .     A
C359   H361    1.085   .     S
C359   C105    1.378   1_565 S
C360   H362    1.085   .     S
C360   C364    1.395   .     A
C365   H367    1.082   .     S
C365   C1125   1.417   1_554 S
C366   H368    1.082   .     S
C366   C748    1.417   .     S
C369   H371    1.082   .     S
C369   C743    1.417   .     S
C370   H372    1.082   .     S
C370   C1122   1.417   1_554 S
N373   O374    1.301   .     A
N373   O375    1.301   .     A
N376   O378    1.301   .     A
N376   O377    1.301   .     A
O379   C383    1.281   .     A
O379   Zn391   1.992   .     S
O380   C384    1.281   .     A
O380   Zn392   1.992   .     S
O381   Zn392   1.988   .     S
O381   C383    1.282   .     A
O382   C384    1.282   .     A
O382   Zn391   1.988   .     S
C383   C406    1.413   .     S
C384   C405    1.413   .     S
O385   C389    1.278   .     A
O385   Zn391   1.969   .     S
O386   C390    1.278   .     A
O386   Zn392   1.969   .     S
O387   Zn392   1.981   .     S
O387   C389    1.281   .     A
O388   C390    1.281   .     A
O388   Zn391   1.981   .     S
C389   C395    1.403   .     S
C390   C396    1.403   .     S
Zn391  N393    2.012   .     S
Zn392  N394    2.012   .     S
N393   C408    1.367   .     A
N393   C411    1.367   .     A
N394   C412    1.367   .     A
N394   C407    1.367   .     A
C395   C480    1.330   1_455 S
C395   H481    1.088   1_455 S
C396   C437    1.330   .     S
C396   H440    1.088   .     S
H397   C437    1.088   .     S
H398   C480    1.088   1_455 S
C399   C406    1.405   .     A
C399   N415    1.439   .     S
C399   C653    1.378   1_545 S
C400   N418    1.439   .     S
C400   C405    1.405   .     A
C400   C528    1.378   .     S
C401   C405    1.395   .     A
C401   H403    1.085   .     S
C401   C525    1.378   .     S
C402   H404    1.085   .     S
C402   C406    1.395   .     A
C402   C652    1.378   1_545 S
C407   H409    1.082   .     S
C408   H410    1.082   .     S
C408   C790    1.417   .     S
C411   H413    1.082   .     S
C411   C785    1.417   .     S
C412   H414    1.082   .     S
N415   O416    1.301   .     A
N415   O417    1.301   .     A
N418   O420    1.301   .     A
N418   O419    1.301   .     A
O421   C425    1.281   .     A
O421   Zn433   1.992   .     S
O422   C426    1.281   .     A
O422   Zn434   1.992   .     S
O423   Zn434   1.988   .     S
O423   C425    1.282   .     A
O424   C426    1.282   .     A
O424   Zn433   1.988   .     S
C425   C448    1.413   .     S
C426   C447    1.413   .     S
O427   C431    1.278   .     A
O427   Zn433   1.969   .     S
O428   C432    1.278   .     A
O428   Zn434   1.969   .     S
O429   Zn434   1.981   .     S
O429   C431    1.281   .     A
O430   C432    1.281   .     A
O430   Zn433   1.981   .     S
C431   C437    1.403   .     S
C432   C438    1.403   .     S
Zn433  N435    2.012   .     S
Zn434  N436    2.012   .     S
N435   C450    1.367   .     A
N435   C453    1.367   .     A
N436   C454    1.367   .     A
N436   C449    1.367   .     A
C438   C479    1.330   .     S
C438   H482    1.088   .     S
H439   C479    1.088   .     S
C441   C448    1.405   .     A
C441   N457    1.439   .     S
C441   C695    1.378   1_545 S
C442   N460    1.439   .     S
C442   C447    1.405   .     A
C442   C570    1.378   .     S
C443   C447    1.395   .     A
C443   H445    1.085   .     S
C443   C567    1.378   .     S
C444   H446    1.085   .     S
C444   C448    1.395   .     A
C444   C694    1.378   1_545 S
C449   H451    1.082   .     S
C450   H452    1.082   .     S
C450   C832    1.417   .     S
C453   H455    1.082   .     S
C453   C827    1.417   .     S
C454   H456    1.082   .     S
N457   O458    1.301   .     A
N457   O459    1.301   .     A
N460   O462    1.301   .     A
N460   O461    1.301   .     A
O463   C467    1.281   .     A
O463   Zn475   1.992   .     S
O464   C468    1.281   .     A
O464   Zn476   1.992   .     S
O465   Zn476   1.988   .     S
O465   C467    1.282   .     A
O466   C468    1.282   .     A
O466   Zn475   1.988   .     S
C467   C490    1.413   .     S
C468   C489    1.413   .     S
O469   C473    1.278   .     A
O469   Zn475   1.969   .     S
O470   C474    1.278   .     A
O470   Zn476   1.969   .     S
O471   Zn476   1.981   .     S
O471   C473    1.281   .     A
O472   C474    1.281   .     A
O472   Zn475   1.981   .     S
C473   C479    1.403   .     S
C474   C480    1.403   .     S
Zn475  N477    2.012   .     S
Zn476  N478    2.012   .     S
N477   C492    1.367   .     A
N477   C495    1.367   .     A
N478   C496    1.367   .     A
N478   C491    1.367   .     A
C480   C395    1.330   1_655 S
C480   H398    1.088   1_655 S
H481   C395    1.088   1_655 S
C483   C490    1.405   .     A
C483   N499    1.439   .     S
C483   C737    1.378   1_545 S
C484   N502    1.439   .     S
C484   C489    1.405   .     A
C484   C612    1.378   .     S
C485   C489    1.395   .     A
C485   H487    1.085   .     S
C485   C609    1.378   .     S
C486   H488    1.085   .     S
C486   C490    1.395   .     A
C486   C736    1.378   1_545 S
C491   H493    1.082   .     S
C492   H494    1.082   .     S
C492   C874    1.417   .     S
C495   H497    1.082   .     S
C495   C869    1.417   .     S
C496   H498    1.082   .     S
N499   O500    1.301   .     A
N499   O501    1.301   .     A
N502   O504    1.301   .     A
N502   O503    1.301   .     A
O505   C509    1.281   .     A
O505   Zn517   1.992   .     S
O506   C510    1.281   .     A
O506   Zn518   1.992   .     S
O507   Zn518   1.988   .     S
O507   C509    1.282   .     A
O508   C510    1.282   .     A
O508   Zn517   1.988   .     S
C509   C532    1.413   .     S
C510   C531    1.413   .     S
O511   C515    1.278   .     A
O511   Zn517   1.969   .     S
O512   C516    1.278   .     A
O512   Zn518   1.969   .     S
O513   Zn518   1.981   .     S
O513   C515    1.281   .     A
O514   C516    1.281   .     A
O514   Zn517   1.981   .     S
C515   C521    1.403   .     S
C516   C522    1.403   .     S
Zn517  N519    2.012   .     S
Zn518  N520    2.012   .     S
N519   C534    1.367   .     A
N519   C537    1.367   .     A
N520   C538    1.367   .     A
N520   C533    1.367   .     A
C521   C606    1.330   1_455 S
C521   H607    1.088   1_455 S
C522   C563    1.330   .     S
C522   H566    1.088   .     S
H523   C563    1.088   .     S
H524   C606    1.088   1_455 S
C525   C532    1.405   .     A
C525   N541    1.439   .     S
C526   N544    1.439   .     S
C526   C531    1.405   .     A
C526   C654    1.378   .     S
C527   C531    1.395   .     A
C527   H529    1.085   .     S
C527   C651    1.378   .     S
C528   H530    1.085   .     S
C528   C532    1.395   .     A
C533   H535    1.082   .     S
C534   H536    1.082   .     S
C534   C916    1.417   .     S
C537   H539    1.082   .     S
C537   C911    1.417   .     S
C538   H540    1.082   .     S
N541   O542    1.301   .     A
N541   O543    1.301   .     A
N544   O546    1.301   .     A
N544   O545    1.301   .     A
O547   C551    1.281   .     A
O547   Zn559   1.992   .     S
O548   C552    1.281   .     A
O548   Zn560   1.992   .     S
O549   Zn560   1.988   .     S
O549   C551    1.282   .     A
O550   C552    1.282   .     A
O550   Zn559   1.988   .     S
C551   C574    1.413   .     S
C552   C573    1.413   .     S
O553   C557    1.278   .     A
O553   Zn559   1.969   .     S
O554   C558    1.278   .     A
O554   Zn560   1.969   .     S
O555   Zn560   1.981   .     S
O555   C557    1.281   .     A
O556   C558    1.281   .     A
O556   Zn559   1.981   .     S
C557   C563    1.403   .     S
C558   C564    1.403   .     S
Zn559  N561    2.012   .     S
Zn560  N562    2.012   .     S
N561   C576    1.367   .     A
N561   C579    1.367   .     A
N562   C580    1.367   .     A
N562   C575    1.367   .     A
C564   C605    1.330   .     S
C564   H608    1.088   .     S
H565   C605    1.088   .     S
C567   C574    1.405   .     A
C567   N583    1.439   .     S
C568   N586    1.439   .     S
C568   C573    1.405   .     A
C568   C696    1.378   .     S
C569   C573    1.395   .     A
C569   H571    1.085   .     S
C569   C693    1.378   .     S
C570   H572    1.085   .     S
C570   C574    1.395   .     A
C575   H577    1.082   .     S
C576   H578    1.082   .     S
C576   C958    1.417   .     S
C579   H581    1.082   .     S
C579   C953    1.417   .     S
C580   H582    1.082   .     S
N583   O584    1.301   .     A
N583   O585    1.301   .     A
N586   O588    1.301   .     A
N586   O587    1.301   .     A
O589   C593    1.281   .     A
O589   Zn601   1.992   .     S
O590   C594    1.281   .     A
O590   Zn602   1.992   .     S
O591   Zn602   1.988   .     S
O591   C593    1.282   .     A
O592   C594    1.282   .     A
O592   Zn601   1.988   .     S
C593   C616    1.413   .     S
C594   C615    1.413   .     S
O595   C599    1.278   .     A
O595   Zn601   1.969   .     S
O596   C600    1.278   .     A
O596   Zn602   1.969   .     S
O597   Zn602   1.981   .     S
O597   C599    1.281   .     A
O598   C600    1.281   .     A
O598   Zn601   1.981   .     S
C599   C605    1.403   .     S
C600   C606    1.403   .     S
Zn601  N603    2.012   .     S
Zn602  N604    2.012   .     S
N603   C618    1.367   .     A
N603   C621    1.367   .     A
N604   C622    1.367   .     A
N604   C617    1.367   .     A
C606   C521    1.330   1_655 S
C606   H524    1.088   1_655 S
H607   C521    1.088   1_655 S
C609   C616    1.405   .     A
C609   N625    1.439   .     S
C610   N628    1.439   .     S
C610   C615    1.405   .     A
C610   C738    1.378   .     S
C611   C615    1.395   .     A
C611   H613    1.085   .     S
C611   C735    1.378   .     S
C612   H614    1.085   .     S
C612   C616    1.395   .     A
C617   H619    1.082   .     S
C618   H620    1.082   .     S
C618   C1000   1.417   .     S
C621   H623    1.082   .     S
C621   C995    1.417   .     S
C622   H624    1.082   .     S
N625   O626    1.301   .     A
N625   O627    1.301   .     A
N628   O630    1.301   .     A
N628   O629    1.301   .     A
O631   C635    1.281   .     A
O631   Zn643   1.992   .     S
O632   C636    1.281   .     A
O632   Zn644   1.992   .     S
O633   Zn644   1.988   .     S
O633   C635    1.282   .     A
O634   C636    1.282   .     A
O634   Zn643   1.988   .     S
C635   C658    1.413   .     S
C636   C657    1.413   .     S
O637   C641    1.278   .     A
O637   Zn643   1.969   .     S
O638   C642    1.278   .     A
O638   Zn644   1.969   .     S
O639   Zn644   1.981   .     S
O639   C641    1.281   .     A
O640   C642    1.281   .     A
O640   Zn643   1.981   .     S
C641   C647    1.403   .     S
C642   C648    1.403   .     S
Zn643  N645    2.012   .     S
Zn644  N646    2.012   .     S
N645   C660    1.367   .     A
N645   C663    1.367   .     A
N646   C664    1.367   .     A
N646   C659    1.367   .     A
C647   C732    1.330   1_455 S
C647   H733    1.088   1_455 S
C648   C689    1.330   .     S
C648   H692    1.088   .     S
H649   C689    1.088   .     S
H650   C732    1.088   1_455 S
C651   C658    1.405   .     A
C651   N667    1.439   .     S
C652   N670    1.439   .     S
C652   C657    1.405   .     A
C652   C402    1.378   1_565 S
C653   C657    1.395   .     A
C653   H655    1.085   .     S
C653   C399    1.378   1_565 S
C654   H656    1.085   .     S
C654   C658    1.395   .     A
C659   H661    1.082   .     S
C660   H662    1.082   .     S
C660   C1042   1.417   .     S
C663   H665    1.082   .     S
C663   C1037   1.417   .     S
C664   H666    1.082   .     S
N667   O668    1.301   .     A
N667   O669    1.301   .     A
N670   O672    1.301   .     A
N670   O671    1.301   .     A
O673   C677    1.281   .     A
O673   Zn685   1.992   .     S
O674   C678    1.281   .     A
O674   Zn686   1.992   .     S
O675   Zn686   1.988   .     S
O675   C677    1.282   .     A
O676   C678    1.282   .     A
O676   Zn685   1.988   .     S
C677   C700    1.413   .     S
C678   C699    1.413   .     S
O679   C683    1.278   .     A
O679   Zn685   1.969   .     S
O680   C684    1.278   .     A
O680   Zn686   1.969   .     S
O681   Zn686   1.981   .     S
O681   C683    1.281   .     A
O682   C684    1.281   .     A
O682   Zn685   1.981   .     S
C683   C689    1.403   .     S
C684   C690    1.403   .     S
Zn685  N687    2.012   .     S
Zn686  N688    2.012   .     S
N687   C702    1.367   .     A
N687   C705    1.367   .     A
N688   C706    1.367   .     A
N688   C701    1.367   .     A
C690   C731    1.330   .     S
C690   H734    1.088   .     S
H691   C731    1.088   .     S
C693   C700    1.405   .     A
C693   N709    1.439   .     S
C694   N712    1.439   .     S
C694   C699    1.405   .     A
C694   C444    1.378   1_565 S
C695   C699    1.395   .     A
C695   H697    1.085   .     S
C695   C441    1.378   1_565 S
C696   H698    1.085   .     S
C696   C700    1.395   .     A
C701   H703    1.082   .     S
C702   H704    1.082   .     S
C702   C1084   1.417   .     S
C705   H707    1.082   .     S
C705   C1079   1.417   .     S
C706   H708    1.082   .     S
N709   O710    1.301   .     A
N709   O711    1.301   .     A
N712   O714    1.301   .     A
N712   O713    1.301   .     A
O715   C719    1.281   .     A
O715   Zn727   1.992   .     S
O716   C720    1.281   .     A
O716   Zn728   1.992   .     S
O717   Zn728   1.988   .     S
O717   C719    1.282   .     A
O718   C720    1.282   .     A
O718   Zn727   1.988   .     S
C719   C742    1.413   .     S
C720   C741    1.413   .     S
O721   C725    1.278   .     A
O721   Zn727   1.969   .     S
O722   C726    1.278   .     A
O722   Zn728   1.969   .     S
O723   Zn728   1.981   .     S
O723   C725    1.281   .     A
O724   C726    1.281   .     A
O724   Zn727   1.981   .     S
C725   C731    1.403   .     S
C726   C732    1.403   .     S
Zn727  N729    2.012   .     S
Zn728  N730    2.012   .     S
N729   C744    1.367   .     A
N729   C747    1.367   .     A
N730   C748    1.367   .     A
N730   C743    1.367   .     A
C732   C647    1.330   1_655 S
C732   H650    1.088   1_655 S
H733   C647    1.088   1_655 S
C735   C742    1.405   .     A
C735   N751    1.439   .     S
C736   N754    1.439   .     S
C736   C741    1.405   .     A
C736   C486    1.378   1_565 S
C737   C741    1.395   .     A
C737   H739    1.085   .     S
C737   C483    1.378   1_565 S
C738   H740    1.085   .     S
C738   C742    1.395   .     A
C743   H745    1.082   .     S
C744   H746    1.082   .     S
C744   C1126   1.417   .     S
C747   H749    1.082   .     S
C747   C1121   1.417   .     S
C748   H750    1.082   .     S
N751   O752    1.301   .     A
N751   O753    1.301   .     A
N754   O756    1.301   .     A
N754   O755    1.301   .     A
O757   C761    1.281   .     A
O757   Zn769   1.992   .     S
O758   C762    1.281   .     A
O758   Zn770   1.992   .     S
O759   Zn770   1.988   .     S
O759   C761    1.282   .     A
O760   C762    1.282   .     A
O760   Zn769   1.988   .     S
C761   C784    1.413   .     S
C762   C783    1.413   .     S
O763   C767    1.278   .     A
O763   Zn769   1.969   .     S
O764   C768    1.278   .     A
O764   Zn770   1.969   .     S
O765   Zn770   1.981   .     S
O765   C767    1.281   .     A
O766   C768    1.281   .     A
O766   Zn769   1.981   .     S
C767   C773    1.403   .     S
C768   C774    1.403   .     S
Zn769  N771    2.012   .     S
Zn770  N772    2.012   .     S
N771   C786    1.367   .     A
N771   C789    1.367   .     A
N772   C790    1.367   .     A
N772   C785    1.367   .     A
C773   C858    1.330   1_455 S
C773   H859    1.088   1_455 S
C774   C815    1.330   .     S
C774   H818    1.088   .     S
H775   C815    1.088   .     S
H776   C858    1.088   1_455 S
C777   C784    1.405   .     A
C777   N793    1.439   .     S
C777   C1031   1.378   1_545 S
C778   N796    1.439   .     S
C778   C783    1.405   .     A
C778   C906    1.378   .     S
C779   C783    1.395   .     A
C779   H781    1.085   .     S
C779   C903    1.378   .     S
C780   H782    1.085   .     S
C780   C784    1.395   .     A
C780   C1030   1.378   1_545 S
C785   H787    1.082   .     S
C786   H788    1.082   .     S
C786   C34     1.417   1_556 S
C789   H791    1.082   .     S
C789   C29     1.417   1_556 S
C790   H792    1.082   .     S
N793   O794    1.301   .     A
N793   O795    1.301   .     A
N796   O798    1.301   .     A
N796   O797    1.301   .     A
O799   C803    1.281   .     A
O799   Zn811   1.992   .     S
O800   C804    1.281   .     A
O800   Zn812   1.992   .     S
O801   Zn812   1.988   .     S
O801   C803    1.282   .     A
O802   C804    1.282   .     A
O802   Zn811   1.988   .     S
C803   C826    1.413   .     S
C804   C825    1.413   .     S
O805   C809    1.278   .     A
O805   Zn811   1.969   .     S
O806   C810    1.278   .     A
O806   Zn812   1.969   .     S
O807   Zn812   1.981   .     S
O807   C809    1.281   .     A
O808   C810    1.281   .     A
O808   Zn811   1.981   .     S
C809   C815    1.403   .     S
C810   C816    1.403   .     S
Zn811  N813    2.012   .     S
Zn812  N814    2.012   .     S
N813   C828    1.367   .     A
N813   C831    1.367   .     A
N814   C832    1.367   .     A
N814   C827    1.367   .     A
C816   C857    1.330   .     S
C816   H860    1.088   .     S
H817   C857    1.088   .     S
C819   C826    1.405   .     A
C819   N835    1.439   .     S
C819   C1073   1.378   1_545 S
C820   N838    1.439   .     S
C820   C825    1.405   .     A
C820   C948    1.378   .     S
C821   C825    1.395   .     A
C821   H823    1.085   .     S
C821   C945    1.378   .     S
C822   H824    1.085   .     S
C822   C826    1.395   .     A
C822   C1072   1.378   1_545 S
C827   H829    1.082   .     S
C828   H830    1.082   .     S
C828   C76     1.417   1_556 S
C831   H833    1.082   .     S
C831   C71     1.417   1_556 S
C832   H834    1.082   .     S
N835   O836    1.301   .     A
N835   O837    1.301   .     A
N838   O840    1.301   .     A
N838   O839    1.301   .     A
O841   C845    1.281   .     A
O841   Zn853   1.992   .     S
O842   C846    1.281   .     A
O842   Zn854   1.992   .     S
O843   Zn854   1.988   .     S
O843   C845    1.282   .     A
O844   C846    1.282   .     A
O844   Zn853   1.988   .     S
C845   C868    1.413   .     S
C846   C867    1.413   .     S
O847   C851    1.278   .     A
O847   Zn853   1.969   .     S
O848   C852    1.278   .     A
O848   Zn854   1.969   .     S
O849   Zn854   1.981   .     S
O849   C851    1.281   .     A
O850   C852    1.281   .     A
O850   Zn853   1.981   .     S
C851   C857    1.403   .     S
C852   C858    1.403   .     S
Zn853  N855    2.012   .     S
Zn854  N856    2.012   .     S
N855   C870    1.367   .     A
N855   C873    1.367   .     A
N856   C874    1.367   .     A
N856   C869    1.367   .     A
C858   C773    1.330   1_655 S
C858   H776    1.088   1_655 S
H859   C773    1.088   1_655 S
C861   C868    1.405   .     A
C861   N877    1.439   .     S
C861   C1115   1.378   1_545 S
C862   N880    1.439   .     S
C862   C867    1.405   .     A
C862   C990    1.378   .     S
C863   C867    1.395   .     A
C863   H865    1.085   .     S
C863   C987    1.378   .     S
C864   H866    1.085   .     S
C864   C868    1.395   .     A
C864   C1114   1.378   1_545 S
C869   H871    1.082   .     S
C870   H872    1.082   .     S
C870   C118    1.417   1_556 S
C873   H875    1.082   .     S
C873   C113    1.417   1_556 S
C874   H876    1.082   .     S
N877   O878    1.301   .     A
N877   O879    1.301   .     A
N880   O882    1.301   .     A
N880   O881    1.301   .     A
O883   C887    1.281   .     A
O883   Zn895   1.992   .     S
O884   C888    1.281   .     A
O884   Zn896   1.992   .     S
O885   Zn896   1.988   .     S
O885   C887    1.282   .     A
O886   C888    1.282   .     A
O886   Zn895   1.988   .     S
C887   C910    1.413   .     S
C888   C909    1.413   .     S
O889   C893    1.278   .     A
O889   Zn895   1.969   .     S
O890   C894    1.278   .     A
O890   Zn896   1.969   .     S
O891   Zn896   1.981   .     S
O891   C893    1.281   .     A
O892   C894    1.281   .     A
O892   Zn895   1.981   .     S
C893   C899    1.403   .     S
C894   C900    1.403   .     S
Zn895  N897    2.012   .     S
Zn896  N898    2.012   .     S
N897   C912    1.367   .     A
N897   C915    1.367   .     A
N898   C916    1.367   .     A
N898   C911    1.367   .     A
C899   C984    1.330   1_455 S
C899   H985    1.088   1_455 S
C900   C941    1.330   .     S
C900   H944    1.088   .     S
H901   C941    1.088   .     S
H902   C984    1.088   1_455 S
C903   C910    1.405   .     A
C903   N919    1.439   .     S
C904   N922    1.439   .     S
C904   C909    1.405   .     A
C904   C1032   1.378   .     S
C905   C909    1.395   .     A
C905   H907    1.085   .     S
C905   C1029   1.378   .     S
C906   H908    1.085   .     S
C906   C910    1.395   .     A
C911   H913    1.082   .     S
C912   H914    1.082   .     S
C912   C160    1.417   1_556 S
C915   H917    1.082   .     S
C915   C155    1.417   1_556 S
C916   H918    1.082   .     S
N919   O920    1.301   .     A
N919   O921    1.301   .     A
N922   O924    1.301   .     A
N922   O923    1.301   .     A
O925   C929    1.281   .     A
O925   Zn937   1.992   .     S
O926   C930    1.281   .     A
O926   Zn938   1.992   .     S
O927   Zn938   1.988   .     S
O927   C929    1.282   .     A
O928   C930    1.282   .     A
O928   Zn937   1.988   .     S
C929   C952    1.413   .     S
C930   C951    1.413   .     S
O931   C935    1.278   .     A
O931   Zn937   1.969   .     S
O932   C936    1.278   .     A
O932   Zn938   1.969   .     S
O933   Zn938   1.981   .     S
O933   C935    1.281   .     A
O934   C936    1.281   .     A
O934   Zn937   1.981   .     S
C935   C941    1.403   .     S
C936   C942    1.403   .     S
Zn937  N939    2.012   .     S
Zn938  N940    2.012   .     S
N939   C954    1.367   .     A
N939   C957    1.367   .     A
N940   C958    1.367   .     A
N940   C953    1.367   .     A
C942   C983    1.330   .     S
C942   H986    1.088   .     S
H943   C983    1.088   .     S
C945   C952    1.405   .     A
C945   N961    1.439   .     S
C946   N964    1.439   .     S
C946   C951    1.405   .     A
C946   C1074   1.378   .     S
C947   C951    1.395   .     A
C947   H949    1.085   .     S
C947   C1071   1.378   .     S
C948   H950    1.085   .     S
C948   C952    1.395   .     A
C953   H955    1.082   .     S
C954   H956    1.082   .     S
C954   C202    1.417   1_556 S
C957   H959    1.082   .     S
C957   C197    1.417   1_556 S
C958   H960    1.082   .     S
N961   O962    1.301   .     A
N961   O963    1.301   .     A
N964   O966    1.301   .     A
N964   O965    1.301   .     A
O967   C971    1.281   .     A
O967   Zn979   1.992   .     S
O968   C972    1.281   .     A
O968   Zn980   1.992   .     S
O969   Zn980   1.988   .     S
O969   C971    1.282   .     A
O970   C972    1.282   .     A
O970   Zn979   1.988   .     S
C971   C994    1.413   .     S
C972   C993    1.413   .     S
O973   C977    1.278   .     A
O973   Zn979   1.969   .     S
O974   C978    1.278   .     A
O974   Zn980   1.969   .     S
O975   Zn980   1.981   .     S
O975   C977    1.281   .     A
O976   C978    1.281   .     A
O976   Zn979   1.981   .     S
C977   C983    1.403   .     S
C978   C984    1.403   .     S
Zn979  N981    2.012   .     S
Zn980  N982    2.012   .     S
N981   C996    1.367   .     A
N981   C999    1.367   .     A
N982   C1000   1.367   .     A
N982   C995    1.367   .     A
C984   C899    1.330   1_655 S
C984   H902    1.088   1_655 S
H985   C899    1.088   1_655 S
C987   C994    1.405   .     A
C987   N1003   1.439   .     S
C988   N1006   1.439   .     S
C988   C993    1.405   .     A
C988   C1116   1.378   .     S
C989   C993    1.395   .     A
C989   H991    1.085   .     S
C989   C1113   1.378   .     S
C990   H992    1.085   .     S
C990   C994    1.395   .     A
C995   H997    1.082   .     S
C996   H998    1.082   .     S
C996   C244    1.417   1_556 S
C999   H1001   1.082   .     S
C999   C239    1.417   1_556 S
C1000  H1002   1.082   .     S
N1003  O1004   1.301   .     A
N1003  O1005   1.301   .     A
N1006  O1008   1.301   .     A
N1006  O1007   1.301   .     A
O1009  C1013   1.281   .     A
O1009  Zn1021  1.992   .     S
O1010  C1014   1.281   .     A
O1010  Zn1022  1.992   .     S
O1011  Zn1022  1.988   .     S
O1011  C1013   1.282   .     A
O1012  C1014   1.282   .     A
O1012  Zn1021  1.988   .     S
C1013  C1036   1.413   .     S
C1014  C1035   1.413   .     S
O1015  C1019   1.278   .     A
O1015  Zn1021  1.969   .     S
O1016  C1020   1.278   .     A
O1016  Zn1022  1.969   .     S
O1017  Zn1022  1.981   .     S
O1017  C1019   1.281   .     A
O1018  C1020   1.281   .     A
O1018  Zn1021  1.981   .     S
C1019  C1025   1.403   .     S
C1020  C1026   1.403   .     S
Zn1021 N1023   2.012   .     S
Zn1022 N1024   2.012   .     S
N1023  C1038   1.367   .     A
N1023  C1041   1.367   .     A
N1024  C1042   1.367   .     A
N1024  C1037   1.367   .     A
C1025  C1110   1.330   1_455 S
C1025  H1111   1.088   1_455 S
C1026  C1067   1.330   .     S
C1026  H1070   1.088   .     S
H1027  C1067   1.088   .     S
H1028  C1110   1.088   1_455 S
C1029  C1036   1.405   .     A
C1029  N1045   1.439   .     S
C1030  N1048   1.439   .     S
C1030  C1035   1.405   .     A
C1030  C780    1.378   1_565 S
C1031  C1035   1.395   .     A
C1031  H1033   1.085   .     S
C1031  C777    1.378   1_565 S
C1032  H1034   1.085   .     S
C1032  C1036   1.395   .     A
C1037  H1039   1.082   .     S
C1038  H1040   1.082   .     S
C1038  C286    1.417   1_556 S
C1041  H1043   1.082   .     S
C1041  C281    1.417   1_556 S
C1042  H1044   1.082   .     S
N1045  O1046   1.301   .     A
N1045  O1047   1.301   .     A
N1048  O1050   1.301   .     A
N1048  O1049   1.301   .     A
O1051  C1055   1.281   .     A
O1051  Zn1063  1.992   .     S
O1052  C1056   1.281   .     A
O1052  Zn1064  1.992   .     S
O1053  Zn1064  1.988   .     S
O1053  C1055   1.282   .     A
O1054  C1056   1.282   .     A
O1054  Zn1063  1.988   .     S
C1055  C1078   1.413   .     S
C1056  C1077   1.413   .     S
O1057  C1061   1.278   .     A
O1057  Zn1063  1.969   .     S
O1058  C1062   1.278   .     A
O1058  Zn1064  1.969   .     S
O1059  Zn1064  1.981   .     S
O1059  C1061   1.281   .     A
O1060  C1062   1.281   .     A
O1060  Zn1063  1.981   .     S
C1061  C1067   1.403   .     S
C1062  C1068   1.403   .     S
Zn1063 N1065   2.012   .     S
Zn1064 N1066   2.012   .     S
N1065  C1080   1.367   .     A
N1065  C1083   1.367   .     A
N1066  C1084   1.367   .     A
N1066  C1079   1.367   .     A
C1068  C1109   1.330   .     S
C1068  H1112   1.088   .     S
H1069  C1109   1.088   .     S
C1071  C1078   1.405   .     A
C1071  N1087   1.439   .     S
C1072  N1090   1.439   .     S
C1072  C1077   1.405   .     A
C1072  C822    1.378   1_565 S
C1073  C1077   1.395   .     A
C1073  H1075   1.085   .     S
C1073  C819    1.378   1_565 S
C1074  H1076   1.085   .     S
C1074  C1078   1.395   .     A
C1079  H1081   1.082   .     S
C1080  H1082   1.082   .     S
C1080  C328    1.417   1_556 S
C1083  H1085   1.082   .     S
C1083  C323    1.417   1_556 S
C1084  H1086   1.082   .     S
N1087  O1088   1.301   .     A
N1087  O1089   1.301   .     A
N1090  O1092   1.301   .     A
N1090  O1091   1.301   .     A
O1093  C1097   1.281   .     A
O1093  Zn1105  1.992   .     S
O1094  C1098   1.281   .     A
O1094  Zn1106  1.992   .     S
O1095  Zn1106  1.988   .     S
O1095  C1097   1.282   .     A
O1096  C1098   1.282   .     A
O1096  Zn1105  1.988   .     S
C1097  C1120   1.413   .     S
C1098  C1119   1.413   .     S
O1099  C1103   1.278   .     A
O1099  Zn1105  1.969   .     S
O1100  C1104   1.278   .     A
O1100  Zn1106  1.969   .     S
O1101  Zn1106  1.981   .     S
O1101  C1103   1.281   .     A
O1102  C1104   1.281   .     A
O1102  Zn1105  1.981   .     S
C1103  C1109   1.403   .     S
C1104  C1110   1.403   .     S
Zn1105 N1107   2.012   .     S
Zn1106 N1108   2.012   .     S
N1107  C1122   1.367   .     A
N1107  C1125   1.367   .     A
N1108  C1126   1.367   .     A
N1108  C1121   1.367   .     A
C1110  C1025   1.330   1_655 S
C1110  H1028   1.088   1_655 S
H1111  C1025   1.088   1_655 S
C1113  C1120   1.405   .     A
C1113  N1129   1.439   .     S
C1114  N1132   1.439   .     S
C1114  C1119   1.405   .     A
C1114  C864    1.378   1_565 S
C1115  C1119   1.395   .     A
C1115  H1117   1.085   .     S
C1115  C861    1.378   1_565 S
C1116  H1118   1.085   .     S
C1116  C1120   1.395   .     A
C1121  H1123   1.082   .     S
C1122  H1124   1.082   .     S
C1122  C370    1.417   1_556 S
C1125  H1127   1.082   .     S
C1125  C365    1.417   1_556 S
C1126  H1128   1.082   .     S
N1129  O1130   1.301   .     A
N1129  O1131   1.301   .     A
N1132  O1134   1.301   .     A
N1132  O1133   1.301   .     A
