data_str_m3_o10_o17_pcu_sym.223
_audit_creation_date              2020-01-03
_audit_creation_method            'Materials Studio'
_symmetry_space_group_name_H-M    'P1'
_symmetry_Int_Tables_number       1
_symmetry_cell_setting            triclinic
loop_
_symmetry_equiv_pos_as_xyz
  x,y,z
_cell_length_a                    23.3184
_cell_length_b                    25.6710
_cell_length_c                    29.7289
_cell_angle_alpha                 90.9222
_cell_angle_beta                  86.1452
_cell_angle_gamma                 93.5927
loop_
_atom_site_label
_atom_site_type_symbol
_atom_site_fract_x
_atom_site_fract_y
_atom_site_fract_z
_atom_site_U_iso_or_equiv
_atom_site_adp_type
_atom_site_occupancy
C1     C     0.18190   0.26489   0.24882   0.00000  Uiso   1.00
C2     C     0.15143   0.06844   0.25118   0.00000  Uiso   1.00
C3     C     0.20888   0.25585   0.47471   0.00000  Uiso   1.00
C4     C     0.12445   0.07748   0.02529   0.00000  Uiso   1.00
C5     C     0.18994   0.31939   0.24814   0.00000  Uiso   1.00
C6     C     0.14340   0.01394   0.25186   0.00000  Uiso   1.00
C7     C     0.16752   0.16648   0.33635   0.00000  Uiso   1.00
C8     C     0.16581   0.16685   0.16365   0.00000  Uiso   1.00
C9     C     0.14196   0.12378   0.09418   0.00000  Uiso   1.00
C10    C     0.19137   0.20955   0.40582   0.00000  Uiso   1.00
C11    C     0.16391   0.16781   0.11617   0.00000  Uiso   1.00
C12    C     0.16942   0.16552   0.38383   0.00000  Uiso   1.00
C13    C     0.18574   0.21219   0.09325   0.00000  Uiso   1.00
C14    C     0.14759   0.12114   0.40675   0.00000  Uiso   1.00
C15    C     0.18568   0.21354   0.04638   0.00000  Uiso   1.00
C16    C     0.14765   0.11980   0.45362   0.00000  Uiso   1.00
C17    C     0.16559   0.16750   0.02346   0.00000  Uiso   1.00
C18    C     0.16774   0.16584   0.47654   0.00000  Uiso   1.00
C19    C     0.14349   0.12289   0.04763   0.00000  Uiso   1.00
C20    C     0.18984   0.21044   0.45237   0.00000  Uiso   1.00
C21    C     0.20634   0.25855   0.02174   0.00000  Uiso   1.00
C22    C     0.12699   0.07479   0.47826   0.00000  Uiso   1.00
H23    H     0.12555   0.08978   0.11339   0.00000  Uiso   1.00
H24    H     0.20778   0.24355   0.38661   0.00000  Uiso   1.00
H25    H     0.20329   0.24461   0.11268   0.00000  Uiso   1.00
H26    H     0.13005   0.08872   0.38732   0.00000  Uiso   1.00
H27    H     0.22447   0.28983   0.45521   0.00000  Uiso   1.00
H28    H     0.10885   0.04351   0.04479   0.00000  Uiso   1.00
H29    H     0.23391   0.00304   0.24457   0.00000  Uiso   1.00
H30    H     0.09943   0.33029   0.25543   0.00000  Uiso   1.00
H31    H     0.00453   0.12756   0.21605   0.00000  Uiso   1.00
H32    H     0.32880   0.20577   0.28395   0.00000  Uiso   1.00
N33    N     0.31678   0.15265   0.23783   0.00000  Uiso   1.00
N34    N     0.01656   0.18068   0.26217   0.00000  Uiso   1.00
O35    O     0.12975   0.24619   0.25299   0.00000  Uiso   1.00
O36    O     0.20358   0.08714   0.24701   0.00000  Uiso   1.00
O37    O     0.22613   0.23721   0.24519   0.00000  Uiso   1.00
O38    O     0.10720   0.09613   0.25481   0.00000  Uiso   1.00
O39    O     0.11847   0.17117   0.31997   0.00000  Uiso   1.00
O40    O     0.21486   0.16216   0.18003   0.00000  Uiso   1.00
O41    O     0.21485   0.16219   0.31217   0.00000  Uiso   1.00
O42    O     0.11848   0.17115   0.18783   0.00000  Uiso   1.00
Zn43   Zn    0.10231   0.17266   0.25521   0.00000  Uiso   1.00
Zn44   Zn    0.23102   0.16067   0.24479   0.00000  Uiso   1.00
C45    C     0.22360   0.30921   0.04369   0.00000  Uiso   1.00
H46    H     0.21001   0.31776   0.07841   0.00000  Uiso   1.00
O47    O     0.25266   0.00971   0.02260   0.00000  Uiso   1.00
C48    C     0.10972   0.02412   0.45631   0.00000  Uiso   1.00
H49    H     0.12332   0.01558   0.42160   0.00000  Uiso   1.00
O50    O     0.08065   0.32364   0.47739   0.00000  Uiso   1.00
C51    C     0.51524   0.26489   0.24882   0.00000  Uiso   1.00
C52    C     0.48476   0.06844   0.25118   0.00000  Uiso   1.00
C53    C     0.54221   0.25585   0.47471   0.00000  Uiso   1.00
C54    C     0.45778   0.07748   0.02529   0.00000  Uiso   1.00
C55    C     0.52327   0.31939   0.24814   0.00000  Uiso   1.00
C56    C     0.47673   0.01394   0.25186   0.00000  Uiso   1.00
C57    C     0.50085   0.16648   0.33635   0.00000  Uiso   1.00
C58    C     0.49915   0.16685   0.16365   0.00000  Uiso   1.00
C59    C     0.47530   0.12378   0.09418   0.00000  Uiso   1.00
C60    C     0.52470   0.20955   0.40582   0.00000  Uiso   1.00
C61    C     0.49724   0.16781   0.11617   0.00000  Uiso   1.00
C62    C     0.50276   0.16552   0.38383   0.00000  Uiso   1.00
C63    C     0.51907   0.21219   0.09325   0.00000  Uiso   1.00
C64    C     0.48093   0.12114   0.40675   0.00000  Uiso   1.00
C65    C     0.51901   0.21354   0.04638   0.00000  Uiso   1.00
C66    C     0.48098   0.11980   0.45362   0.00000  Uiso   1.00
C67    C     0.49892   0.16750   0.02346   0.00000  Uiso   1.00
C68    C     0.50107   0.16584   0.47654   0.00000  Uiso   1.00
C69    C     0.47682   0.12289   0.04763   0.00000  Uiso   1.00
C70    C     0.52318   0.21044   0.45237   0.00000  Uiso   1.00
C71    C     0.53967   0.25855   0.02174   0.00000  Uiso   1.00
C72    C     0.46032   0.07479   0.47826   0.00000  Uiso   1.00
H73    H     0.45888   0.08978   0.11339   0.00000  Uiso   1.00
H74    H     0.54111   0.24355   0.38661   0.00000  Uiso   1.00
H75    H     0.53662   0.24461   0.11268   0.00000  Uiso   1.00
H76    H     0.46338   0.08872   0.38732   0.00000  Uiso   1.00
H77    H     0.55781   0.28983   0.45521   0.00000  Uiso   1.00
H78    H     0.44218   0.04351   0.04479   0.00000  Uiso   1.00
H79    H     0.56724   0.00304   0.24457   0.00000  Uiso   1.00
H80    H     0.43276   0.33029   0.25543   0.00000  Uiso   1.00
H81    H     0.33787   0.12756   0.21605   0.00000  Uiso   1.00
H82    H     0.66213   0.20577   0.28395   0.00000  Uiso   1.00
N83    N     0.65011   0.15265   0.23783   0.00000  Uiso   1.00
N84    N     0.34989   0.18068   0.26217   0.00000  Uiso   1.00
O85    O     0.46308   0.24619   0.25299   0.00000  Uiso   1.00
O86    O     0.53692   0.08714   0.24701   0.00000  Uiso   1.00
O87    O     0.55946   0.23721   0.24519   0.00000  Uiso   1.00
O88    O     0.44054   0.09613   0.25481   0.00000  Uiso   1.00
O89    O     0.45181   0.17117   0.31997   0.00000  Uiso   1.00
O90    O     0.54819   0.16216   0.18003   0.00000  Uiso   1.00
O91    O     0.54819   0.16219   0.31217   0.00000  Uiso   1.00
O92    O     0.45181   0.17115   0.18783   0.00000  Uiso   1.00
Zn93   Zn    0.43565   0.17266   0.25521   0.00000  Uiso   1.00
Zn94   Zn    0.56435   0.16067   0.24479   0.00000  Uiso   1.00
C95    C     0.55694   0.30921   0.04369   0.00000  Uiso   1.00
H96    H     0.54335   0.31776   0.07841   0.00000  Uiso   1.00
O97    O     0.58599   0.00971   0.02260   0.00000  Uiso   1.00
C98    C     0.44305   0.02412   0.45631   0.00000  Uiso   1.00
H99    H     0.45665   0.01558   0.42160   0.00000  Uiso   1.00
O100   O     0.41398   0.32364   0.47739   0.00000  Uiso   1.00
C101   C     0.84857   0.26489   0.24882   0.00000  Uiso   1.00
C102   C     0.81810   0.06844   0.25118   0.00000  Uiso   1.00
C103   C     0.87554   0.25585   0.47471   0.00000  Uiso   1.00
C104   C     0.79111   0.07748   0.02529   0.00000  Uiso   1.00
C105   C     0.85660   0.31939   0.24814   0.00000  Uiso   1.00
C106   C     0.81006   0.01394   0.25186   0.00000  Uiso   1.00
C107   C     0.83419   0.16648   0.33635   0.00000  Uiso   1.00
C108   C     0.83248   0.16685   0.16365   0.00000  Uiso   1.00
C109   C     0.80863   0.12378   0.09418   0.00000  Uiso   1.00
C110   C     0.85803   0.20955   0.40582   0.00000  Uiso   1.00
C111   C     0.83058   0.16781   0.11617   0.00000  Uiso   1.00
C112   C     0.83609   0.16552   0.38383   0.00000  Uiso   1.00
C113   C     0.85240   0.21219   0.09325   0.00000  Uiso   1.00
C114   C     0.81426   0.12114   0.40675   0.00000  Uiso   1.00
C115   C     0.85235   0.21354   0.04638   0.00000  Uiso   1.00
C116   C     0.81431   0.11980   0.45362   0.00000  Uiso   1.00
C117   C     0.83225   0.16750   0.02346   0.00000  Uiso   1.00
C118   C     0.83441   0.16584   0.47654   0.00000  Uiso   1.00
C119   C     0.81015   0.12289   0.04763   0.00000  Uiso   1.00
C120   C     0.85651   0.21044   0.45237   0.00000  Uiso   1.00
C121   C     0.87301   0.25855   0.02174   0.00000  Uiso   1.00
C122   C     0.79365   0.07479   0.47826   0.00000  Uiso   1.00
H123   H     0.79222   0.08978   0.11339   0.00000  Uiso   1.00
H124   H     0.87445   0.24355   0.38661   0.00000  Uiso   1.00
H125   H     0.86995   0.24461   0.11268   0.00000  Uiso   1.00
H126   H     0.79671   0.08872   0.38732   0.00000  Uiso   1.00
H127   H     0.89114   0.28983   0.45521   0.00000  Uiso   1.00
H128   H     0.77552   0.04351   0.04479   0.00000  Uiso   1.00
H129   H     0.90057   0.00304   0.24457   0.00000  Uiso   1.00
H130   H     0.76609   0.33029   0.25543   0.00000  Uiso   1.00
H131   H     0.67120   0.12756   0.21605   0.00000  Uiso   1.00
H132   H     0.99546   0.20577   0.28395   0.00000  Uiso   1.00
N133   N     0.98344   0.15265   0.23783   0.00000  Uiso   1.00
N134   N     0.68322   0.18068   0.26217   0.00000  Uiso   1.00
O135   O     0.79642   0.24619   0.25299   0.00000  Uiso   1.00
O136   O     0.87025   0.08714   0.24701   0.00000  Uiso   1.00
O137   O     0.89280   0.23721   0.24519   0.00000  Uiso   1.00
O138   O     0.77387   0.09613   0.25481   0.00000  Uiso   1.00
O139   O     0.78514   0.17117   0.31997   0.00000  Uiso   1.00
O140   O     0.88153   0.16216   0.18003   0.00000  Uiso   1.00
O141   O     0.88152   0.16219   0.31217   0.00000  Uiso   1.00
O142   O     0.78515   0.17115   0.18783   0.00000  Uiso   1.00
Zn143  Zn    0.76898   0.17266   0.25521   0.00000  Uiso   1.00
Zn144  Zn    0.89769   0.16067   0.24479   0.00000  Uiso   1.00
C145   C     0.89027   0.30921   0.04369   0.00000  Uiso   1.00
H146   H     0.87668   0.31776   0.07841   0.00000  Uiso   1.00
O147   O     0.91933   0.00971   0.02260   0.00000  Uiso   1.00
C148   C     0.77638   0.02412   0.45631   0.00000  Uiso   1.00
H149   H     0.78998   0.01558   0.42160   0.00000  Uiso   1.00
O150   O     0.74731   0.32364   0.47739   0.00000  Uiso   1.00
C151   C     0.18190   0.59822   0.24882   0.00000  Uiso   1.00
C152   C     0.15143   0.40178   0.25118   0.00000  Uiso   1.00
C153   C     0.20888   0.58919   0.47471   0.00000  Uiso   1.00
C154   C     0.12445   0.41082   0.02529   0.00000  Uiso   1.00
C155   C     0.18994   0.65272   0.24814   0.00000  Uiso   1.00
C156   C     0.14340   0.34728   0.25186   0.00000  Uiso   1.00
C157   C     0.16752   0.49981   0.33635   0.00000  Uiso   1.00
C158   C     0.16581   0.50019   0.16365   0.00000  Uiso   1.00
C159   C     0.14196   0.45712   0.09418   0.00000  Uiso   1.00
C160   C     0.19137   0.54289   0.40582   0.00000  Uiso   1.00
C161   C     0.16391   0.50114   0.11617   0.00000  Uiso   1.00
C162   C     0.16942   0.49886   0.38383   0.00000  Uiso   1.00
C163   C     0.18574   0.54553   0.09325   0.00000  Uiso   1.00
C164   C     0.14759   0.45447   0.40675   0.00000  Uiso   1.00
C165   C     0.18568   0.54687   0.04638   0.00000  Uiso   1.00
C166   C     0.14765   0.45313   0.45362   0.00000  Uiso   1.00
C167   C     0.16559   0.50083   0.02346   0.00000  Uiso   1.00
C168   C     0.16774   0.49917   0.47654   0.00000  Uiso   1.00
C169   C     0.14349   0.45623   0.04763   0.00000  Uiso   1.00
C170   C     0.18984   0.54377   0.45237   0.00000  Uiso   1.00
C171   C     0.20634   0.59188   0.02174   0.00000  Uiso   1.00
C172   C     0.12699   0.40812   0.47826   0.00000  Uiso   1.00
H173   H     0.12555   0.42312   0.11339   0.00000  Uiso   1.00
H174   H     0.20778   0.57688   0.38661   0.00000  Uiso   1.00
H175   H     0.20329   0.57795   0.11268   0.00000  Uiso   1.00
H176   H     0.13005   0.42205   0.38732   0.00000  Uiso   1.00
H177   H     0.22447   0.62316   0.45521   0.00000  Uiso   1.00
H178   H     0.10885   0.37684   0.04479   0.00000  Uiso   1.00
H179   H     0.23391   0.33638   0.24457   0.00000  Uiso   1.00
H180   H     0.09943   0.66362   0.25543   0.00000  Uiso   1.00
H181   H     0.00453   0.46090   0.21605   0.00000  Uiso   1.00
H182   H     0.32880   0.53910   0.28395   0.00000  Uiso   1.00
N183   N     0.31678   0.48598   0.23783   0.00000  Uiso   1.00
N184   N     0.01656   0.51402   0.26217   0.00000  Uiso   1.00
O185   O     0.12975   0.57952   0.25299   0.00000  Uiso   1.00
O186   O     0.20358   0.42048   0.24701   0.00000  Uiso   1.00
O187   O     0.22613   0.57054   0.24519   0.00000  Uiso   1.00
O188   O     0.10720   0.42946   0.25481   0.00000  Uiso   1.00
O189   O     0.11847   0.50450   0.31997   0.00000  Uiso   1.00
O190   O     0.21486   0.49550   0.18003   0.00000  Uiso   1.00
O191   O     0.21485   0.49552   0.31217   0.00000  Uiso   1.00
O192   O     0.11848   0.50448   0.18783   0.00000  Uiso   1.00
Zn193  Zn    0.10231   0.50600   0.25521   0.00000  Uiso   1.00
Zn194  Zn    0.23102   0.49400   0.24479   0.00000  Uiso   1.00
C195   C     0.22360   0.64255   0.04369   0.00000  Uiso   1.00
H196   H     0.21001   0.65109   0.07841   0.00000  Uiso   1.00
O197   O     0.25266   0.34304   0.02260   0.00000  Uiso   1.00
C198   C     0.10972   0.35746   0.45631   0.00000  Uiso   1.00
H199   H     0.12332   0.34891   0.42160   0.00000  Uiso   1.00
O200   O     0.08065   0.65697   0.47739   0.00000  Uiso   1.00
C201   C     0.51524   0.59822   0.24882   0.00000  Uiso   1.00
C202   C     0.48476   0.40178   0.25118   0.00000  Uiso   1.00
C203   C     0.54221   0.58919   0.47471   0.00000  Uiso   1.00
C204   C     0.45778   0.41082   0.02529   0.00000  Uiso   1.00
C205   C     0.52327   0.65272   0.24814   0.00000  Uiso   1.00
C206   C     0.47673   0.34728   0.25186   0.00000  Uiso   1.00
C207   C     0.50085   0.49981   0.33635   0.00000  Uiso   1.00
C208   C     0.49915   0.50019   0.16365   0.00000  Uiso   1.00
C209   C     0.47530   0.45712   0.09418   0.00000  Uiso   1.00
C210   C     0.52470   0.54289   0.40582   0.00000  Uiso   1.00
C211   C     0.49724   0.50114   0.11617   0.00000  Uiso   1.00
C212   C     0.50276   0.49886   0.38383   0.00000  Uiso   1.00
C213   C     0.51907   0.54553   0.09325   0.00000  Uiso   1.00
C214   C     0.48093   0.45447   0.40675   0.00000  Uiso   1.00
C215   C     0.51901   0.54687   0.04638   0.00000  Uiso   1.00
C216   C     0.48098   0.45313   0.45362   0.00000  Uiso   1.00
C217   C     0.49892   0.50083   0.02346   0.00000  Uiso   1.00
C218   C     0.50107   0.49917   0.47654   0.00000  Uiso   1.00
C219   C     0.47682   0.45623   0.04763   0.00000  Uiso   1.00
C220   C     0.52318   0.54377   0.45237   0.00000  Uiso   1.00
C221   C     0.53967   0.59188   0.02174   0.00000  Uiso   1.00
C222   C     0.46032   0.40812   0.47826   0.00000  Uiso   1.00
H223   H     0.45888   0.42312   0.11339   0.00000  Uiso   1.00
H224   H     0.54111   0.57688   0.38661   0.00000  Uiso   1.00
H225   H     0.53662   0.57795   0.11268   0.00000  Uiso   1.00
H226   H     0.46338   0.42205   0.38732   0.00000  Uiso   1.00
H227   H     0.55781   0.62316   0.45521   0.00000  Uiso   1.00
H228   H     0.44218   0.37684   0.04479   0.00000  Uiso   1.00
H229   H     0.56724   0.33638   0.24457   0.00000  Uiso   1.00
H230   H     0.43276   0.66362   0.25543   0.00000  Uiso   1.00
H231   H     0.33787   0.46090   0.21605   0.00000  Uiso   1.00
H232   H     0.66213   0.53910   0.28395   0.00000  Uiso   1.00
N233   N     0.65011   0.48598   0.23783   0.00000  Uiso   1.00
N234   N     0.34989   0.51402   0.26217   0.00000  Uiso   1.00
O235   O     0.46308   0.57952   0.25299   0.00000  Uiso   1.00
O236   O     0.53692   0.42048   0.24701   0.00000  Uiso   1.00
O237   O     0.55946   0.57054   0.24519   0.00000  Uiso   1.00
O238   O     0.44054   0.42946   0.25481   0.00000  Uiso   1.00
O239   O     0.45181   0.50450   0.31997   0.00000  Uiso   1.00
O240   O     0.54819   0.49550   0.18003   0.00000  Uiso   1.00
O241   O     0.54819   0.49552   0.31217   0.00000  Uiso   1.00
O242   O     0.45181   0.50448   0.18783   0.00000  Uiso   1.00
Zn243  Zn    0.43565   0.50600   0.25521   0.00000  Uiso   1.00
Zn244  Zn    0.56435   0.49400   0.24479   0.00000  Uiso   1.00
C245   C     0.55694   0.64255   0.04369   0.00000  Uiso   1.00
H246   H     0.54335   0.65109   0.07841   0.00000  Uiso   1.00
O247   O     0.58599   0.34304   0.02260   0.00000  Uiso   1.00
C248   C     0.44305   0.35746   0.45631   0.00000  Uiso   1.00
H249   H     0.45665   0.34891   0.42160   0.00000  Uiso   1.00
O250   O     0.41398   0.65697   0.47739   0.00000  Uiso   1.00
C251   C     0.84857   0.59822   0.24882   0.00000  Uiso   1.00
C252   C     0.81810   0.40178   0.25118   0.00000  Uiso   1.00
C253   C     0.87554   0.58919   0.47471   0.00000  Uiso   1.00
C254   C     0.79111   0.41082   0.02529   0.00000  Uiso   1.00
C255   C     0.85660   0.65272   0.24814   0.00000  Uiso   1.00
C256   C     0.81006   0.34728   0.25186   0.00000  Uiso   1.00
C257   C     0.83419   0.49981   0.33635   0.00000  Uiso   1.00
C258   C     0.83248   0.50019   0.16365   0.00000  Uiso   1.00
C259   C     0.80863   0.45712   0.09418   0.00000  Uiso   1.00
C260   C     0.85803   0.54289   0.40582   0.00000  Uiso   1.00
C261   C     0.83058   0.50114   0.11617   0.00000  Uiso   1.00
C262   C     0.83609   0.49886   0.38383   0.00000  Uiso   1.00
C263   C     0.85240   0.54553   0.09325   0.00000  Uiso   1.00
C264   C     0.81426   0.45447   0.40675   0.00000  Uiso   1.00
C265   C     0.85235   0.54687   0.04638   0.00000  Uiso   1.00
C266   C     0.81431   0.45313   0.45362   0.00000  Uiso   1.00
C267   C     0.83225   0.50083   0.02346   0.00000  Uiso   1.00
C268   C     0.83441   0.49917   0.47654   0.00000  Uiso   1.00
C269   C     0.81015   0.45623   0.04763   0.00000  Uiso   1.00
C270   C     0.85651   0.54377   0.45237   0.00000  Uiso   1.00
C271   C     0.87301   0.59188   0.02174   0.00000  Uiso   1.00
C272   C     0.79365   0.40812   0.47826   0.00000  Uiso   1.00
H273   H     0.79222   0.42312   0.11339   0.00000  Uiso   1.00
H274   H     0.87445   0.57688   0.38661   0.00000  Uiso   1.00
H275   H     0.86995   0.57795   0.11268   0.00000  Uiso   1.00
H276   H     0.79671   0.42205   0.38732   0.00000  Uiso   1.00
H277   H     0.89114   0.62316   0.45521   0.00000  Uiso   1.00
H278   H     0.77552   0.37684   0.04479   0.00000  Uiso   1.00
H279   H     0.90057   0.33638   0.24457   0.00000  Uiso   1.00
H280   H     0.76609   0.66362   0.25543   0.00000  Uiso   1.00
H281   H     0.67120   0.46090   0.21605   0.00000  Uiso   1.00
H282   H     0.99546   0.53910   0.28395   0.00000  Uiso   1.00
N283   N     0.98344   0.48598   0.23783   0.00000  Uiso   1.00
N284   N     0.68322   0.51402   0.26217   0.00000  Uiso   1.00
O285   O     0.79642   0.57952   0.25299   0.00000  Uiso   1.00
O286   O     0.87025   0.42048   0.24701   0.00000  Uiso   1.00
O287   O     0.89280   0.57054   0.24519   0.00000  Uiso   1.00
O288   O     0.77387   0.42946   0.25481   0.00000  Uiso   1.00
O289   O     0.78514   0.50450   0.31997   0.00000  Uiso   1.00
O290   O     0.88153   0.49550   0.18003   0.00000  Uiso   1.00
O291   O     0.88152   0.49552   0.31217   0.00000  Uiso   1.00
O292   O     0.78515   0.50448   0.18783   0.00000  Uiso   1.00
Zn293  Zn    0.76898   0.50600   0.25521   0.00000  Uiso   1.00
Zn294  Zn    0.89769   0.49400   0.24479   0.00000  Uiso   1.00
C295   C     0.89027   0.64255   0.04369   0.00000  Uiso   1.00
H296   H     0.87668   0.65109   0.07841   0.00000  Uiso   1.00
O297   O     0.91933   0.34304   0.02260   0.00000  Uiso   1.00
C298   C     0.77638   0.35746   0.45631   0.00000  Uiso   1.00
H299   H     0.78998   0.34891   0.42160   0.00000  Uiso   1.00
O300   O     0.74731   0.65697   0.47739   0.00000  Uiso   1.00
C301   C     0.18190   0.93156   0.24882   0.00000  Uiso   1.00
C302   C     0.15143   0.73511   0.25118   0.00000  Uiso   1.00
C303   C     0.20888   0.92252   0.47471   0.00000  Uiso   1.00
C304   C     0.12445   0.74415   0.02529   0.00000  Uiso   1.00
C305   C     0.18994   0.98606   0.24814   0.00000  Uiso   1.00
C306   C     0.14340   0.68061   0.25186   0.00000  Uiso   1.00
C307   C     0.16752   0.83315   0.33635   0.00000  Uiso   1.00
C308   C     0.16581   0.83352   0.16365   0.00000  Uiso   1.00
C309   C     0.14196   0.79045   0.09418   0.00000  Uiso   1.00
C310   C     0.19137   0.87622   0.40582   0.00000  Uiso   1.00
C311   C     0.16391   0.83448   0.11617   0.00000  Uiso   1.00
C312   C     0.16942   0.83219   0.38383   0.00000  Uiso   1.00
C313   C     0.18574   0.87886   0.09325   0.00000  Uiso   1.00
C314   C     0.14759   0.78781   0.40675   0.00000  Uiso   1.00
C315   C     0.18568   0.88020   0.04638   0.00000  Uiso   1.00
C316   C     0.14765   0.78647   0.45362   0.00000  Uiso   1.00
C317   C     0.16559   0.83417   0.02346   0.00000  Uiso   1.00
C318   C     0.16774   0.83250   0.47654   0.00000  Uiso   1.00
C319   C     0.14349   0.78956   0.04763   0.00000  Uiso   1.00
C320   C     0.18984   0.87711   0.45237   0.00000  Uiso   1.00
C321   C     0.20634   0.92522   0.02174   0.00000  Uiso   1.00
C322   C     0.12699   0.74145   0.47826   0.00000  Uiso   1.00
H323   H     0.12555   0.75645   0.11339   0.00000  Uiso   1.00
H324   H     0.20778   0.91022   0.38661   0.00000  Uiso   1.00
H325   H     0.20329   0.91128   0.11268   0.00000  Uiso   1.00
H326   H     0.13005   0.75539   0.38732   0.00000  Uiso   1.00
H327   H     0.22447   0.95649   0.45521   0.00000  Uiso   1.00
H328   H     0.10885   0.71018   0.04479   0.00000  Uiso   1.00
H329   H     0.23391   0.66971   0.24457   0.00000  Uiso   1.00
H330   H     0.09943   0.99696   0.25543   0.00000  Uiso   1.00
H331   H     0.00453   0.79423   0.21605   0.00000  Uiso   1.00
H332   H     0.32880   0.87244   0.28395   0.00000  Uiso   1.00
N333   N     0.31678   0.81932   0.23783   0.00000  Uiso   1.00
N334   N     0.01656   0.84735   0.26217   0.00000  Uiso   1.00
O335   O     0.12975   0.91286   0.25299   0.00000  Uiso   1.00
O336   O     0.20358   0.75381   0.24701   0.00000  Uiso   1.00
O337   O     0.22613   0.90387   0.24519   0.00000  Uiso   1.00
O338   O     0.10720   0.76279   0.25481   0.00000  Uiso   1.00
O339   O     0.11847   0.83784   0.31997   0.00000  Uiso   1.00
O340   O     0.21486   0.82883   0.18003   0.00000  Uiso   1.00
O341   O     0.21485   0.82885   0.31217   0.00000  Uiso   1.00
O342   O     0.11848   0.83781   0.18783   0.00000  Uiso   1.00
Zn343  Zn    0.10231   0.83933   0.25521   0.00000  Uiso   1.00
Zn344  Zn    0.23102   0.82734   0.24479   0.00000  Uiso   1.00
C345   C     0.22360   0.97588   0.04369   0.00000  Uiso   1.00
H346   H     0.21001   0.98442   0.07841   0.00000  Uiso   1.00
O347   O     0.25266   0.67638   0.02260   0.00000  Uiso   1.00
C348   C     0.10972   0.69079   0.45631   0.00000  Uiso   1.00
H349   H     0.12332   0.68224   0.42160   0.00000  Uiso   1.00
O350   O     0.08065   0.99030   0.47739   0.00000  Uiso   1.00
C351   C     0.51524   0.93156   0.24882   0.00000  Uiso   1.00
C352   C     0.48476   0.73511   0.25118   0.00000  Uiso   1.00
C353   C     0.54221   0.92252   0.47471   0.00000  Uiso   1.00
C354   C     0.45778   0.74415   0.02529   0.00000  Uiso   1.00
C355   C     0.52327   0.98606   0.24814   0.00000  Uiso   1.00
C356   C     0.47673   0.68061   0.25186   0.00000  Uiso   1.00
C357   C     0.50085   0.83315   0.33635   0.00000  Uiso   1.00
C358   C     0.49915   0.83352   0.16365   0.00000  Uiso   1.00
C359   C     0.47530   0.79045   0.09418   0.00000  Uiso   1.00
C360   C     0.52470   0.87622   0.40582   0.00000  Uiso   1.00
C361   C     0.49724   0.83448   0.11617   0.00000  Uiso   1.00
C362   C     0.50276   0.83219   0.38383   0.00000  Uiso   1.00
C363   C     0.51907   0.87886   0.09325   0.00000  Uiso   1.00
C364   C     0.48093   0.78781   0.40675   0.00000  Uiso   1.00
C365   C     0.51901   0.88020   0.04638   0.00000  Uiso   1.00
C366   C     0.48098   0.78647   0.45362   0.00000  Uiso   1.00
C367   C     0.49892   0.83417   0.02346   0.00000  Uiso   1.00
C368   C     0.50107   0.83250   0.47654   0.00000  Uiso   1.00
C369   C     0.47682   0.78956   0.04763   0.00000  Uiso   1.00
C370   C     0.52318   0.87711   0.45237   0.00000  Uiso   1.00
C371   C     0.53967   0.92522   0.02174   0.00000  Uiso   1.00
C372   C     0.46032   0.74145   0.47826   0.00000  Uiso   1.00
H373   H     0.45888   0.75645   0.11339   0.00000  Uiso   1.00
H374   H     0.54111   0.91022   0.38661   0.00000  Uiso   1.00
H375   H     0.53662   0.91128   0.11268   0.00000  Uiso   1.00
H376   H     0.46338   0.75539   0.38732   0.00000  Uiso   1.00
H377   H     0.55781   0.95649   0.45521   0.00000  Uiso   1.00
H378   H     0.44218   0.71018   0.04479   0.00000  Uiso   1.00
H379   H     0.56724   0.66971   0.24457   0.00000  Uiso   1.00
H380   H     0.43276   0.99696   0.25543   0.00000  Uiso   1.00
H381   H     0.33787   0.79423   0.21605   0.00000  Uiso   1.00
H382   H     0.66213   0.87244   0.28395   0.00000  Uiso   1.00
N383   N     0.65011   0.81932   0.23783   0.00000  Uiso   1.00
N384   N     0.34989   0.84735   0.26217   0.00000  Uiso   1.00
O385   O     0.46308   0.91286   0.25299   0.00000  Uiso   1.00
O386   O     0.53692   0.75381   0.24701   0.00000  Uiso   1.00
O387   O     0.55946   0.90387   0.24519   0.00000  Uiso   1.00
O388   O     0.44054   0.76279   0.25481   0.00000  Uiso   1.00
O389   O     0.45181   0.83784   0.31997   0.00000  Uiso   1.00
O390   O     0.54819   0.82883   0.18003   0.00000  Uiso   1.00
O391   O     0.54819   0.82885   0.31217   0.00000  Uiso   1.00
O392   O     0.45181   0.83781   0.18783   0.00000  Uiso   1.00
Zn393  Zn    0.43565   0.83933   0.25521   0.00000  Uiso   1.00
Zn394  Zn    0.56435   0.82734   0.24479   0.00000  Uiso   1.00
C395   C     0.55694   0.97588   0.04369   0.00000  Uiso   1.00
H396   H     0.54335   0.98442   0.07841   0.00000  Uiso   1.00
O397   O     0.58599   0.67638   0.02260   0.00000  Uiso   1.00
C398   C     0.44305   0.69079   0.45631   0.00000  Uiso   1.00
H399   H     0.45665   0.68224   0.42160   0.00000  Uiso   1.00
O400   O     0.41398   0.99030   0.47739   0.00000  Uiso   1.00
C401   C     0.84857   0.93156   0.24882   0.00000  Uiso   1.00
C402   C     0.81810   0.73511   0.25118   0.00000  Uiso   1.00
C403   C     0.87554   0.92252   0.47471   0.00000  Uiso   1.00
C404   C     0.79111   0.74415   0.02529   0.00000  Uiso   1.00
C405   C     0.85660   0.98606   0.24814   0.00000  Uiso   1.00
C406   C     0.81006   0.68061   0.25186   0.00000  Uiso   1.00
C407   C     0.83419   0.83315   0.33635   0.00000  Uiso   1.00
C408   C     0.83248   0.83352   0.16365   0.00000  Uiso   1.00
C409   C     0.80863   0.79045   0.09418   0.00000  Uiso   1.00
C410   C     0.85803   0.87622   0.40582   0.00000  Uiso   1.00
C411   C     0.83058   0.83448   0.11617   0.00000  Uiso   1.00
C412   C     0.83609   0.83219   0.38383   0.00000  Uiso   1.00
C413   C     0.85240   0.87886   0.09325   0.00000  Uiso   1.00
C414   C     0.81426   0.78781   0.40675   0.00000  Uiso   1.00
C415   C     0.85235   0.88020   0.04638   0.00000  Uiso   1.00
C416   C     0.81431   0.78647   0.45362   0.00000  Uiso   1.00
C417   C     0.83225   0.83417   0.02346   0.00000  Uiso   1.00
C418   C     0.83441   0.83250   0.47654   0.00000  Uiso   1.00
C419   C     0.81015   0.78956   0.04763   0.00000  Uiso   1.00
C420   C     0.85651   0.87711   0.45237   0.00000  Uiso   1.00
C421   C     0.87301   0.92522   0.02174   0.00000  Uiso   1.00
C422   C     0.79365   0.74145   0.47826   0.00000  Uiso   1.00
H423   H     0.79222   0.75645   0.11339   0.00000  Uiso   1.00
H424   H     0.87445   0.91022   0.38661   0.00000  Uiso   1.00
H425   H     0.86995   0.91128   0.11268   0.00000  Uiso   1.00
H426   H     0.79671   0.75539   0.38732   0.00000  Uiso   1.00
H427   H     0.89114   0.95649   0.45521   0.00000  Uiso   1.00
H428   H     0.77552   0.71018   0.04479   0.00000  Uiso   1.00
H429   H     0.90057   0.66971   0.24457   0.00000  Uiso   1.00
H430   H     0.76609   0.99696   0.25543   0.00000  Uiso   1.00
H431   H     0.67120   0.79423   0.21605   0.00000  Uiso   1.00
H432   H     0.99546   0.87244   0.28395   0.00000  Uiso   1.00
N433   N     0.98344   0.81932   0.23783   0.00000  Uiso   1.00
N434   N     0.68322   0.84735   0.26217   0.00000  Uiso   1.00
O435   O     0.79642   0.91286   0.25299   0.00000  Uiso   1.00
O436   O     0.87025   0.75381   0.24701   0.00000  Uiso   1.00
O437   O     0.89280   0.90387   0.24519   0.00000  Uiso   1.00
O438   O     0.77387   0.76279   0.25481   0.00000  Uiso   1.00
O439   O     0.78514   0.83784   0.31997   0.00000  Uiso   1.00
O440   O     0.88153   0.82883   0.18003   0.00000  Uiso   1.00
O441   O     0.88152   0.82885   0.31217   0.00000  Uiso   1.00
O442   O     0.78515   0.83781   0.18783   0.00000  Uiso   1.00
Zn443  Zn    0.76898   0.83933   0.25521   0.00000  Uiso   1.00
Zn444  Zn    0.89769   0.82734   0.24479   0.00000  Uiso   1.00
C445   C     0.89027   0.97588   0.04369   0.00000  Uiso   1.00
H446   H     0.87668   0.98442   0.07841   0.00000  Uiso   1.00
O447   O     0.91933   0.67638   0.02260   0.00000  Uiso   1.00
C448   C     0.77638   0.69079   0.45631   0.00000  Uiso   1.00
H449   H     0.78998   0.68224   0.42160   0.00000  Uiso   1.00
O450   O     0.74731   0.99030   0.47739   0.00000  Uiso   1.00
C451   C     0.18190   0.26489   0.74882   0.00000  Uiso   1.00
C452   C     0.15143   0.06844   0.75118   0.00000  Uiso   1.00
C453   C     0.20888   0.25585   0.97471   0.00000  Uiso   1.00
C454   C     0.12445   0.07748   0.52529   0.00000  Uiso   1.00
C455   C     0.18994   0.31939   0.74814   0.00000  Uiso   1.00
C456   C     0.14340   0.01394   0.75186   0.00000  Uiso   1.00
C457   C     0.16752   0.16648   0.83635   0.00000  Uiso   1.00
C458   C     0.16581   0.16685   0.66365   0.00000  Uiso   1.00
C459   C     0.14196   0.12378   0.59418   0.00000  Uiso   1.00
C460   C     0.19137   0.20955   0.90582   0.00000  Uiso   1.00
C461   C     0.16391   0.16781   0.61617   0.00000  Uiso   1.00
C462   C     0.16942   0.16552   0.88383   0.00000  Uiso   1.00
C463   C     0.18574   0.21219   0.59325   0.00000  Uiso   1.00
C464   C     0.14759   0.12114   0.90675   0.00000  Uiso   1.00
C465   C     0.18568   0.21354   0.54638   0.00000  Uiso   1.00
C466   C     0.14765   0.11980   0.95362   0.00000  Uiso   1.00
C467   C     0.16559   0.16750   0.52346   0.00000  Uiso   1.00
C468   C     0.16774   0.16584   0.97654   0.00000  Uiso   1.00
C469   C     0.14349   0.12289   0.54763   0.00000  Uiso   1.00
C470   C     0.18984   0.21044   0.95237   0.00000  Uiso   1.00
C471   C     0.20634   0.25855   0.52174   0.00000  Uiso   1.00
C472   C     0.12699   0.07479   0.97826   0.00000  Uiso   1.00
H473   H     0.12555   0.08978   0.61339   0.00000  Uiso   1.00
H474   H     0.20778   0.24355   0.88661   0.00000  Uiso   1.00
H475   H     0.20329   0.24461   0.61268   0.00000  Uiso   1.00
H476   H     0.13005   0.08872   0.88732   0.00000  Uiso   1.00
H477   H     0.22447   0.28983   0.95521   0.00000  Uiso   1.00
H478   H     0.10885   0.04351   0.54479   0.00000  Uiso   1.00
H479   H     0.23391   0.00304   0.74457   0.00000  Uiso   1.00
H480   H     0.09943   0.33029   0.75543   0.00000  Uiso   1.00
H481   H     0.00453   0.12756   0.71605   0.00000  Uiso   1.00
H482   H     0.32880   0.20577   0.78395   0.00000  Uiso   1.00
N483   N     0.31678   0.15265   0.73783   0.00000  Uiso   1.00
N484   N     0.01656   0.18068   0.76217   0.00000  Uiso   1.00
O485   O     0.12975   0.24619   0.75299   0.00000  Uiso   1.00
O486   O     0.20358   0.08714   0.74701   0.00000  Uiso   1.00
O487   O     0.22613   0.23721   0.74519   0.00000  Uiso   1.00
O488   O     0.10720   0.09613   0.75481   0.00000  Uiso   1.00
O489   O     0.11847   0.17117   0.81997   0.00000  Uiso   1.00
O490   O     0.21486   0.16216   0.68003   0.00000  Uiso   1.00
O491   O     0.21485   0.16219   0.81217   0.00000  Uiso   1.00
O492   O     0.11848   0.17115   0.68783   0.00000  Uiso   1.00
Zn493  Zn    0.10231   0.17266   0.75521   0.00000  Uiso   1.00
Zn494  Zn    0.23102   0.16067   0.74479   0.00000  Uiso   1.00
C495   C     0.22360   0.30921   0.54369   0.00000  Uiso   1.00
H496   H     0.21001   0.31776   0.57841   0.00000  Uiso   1.00
O497   O     0.25266   0.00971   0.52260   0.00000  Uiso   1.00
C498   C     0.10972   0.02412   0.95631   0.00000  Uiso   1.00
H499   H     0.12332   0.01558   0.92160   0.00000  Uiso   1.00
O500   O     0.08065   0.32364   0.97739   0.00000  Uiso   1.00
C501   C     0.51524   0.26489   0.74882   0.00000  Uiso   1.00
C502   C     0.48476   0.06844   0.75118   0.00000  Uiso   1.00
C503   C     0.54221   0.25585   0.97471   0.00000  Uiso   1.00
C504   C     0.45778   0.07748   0.52529   0.00000  Uiso   1.00
C505   C     0.52327   0.31939   0.74814   0.00000  Uiso   1.00
C506   C     0.47673   0.01394   0.75186   0.00000  Uiso   1.00
C507   C     0.50085   0.16648   0.83635   0.00000  Uiso   1.00
C508   C     0.49915   0.16685   0.66365   0.00000  Uiso   1.00
C509   C     0.47530   0.12378   0.59418   0.00000  Uiso   1.00
C510   C     0.52470   0.20955   0.90582   0.00000  Uiso   1.00
C511   C     0.49724   0.16781   0.61617   0.00000  Uiso   1.00
C512   C     0.50276   0.16552   0.88383   0.00000  Uiso   1.00
C513   C     0.51907   0.21219   0.59325   0.00000  Uiso   1.00
C514   C     0.48093   0.12114   0.90675   0.00000  Uiso   1.00
C515   C     0.51901   0.21354   0.54638   0.00000  Uiso   1.00
C516   C     0.48098   0.11980   0.95362   0.00000  Uiso   1.00
C517   C     0.49892   0.16750   0.52346   0.00000  Uiso   1.00
C518   C     0.50107   0.16584   0.97654   0.00000  Uiso   1.00
C519   C     0.47682   0.12289   0.54763   0.00000  Uiso   1.00
C520   C     0.52318   0.21044   0.95237   0.00000  Uiso   1.00
C521   C     0.53967   0.25855   0.52174   0.00000  Uiso   1.00
C522   C     0.46032   0.07479   0.97826   0.00000  Uiso   1.00
H523   H     0.45888   0.08978   0.61339   0.00000  Uiso   1.00
H524   H     0.54111   0.24355   0.88661   0.00000  Uiso   1.00
H525   H     0.53662   0.24461   0.61268   0.00000  Uiso   1.00
H526   H     0.46338   0.08872   0.88732   0.00000  Uiso   1.00
H527   H     0.55781   0.28983   0.95521   0.00000  Uiso   1.00
H528   H     0.44218   0.04351   0.54479   0.00000  Uiso   1.00
H529   H     0.56724   0.00304   0.74457   0.00000  Uiso   1.00
H530   H     0.43276   0.33029   0.75543   0.00000  Uiso   1.00
H531   H     0.33787   0.12756   0.71605   0.00000  Uiso   1.00
H532   H     0.66213   0.20577   0.78395   0.00000  Uiso   1.00
N533   N     0.65011   0.15265   0.73783   0.00000  Uiso   1.00
N534   N     0.34989   0.18068   0.76217   0.00000  Uiso   1.00
O535   O     0.46308   0.24619   0.75299   0.00000  Uiso   1.00
O536   O     0.53692   0.08714   0.74701   0.00000  Uiso   1.00
O537   O     0.55946   0.23721   0.74519   0.00000  Uiso   1.00
O538   O     0.44054   0.09613   0.75481   0.00000  Uiso   1.00
O539   O     0.45181   0.17117   0.81997   0.00000  Uiso   1.00
O540   O     0.54819   0.16216   0.68003   0.00000  Uiso   1.00
O541   O     0.54819   0.16219   0.81217   0.00000  Uiso   1.00
O542   O     0.45181   0.17115   0.68783   0.00000  Uiso   1.00
Zn543  Zn    0.43565   0.17266   0.75521   0.00000  Uiso   1.00
Zn544  Zn    0.56435   0.16067   0.74479   0.00000  Uiso   1.00
C545   C     0.55694   0.30921   0.54369   0.00000  Uiso   1.00
H546   H     0.54335   0.31776   0.57841   0.00000  Uiso   1.00
O547   O     0.58599   0.00971   0.52260   0.00000  Uiso   1.00
C548   C     0.44305   0.02412   0.95631   0.00000  Uiso   1.00
H549   H     0.45665   0.01558   0.92160   0.00000  Uiso   1.00
O550   O     0.41398   0.32364   0.97739   0.00000  Uiso   1.00
C551   C     0.84857   0.26489   0.74882   0.00000  Uiso   1.00
C552   C     0.81810   0.06844   0.75118   0.00000  Uiso   1.00
C553   C     0.87554   0.25585   0.97471   0.00000  Uiso   1.00
C554   C     0.79111   0.07748   0.52529   0.00000  Uiso   1.00
C555   C     0.85660   0.31939   0.74814   0.00000  Uiso   1.00
C556   C     0.81006   0.01394   0.75186   0.00000  Uiso   1.00
C557   C     0.83419   0.16648   0.83635   0.00000  Uiso   1.00
C558   C     0.83248   0.16685   0.66365   0.00000  Uiso   1.00
C559   C     0.80863   0.12378   0.59418   0.00000  Uiso   1.00
C560   C     0.85803   0.20955   0.90582   0.00000  Uiso   1.00
C561   C     0.83058   0.16781   0.61617   0.00000  Uiso   1.00
C562   C     0.83609   0.16552   0.88383   0.00000  Uiso   1.00
C563   C     0.85240   0.21219   0.59325   0.00000  Uiso   1.00
C564   C     0.81426   0.12114   0.90675   0.00000  Uiso   1.00
C565   C     0.85235   0.21354   0.54638   0.00000  Uiso   1.00
C566   C     0.81431   0.11980   0.95362   0.00000  Uiso   1.00
C567   C     0.83225   0.16750   0.52346   0.00000  Uiso   1.00
C568   C     0.83441   0.16584   0.97654   0.00000  Uiso   1.00
C569   C     0.81015   0.12289   0.54763   0.00000  Uiso   1.00
C570   C     0.85651   0.21044   0.95237   0.00000  Uiso   1.00
C571   C     0.87301   0.25855   0.52174   0.00000  Uiso   1.00
C572   C     0.79365   0.07479   0.97826   0.00000  Uiso   1.00
H573   H     0.79222   0.08978   0.61339   0.00000  Uiso   1.00
H574   H     0.87445   0.24355   0.88661   0.00000  Uiso   1.00
H575   H     0.86995   0.24461   0.61268   0.00000  Uiso   1.00
H576   H     0.79671   0.08872   0.88732   0.00000  Uiso   1.00
H577   H     0.89114   0.28983   0.95521   0.00000  Uiso   1.00
H578   H     0.77552   0.04351   0.54479   0.00000  Uiso   1.00
H579   H     0.90057   0.00304   0.74457   0.00000  Uiso   1.00
H580   H     0.76609   0.33029   0.75543   0.00000  Uiso   1.00
H581   H     0.67120   0.12756   0.71605   0.00000  Uiso   1.00
H582   H     0.99546   0.20577   0.78395   0.00000  Uiso   1.00
N583   N     0.98344   0.15265   0.73783   0.00000  Uiso   1.00
N584   N     0.68322   0.18068   0.76217   0.00000  Uiso   1.00
O585   O     0.79642   0.24619   0.75299   0.00000  Uiso   1.00
O586   O     0.87025   0.08714   0.74701   0.00000  Uiso   1.00
O587   O     0.89280   0.23721   0.74519   0.00000  Uiso   1.00
O588   O     0.77387   0.09613   0.75481   0.00000  Uiso   1.00
O589   O     0.78514   0.17117   0.81997   0.00000  Uiso   1.00
O590   O     0.88153   0.16216   0.68003   0.00000  Uiso   1.00
O591   O     0.88152   0.16219   0.81217   0.00000  Uiso   1.00
O592   O     0.78515   0.17115   0.68783   0.00000  Uiso   1.00
Zn593  Zn    0.76898   0.17266   0.75521   0.00000  Uiso   1.00
Zn594  Zn    0.89769   0.16067   0.74479   0.00000  Uiso   1.00
C595   C     0.89027   0.30921   0.54369   0.00000  Uiso   1.00
H596   H     0.87668   0.31776   0.57841   0.00000  Uiso   1.00
O597   O     0.91933   0.00971   0.52260   0.00000  Uiso   1.00
C598   C     0.77638   0.02412   0.95631   0.00000  Uiso   1.00
H599   H     0.78998   0.01558   0.92160   0.00000  Uiso   1.00
O600   O     0.74731   0.32364   0.97739   0.00000  Uiso   1.00
C601   C     0.18190   0.59822   0.74882   0.00000  Uiso   1.00
C602   C     0.15143   0.40178   0.75118   0.00000  Uiso   1.00
C603   C     0.20888   0.58919   0.97471   0.00000  Uiso   1.00
C604   C     0.12445   0.41082   0.52529   0.00000  Uiso   1.00
C605   C     0.18994   0.65272   0.74814   0.00000  Uiso   1.00
C606   C     0.14340   0.34728   0.75186   0.00000  Uiso   1.00
C607   C     0.16752   0.49981   0.83635   0.00000  Uiso   1.00
C608   C     0.16581   0.50019   0.66365   0.00000  Uiso   1.00
C609   C     0.14196   0.45712   0.59418   0.00000  Uiso   1.00
C610   C     0.19137   0.54289   0.90582   0.00000  Uiso   1.00
C611   C     0.16391   0.50114   0.61617   0.00000  Uiso   1.00
C612   C     0.16942   0.49886   0.88383   0.00000  Uiso   1.00
C613   C     0.18574   0.54553   0.59325   0.00000  Uiso   1.00
C614   C     0.14759   0.45447   0.90675   0.00000  Uiso   1.00
C615   C     0.18568   0.54687   0.54638   0.00000  Uiso   1.00
C616   C     0.14765   0.45313   0.95362   0.00000  Uiso   1.00
C617   C     0.16559   0.50083   0.52346   0.00000  Uiso   1.00
C618   C     0.16774   0.49917   0.97654   0.00000  Uiso   1.00
C619   C     0.14349   0.45623   0.54763   0.00000  Uiso   1.00
C620   C     0.18984   0.54377   0.95237   0.00000  Uiso   1.00
C621   C     0.20634   0.59188   0.52174   0.00000  Uiso   1.00
C622   C     0.12699   0.40812   0.97826   0.00000  Uiso   1.00
H623   H     0.12555   0.42312   0.61339   0.00000  Uiso   1.00
H624   H     0.20778   0.57688   0.88661   0.00000  Uiso   1.00
H625   H     0.20329   0.57795   0.61268   0.00000  Uiso   1.00
H626   H     0.13005   0.42205   0.88732   0.00000  Uiso   1.00
H627   H     0.22447   0.62316   0.95521   0.00000  Uiso   1.00
H628   H     0.10885   0.37684   0.54479   0.00000  Uiso   1.00
H629   H     0.23391   0.33638   0.74457   0.00000  Uiso   1.00
H630   H     0.09943   0.66362   0.75543   0.00000  Uiso   1.00
H631   H     0.00453   0.46090   0.71605   0.00000  Uiso   1.00
H632   H     0.32880   0.53910   0.78395   0.00000  Uiso   1.00
N633   N     0.31678   0.48598   0.73783   0.00000  Uiso   1.00
N634   N     0.01656   0.51402   0.76217   0.00000  Uiso   1.00
O635   O     0.12975   0.57952   0.75299   0.00000  Uiso   1.00
O636   O     0.20358   0.42048   0.74701   0.00000  Uiso   1.00
O637   O     0.22613   0.57054   0.74519   0.00000  Uiso   1.00
O638   O     0.10720   0.42946   0.75481   0.00000  Uiso   1.00
O639   O     0.11847   0.50450   0.81997   0.00000  Uiso   1.00
O640   O     0.21486   0.49550   0.68003   0.00000  Uiso   1.00
O641   O     0.21485   0.49552   0.81217   0.00000  Uiso   1.00
O642   O     0.11848   0.50448   0.68783   0.00000  Uiso   1.00
Zn643  Zn    0.10231   0.50600   0.75521   0.00000  Uiso   1.00
Zn644  Zn    0.23102   0.49400   0.74479   0.00000  Uiso   1.00
C645   C     0.22360   0.64255   0.54369   0.00000  Uiso   1.00
H646   H     0.21001   0.65109   0.57841   0.00000  Uiso   1.00
O647   O     0.25266   0.34304   0.52260   0.00000  Uiso   1.00
C648   C     0.10972   0.35746   0.95631   0.00000  Uiso   1.00
H649   H     0.12332   0.34891   0.92160   0.00000  Uiso   1.00
O650   O     0.08065   0.65697   0.97739   0.00000  Uiso   1.00
C651   C     0.51524   0.59822   0.74882   0.00000  Uiso   1.00
C652   C     0.48476   0.40178   0.75118   0.00000  Uiso   1.00
C653   C     0.54221   0.58919   0.97471   0.00000  Uiso   1.00
C654   C     0.45778   0.41082   0.52529   0.00000  Uiso   1.00
C655   C     0.52327   0.65272   0.74814   0.00000  Uiso   1.00
C656   C     0.47673   0.34728   0.75186   0.00000  Uiso   1.00
C657   C     0.50085   0.49981   0.83635   0.00000  Uiso   1.00
C658   C     0.49915   0.50019   0.66365   0.00000  Uiso   1.00
C659   C     0.47530   0.45712   0.59418   0.00000  Uiso   1.00
C660   C     0.52470   0.54289   0.90582   0.00000  Uiso   1.00
C661   C     0.49724   0.50114   0.61617   0.00000  Uiso   1.00
C662   C     0.50276   0.49886   0.88383   0.00000  Uiso   1.00
C663   C     0.51907   0.54553   0.59325   0.00000  Uiso   1.00
C664   C     0.48093   0.45447   0.90675   0.00000  Uiso   1.00
C665   C     0.51901   0.54687   0.54638   0.00000  Uiso   1.00
C666   C     0.48098   0.45313   0.95362   0.00000  Uiso   1.00
C667   C     0.49892   0.50083   0.52346   0.00000  Uiso   1.00
C668   C     0.50107   0.49917   0.97654   0.00000  Uiso   1.00
C669   C     0.47682   0.45623   0.54763   0.00000  Uiso   1.00
C670   C     0.52318   0.54377   0.95237   0.00000  Uiso   1.00
C671   C     0.53967   0.59188   0.52174   0.00000  Uiso   1.00
C672   C     0.46032   0.40812   0.97826   0.00000  Uiso   1.00
H673   H     0.45888   0.42312   0.61339   0.00000  Uiso   1.00
H674   H     0.54111   0.57688   0.88661   0.00000  Uiso   1.00
H675   H     0.53662   0.57795   0.61268   0.00000  Uiso   1.00
H676   H     0.46338   0.42205   0.88732   0.00000  Uiso   1.00
H677   H     0.55781   0.62316   0.95521   0.00000  Uiso   1.00
H678   H     0.44218   0.37684   0.54479   0.00000  Uiso   1.00
H679   H     0.56724   0.33638   0.74457   0.00000  Uiso   1.00
H680   H     0.43276   0.66362   0.75543   0.00000  Uiso   1.00
H681   H     0.33787   0.46090   0.71605   0.00000  Uiso   1.00
H682   H     0.66213   0.53910   0.78395   0.00000  Uiso   1.00
N683   N     0.65011   0.48598   0.73783   0.00000  Uiso   1.00
N684   N     0.34989   0.51402   0.76217   0.00000  Uiso   1.00
O685   O     0.46308   0.57952   0.75299   0.00000  Uiso   1.00
O686   O     0.53692   0.42048   0.74701   0.00000  Uiso   1.00
O687   O     0.55946   0.57054   0.74519   0.00000  Uiso   1.00
O688   O     0.44054   0.42946   0.75481   0.00000  Uiso   1.00
O689   O     0.45181   0.50450   0.81997   0.00000  Uiso   1.00
O690   O     0.54819   0.49550   0.68003   0.00000  Uiso   1.00
O691   O     0.54819   0.49552   0.81217   0.00000  Uiso   1.00
O692   O     0.45181   0.50448   0.68783   0.00000  Uiso   1.00
Zn693  Zn    0.43565   0.50600   0.75521   0.00000  Uiso   1.00
Zn694  Zn    0.56435   0.49400   0.74479   0.00000  Uiso   1.00
C695   C     0.55694   0.64255   0.54369   0.00000  Uiso   1.00
H696   H     0.54335   0.65109   0.57841   0.00000  Uiso   1.00
O697   O     0.58599   0.34304   0.52260   0.00000  Uiso   1.00
C698   C     0.44305   0.35746   0.95631   0.00000  Uiso   1.00
H699   H     0.45665   0.34891   0.92160   0.00000  Uiso   1.00
O700   O     0.41398   0.65697   0.97739   0.00000  Uiso   1.00
C701   C     0.84857   0.59822   0.74882   0.00000  Uiso   1.00
C702   C     0.81810   0.40178   0.75118   0.00000  Uiso   1.00
C703   C     0.87554   0.58919   0.97471   0.00000  Uiso   1.00
C704   C     0.79111   0.41082   0.52529   0.00000  Uiso   1.00
C705   C     0.85660   0.65272   0.74814   0.00000  Uiso   1.00
C706   C     0.81006   0.34728   0.75186   0.00000  Uiso   1.00
C707   C     0.83419   0.49981   0.83635   0.00000  Uiso   1.00
C708   C     0.83248   0.50019   0.66365   0.00000  Uiso   1.00
C709   C     0.80863   0.45712   0.59418   0.00000  Uiso   1.00
C710   C     0.85803   0.54289   0.90582   0.00000  Uiso   1.00
C711   C     0.83058   0.50114   0.61617   0.00000  Uiso   1.00
C712   C     0.83609   0.49886   0.88383   0.00000  Uiso   1.00
C713   C     0.85240   0.54553   0.59325   0.00000  Uiso   1.00
C714   C     0.81426   0.45447   0.90675   0.00000  Uiso   1.00
C715   C     0.85235   0.54687   0.54638   0.00000  Uiso   1.00
C716   C     0.81431   0.45313   0.95362   0.00000  Uiso   1.00
C717   C     0.83225   0.50083   0.52346   0.00000  Uiso   1.00
C718   C     0.83441   0.49917   0.97654   0.00000  Uiso   1.00
C719   C     0.81015   0.45623   0.54763   0.00000  Uiso   1.00
C720   C     0.85651   0.54377   0.95237   0.00000  Uiso   1.00
C721   C     0.87301   0.59188   0.52174   0.00000  Uiso   1.00
C722   C     0.79365   0.40812   0.97826   0.00000  Uiso   1.00
H723   H     0.79222   0.42312   0.61339   0.00000  Uiso   1.00
H724   H     0.87445   0.57688   0.88661   0.00000  Uiso   1.00
H725   H     0.86995   0.57795   0.61268   0.00000  Uiso   1.00
H726   H     0.79671   0.42205   0.88732   0.00000  Uiso   1.00
H727   H     0.89114   0.62316   0.95521   0.00000  Uiso   1.00
H728   H     0.77552   0.37684   0.54479   0.00000  Uiso   1.00
H729   H     0.90057   0.33638   0.74457   0.00000  Uiso   1.00
H730   H     0.76609   0.66362   0.75543   0.00000  Uiso   1.00
H731   H     0.67120   0.46090   0.71605   0.00000  Uiso   1.00
H732   H     0.99546   0.53910   0.78395   0.00000  Uiso   1.00
N733   N     0.98344   0.48598   0.73783   0.00000  Uiso   1.00
N734   N     0.68322   0.51402   0.76217   0.00000  Uiso   1.00
O735   O     0.79642   0.57952   0.75299   0.00000  Uiso   1.00
O736   O     0.87025   0.42048   0.74701   0.00000  Uiso   1.00
O737   O     0.89280   0.57054   0.74519   0.00000  Uiso   1.00
O738   O     0.77387   0.42946   0.75481   0.00000  Uiso   1.00
O739   O     0.78514   0.50450   0.81997   0.00000  Uiso   1.00
O740   O     0.88153   0.49550   0.68003   0.00000  Uiso   1.00
O741   O     0.88152   0.49552   0.81217   0.00000  Uiso   1.00
O742   O     0.78515   0.50448   0.68783   0.00000  Uiso   1.00
Zn743  Zn    0.76898   0.50600   0.75521   0.00000  Uiso   1.00
Zn744  Zn    0.89769   0.49400   0.74479   0.00000  Uiso   1.00
C745   C     0.89027   0.64255   0.54369   0.00000  Uiso   1.00
H746   H     0.87668   0.65109   0.57841   0.00000  Uiso   1.00
O747   O     0.91933   0.34304   0.52260   0.00000  Uiso   1.00
C748   C     0.77638   0.35746   0.95631   0.00000  Uiso   1.00
H749   H     0.78998   0.34891   0.92160   0.00000  Uiso   1.00
O750   O     0.74731   0.65697   0.97739   0.00000  Uiso   1.00
C751   C     0.18190   0.93156   0.74882   0.00000  Uiso   1.00
C752   C     0.15143   0.73511   0.75118   0.00000  Uiso   1.00
C753   C     0.20888   0.92252   0.97471   0.00000  Uiso   1.00
C754   C     0.12445   0.74415   0.52529   0.00000  Uiso   1.00
C755   C     0.18994   0.98606   0.74814   0.00000  Uiso   1.00
C756   C     0.14340   0.68061   0.75186   0.00000  Uiso   1.00
C757   C     0.16752   0.83315   0.83635   0.00000  Uiso   1.00
C758   C     0.16581   0.83352   0.66365   0.00000  Uiso   1.00
C759   C     0.14196   0.79045   0.59418   0.00000  Uiso   1.00
C760   C     0.19137   0.87622   0.90582   0.00000  Uiso   1.00
C761   C     0.16391   0.83448   0.61617   0.00000  Uiso   1.00
C762   C     0.16942   0.83219   0.88383   0.00000  Uiso   1.00
C763   C     0.18574   0.87886   0.59325   0.00000  Uiso   1.00
C764   C     0.14759   0.78781   0.90675   0.00000  Uiso   1.00
C765   C     0.18568   0.88020   0.54638   0.00000  Uiso   1.00
C766   C     0.14765   0.78647   0.95362   0.00000  Uiso   1.00
C767   C     0.16559   0.83417   0.52346   0.00000  Uiso   1.00
C768   C     0.16774   0.83250   0.97654   0.00000  Uiso   1.00
C769   C     0.14349   0.78956   0.54763   0.00000  Uiso   1.00
C770   C     0.18984   0.87711   0.95237   0.00000  Uiso   1.00
C771   C     0.20634   0.92522   0.52174   0.00000  Uiso   1.00
C772   C     0.12699   0.74145   0.97826   0.00000  Uiso   1.00
H773   H     0.12555   0.75645   0.61339   0.00000  Uiso   1.00
H774   H     0.20778   0.91022   0.88661   0.00000  Uiso   1.00
H775   H     0.20329   0.91128   0.61268   0.00000  Uiso   1.00
H776   H     0.13005   0.75539   0.88732   0.00000  Uiso   1.00
H777   H     0.22447   0.95649   0.95521   0.00000  Uiso   1.00
H778   H     0.10885   0.71018   0.54479   0.00000  Uiso   1.00
H779   H     0.23391   0.66971   0.74457   0.00000  Uiso   1.00
H780   H     0.09943   0.99696   0.75543   0.00000  Uiso   1.00
H781   H     0.00453   0.79423   0.71605   0.00000  Uiso   1.00
H782   H     0.32880   0.87244   0.78395   0.00000  Uiso   1.00
N783   N     0.31678   0.81932   0.73783   0.00000  Uiso   1.00
N784   N     0.01656   0.84735   0.76217   0.00000  Uiso   1.00
O785   O     0.12975   0.91286   0.75299   0.00000  Uiso   1.00
O786   O     0.20358   0.75381   0.74701   0.00000  Uiso   1.00
O787   O     0.22613   0.90387   0.74519   0.00000  Uiso   1.00
O788   O     0.10720   0.76279   0.75481   0.00000  Uiso   1.00
O789   O     0.11847   0.83784   0.81997   0.00000  Uiso   1.00
O790   O     0.21486   0.82883   0.68003   0.00000  Uiso   1.00
O791   O     0.21485   0.82885   0.81217   0.00000  Uiso   1.00
O792   O     0.11848   0.83781   0.68783   0.00000  Uiso   1.00
Zn793  Zn    0.10231   0.83933   0.75521   0.00000  Uiso   1.00
Zn794  Zn    0.23102   0.82734   0.74479   0.00000  Uiso   1.00
C795   C     0.22360   0.97588   0.54369   0.00000  Uiso   1.00
H796   H     0.21001   0.98442   0.57841   0.00000  Uiso   1.00
O797   O     0.25266   0.67638   0.52260   0.00000  Uiso   1.00
C798   C     0.10972   0.69079   0.95631   0.00000  Uiso   1.00
H799   H     0.12332   0.68224   0.92160   0.00000  Uiso   1.00
O800   O     0.08065   0.99030   0.97739   0.00000  Uiso   1.00
C801   C     0.51524   0.93156   0.74882   0.00000  Uiso   1.00
C802   C     0.48476   0.73511   0.75118   0.00000  Uiso   1.00
C803   C     0.54221   0.92252   0.97471   0.00000  Uiso   1.00
C804   C     0.45778   0.74415   0.52529   0.00000  Uiso   1.00
C805   C     0.52327   0.98606   0.74814   0.00000  Uiso   1.00
C806   C     0.47673   0.68061   0.75186   0.00000  Uiso   1.00
C807   C     0.50085   0.83315   0.83635   0.00000  Uiso   1.00
C808   C     0.49915   0.83352   0.66365   0.00000  Uiso   1.00
C809   C     0.47530   0.79045   0.59418   0.00000  Uiso   1.00
C810   C     0.52470   0.87622   0.90582   0.00000  Uiso   1.00
C811   C     0.49724   0.83448   0.61617   0.00000  Uiso   1.00
C812   C     0.50276   0.83219   0.88383   0.00000  Uiso   1.00
C813   C     0.51907   0.87886   0.59325   0.00000  Uiso   1.00
C814   C     0.48093   0.78781   0.90675   0.00000  Uiso   1.00
C815   C     0.51901   0.88020   0.54638   0.00000  Uiso   1.00
C816   C     0.48098   0.78647   0.95362   0.00000  Uiso   1.00
C817   C     0.49892   0.83417   0.52346   0.00000  Uiso   1.00
C818   C     0.50107   0.83250   0.97654   0.00000  Uiso   1.00
C819   C     0.47682   0.78956   0.54763   0.00000  Uiso   1.00
C820   C     0.52318   0.87711   0.95237   0.00000  Uiso   1.00
C821   C     0.53967   0.92522   0.52174   0.00000  Uiso   1.00
C822   C     0.46032   0.74145   0.97826   0.00000  Uiso   1.00
H823   H     0.45888   0.75645   0.61339   0.00000  Uiso   1.00
H824   H     0.54111   0.91022   0.88661   0.00000  Uiso   1.00
H825   H     0.53662   0.91128   0.61268   0.00000  Uiso   1.00
H826   H     0.46338   0.75539   0.88732   0.00000  Uiso   1.00
H827   H     0.55781   0.95649   0.95521   0.00000  Uiso   1.00
H828   H     0.44218   0.71018   0.54479   0.00000  Uiso   1.00
H829   H     0.56724   0.66971   0.74457   0.00000  Uiso   1.00
H830   H     0.43276   0.99696   0.75543   0.00000  Uiso   1.00
H831   H     0.33787   0.79423   0.71605   0.00000  Uiso   1.00
H832   H     0.66213   0.87244   0.78395   0.00000  Uiso   1.00
N833   N     0.65011   0.81932   0.73783   0.00000  Uiso   1.00
N834   N     0.34989   0.84735   0.76217   0.00000  Uiso   1.00
O835   O     0.46308   0.91286   0.75299   0.00000  Uiso   1.00
O836   O     0.53692   0.75381   0.74701   0.00000  Uiso   1.00
O837   O     0.55946   0.90387   0.74519   0.00000  Uiso   1.00
O838   O     0.44054   0.76279   0.75481   0.00000  Uiso   1.00
O839   O     0.45181   0.83784   0.81997   0.00000  Uiso   1.00
O840   O     0.54819   0.82883   0.68003   0.00000  Uiso   1.00
O841   O     0.54819   0.82885   0.81217   0.00000  Uiso   1.00
O842   O     0.45181   0.83781   0.68783   0.00000  Uiso   1.00
Zn843  Zn    0.43565   0.83933   0.75521   0.00000  Uiso   1.00
Zn844  Zn    0.56435   0.82734   0.74479   0.00000  Uiso   1.00
C845   C     0.55694   0.97588   0.54369   0.00000  Uiso   1.00
H846   H     0.54335   0.98442   0.57841   0.00000  Uiso   1.00
O847   O     0.58599   0.67638   0.52260   0.00000  Uiso   1.00
C848   C     0.44305   0.69079   0.95631   0.00000  Uiso   1.00
H849   H     0.45665   0.68224   0.92160   0.00000  Uiso   1.00
O850   O     0.41398   0.99030   0.97739   0.00000  Uiso   1.00
C851   C     0.84857   0.93156   0.74882   0.00000  Uiso   1.00
C852   C     0.81810   0.73511   0.75118   0.00000  Uiso   1.00
C853   C     0.87554   0.92252   0.97471   0.00000  Uiso   1.00
C854   C     0.79111   0.74415   0.52529   0.00000  Uiso   1.00
C855   C     0.85660   0.98606   0.74814   0.00000  Uiso   1.00
C856   C     0.81006   0.68061   0.75186   0.00000  Uiso   1.00
C857   C     0.83419   0.83315   0.83635   0.00000  Uiso   1.00
C858   C     0.83248   0.83352   0.66365   0.00000  Uiso   1.00
C859   C     0.80863   0.79045   0.59418   0.00000  Uiso   1.00
C860   C     0.85803   0.87622   0.90582   0.00000  Uiso   1.00
C861   C     0.83058   0.83448   0.61617   0.00000  Uiso   1.00
C862   C     0.83609   0.83219   0.88383   0.00000  Uiso   1.00
C863   C     0.85240   0.87886   0.59325   0.00000  Uiso   1.00
C864   C     0.81426   0.78781   0.90675   0.00000  Uiso   1.00
C865   C     0.85235   0.88020   0.54638   0.00000  Uiso   1.00
C866   C     0.81431   0.78647   0.95362   0.00000  Uiso   1.00
C867   C     0.83225   0.83417   0.52346   0.00000  Uiso   1.00
C868   C     0.83441   0.83250   0.97654   0.00000  Uiso   1.00
C869   C     0.81015   0.78956   0.54763   0.00000  Uiso   1.00
C870   C     0.85651   0.87711   0.95237   0.00000  Uiso   1.00
C871   C     0.87301   0.92522   0.52174   0.00000  Uiso   1.00
C872   C     0.79365   0.74145   0.97826   0.00000  Uiso   1.00
H873   H     0.79222   0.75645   0.61339   0.00000  Uiso   1.00
H874   H     0.87445   0.91022   0.88661   0.00000  Uiso   1.00
H875   H     0.86995   0.91128   0.61268   0.00000  Uiso   1.00
H876   H     0.79671   0.75539   0.88732   0.00000  Uiso   1.00
H877   H     0.89114   0.95649   0.95521   0.00000  Uiso   1.00
H878   H     0.77552   0.71018   0.54479   0.00000  Uiso   1.00
H879   H     0.90057   0.66971   0.74457   0.00000  Uiso   1.00
H880   H     0.76609   0.99696   0.75543   0.00000  Uiso   1.00
H881   H     0.67120   0.79423   0.71605   0.00000  Uiso   1.00
H882   H     0.99546   0.87244   0.78395   0.00000  Uiso   1.00
N883   N     0.98344   0.81932   0.73783   0.00000  Uiso   1.00
N884   N     0.68322   0.84735   0.76217   0.00000  Uiso   1.00
O885   O     0.79642   0.91286   0.75299   0.00000  Uiso   1.00
O886   O     0.87025   0.75381   0.74701   0.00000  Uiso   1.00
O887   O     0.89280   0.90387   0.74519   0.00000  Uiso   1.00
O888   O     0.77387   0.76279   0.75481   0.00000  Uiso   1.00
O889   O     0.78514   0.83784   0.81997   0.00000  Uiso   1.00
O890   O     0.88153   0.82883   0.68003   0.00000  Uiso   1.00
O891   O     0.88152   0.82885   0.81217   0.00000  Uiso   1.00
O892   O     0.78515   0.83781   0.68783   0.00000  Uiso   1.00
Zn893  Zn    0.76898   0.83933   0.75521   0.00000  Uiso   1.00
Zn894  Zn    0.89769   0.82734   0.74479   0.00000  Uiso   1.00
C895   C     0.89027   0.97588   0.54369   0.00000  Uiso   1.00
H896   H     0.87668   0.98442   0.57841   0.00000  Uiso   1.00
O897   O     0.91933   0.67638   0.52260   0.00000  Uiso   1.00
C898   C     0.77638   0.69079   0.95631   0.00000  Uiso   1.00
H899   H     0.78998   0.68224   0.92160   0.00000  Uiso   1.00
O900   O     0.74731   0.99030   0.97739   0.00000  Uiso   1.00
loop_
_geom_bond_atom_site_label_1
_geom_bond_atom_site_label_2
_geom_bond_distance
_geom_bond_site_symmetry_2
_ccdc_geom_bond_type
C1     O37     1.286   .     A
C1     C5      1.400   .     S
C1     O35     1.278   .     A
C2     O38     1.286   .     A
C2     C6      1.400   .     S
C2     O36     1.278   .     A
C3     H27     1.085   .     S
C3     C20     1.395   .     A
C3     C471    1.396   .     S
C4     H28     1.085   .     S
C4     C19     1.395   .     A
C4     C472    1.396   1_554 S
C5     C156    1.335   .     S
C5     H179    1.088   .     S
C6     C305    1.335   1_545 S
C6     H330    1.088   1_545 S
C7     C12     1.416   .     S
C7     O39     1.286   .     A
C7     O41     1.286   .     A
C8     O42     1.286   .     A
C8     C11     1.416   .     S
C8     O40     1.286   .     A
C9     C11     1.384   .     A
C9     H23     1.086   .     S
C9     C19     1.382   .     A
C10    C12     1.384   .     A
C10    H24     1.086   .     S
C10    C20     1.382   .     A
C11    C13     1.388   .     A
C12    C14     1.388   .     A
C13    H25     1.081   .     S
C13    C15     1.394   .     A
C14    H26     1.081   .     S
C14    C16     1.394   .     A
C15    C21     1.419   .     A
C15    C17     1.424   .     A
C16    C22     1.419   .     A
C16    C18     1.424   .     A
C17    C19     1.413   .     A
C17    C468    1.392   1_554 S
C18    C20     1.413   .     A
C18    C467    1.392   .     S
C21    C45     1.490   .     S
C21    C453    1.396   1_554 S
C22    C48     1.490   .     S
C22    C454    1.396   .     S
H29    C305    1.088   1_545 S
H30    C156    1.088   .     S
H31    N133    1.029   1_455 S
H32    N84     1.029   .     S
N33    Zn44    2.020   .     S
N33    H81     1.029   .     S
N33    N84     1.275   .     S
N34    Zn43    2.020   .     S
N34    N133    1.275   1_455 S
N34    H132    1.029   1_455 S
O35    Zn43    1.955   .     S
O36    Zn44    1.955   .     S
O37    Zn44    1.975   .     S
O38    Zn43    1.975   .     S
O39    Zn43    1.988   .     S
O40    Zn44    1.988   .     S
O41    Zn44    2.014   .     S
O42    Zn43    2.014   .     S
C45    H46     1.082   .     S
C45    O197    1.222   .     S
O47    C345    1.222   1_545 S
C48    H49     1.082   .     S
C48    O350    1.222   1_545 S
O50    C198    1.222   .     S
C51    O87     1.286   .     A
C51    C55     1.400   .     S
C51    O85     1.278   .     A
C52    O88     1.286   .     A
C52    C56     1.400   .     S
C52    O86     1.278   .     A
C53    H77     1.085   .     S
C53    C70     1.395   .     A
C53    C521    1.396   .     S
C54    H78     1.085   .     S
C54    C69     1.395   .     A
C54    C522    1.396   1_554 S
C55    C206    1.335   .     S
C55    H229    1.088   .     S
C56    C355    1.335   1_545 S
C56    H380    1.088   1_545 S
C57    C62     1.416   .     S
C57    O89     1.286   .     A
C57    O91     1.286   .     A
C58    O92     1.286   .     A
C58    C61     1.416   .     S
C58    O90     1.286   .     A
C59    C61     1.384   .     A
C59    H73     1.086   .     S
C59    C69     1.382   .     A
C60    C62     1.384   .     A
C60    H74     1.086   .     S
C60    C70     1.382   .     A
C61    C63     1.388   .     A
C62    C64     1.388   .     A
C63    H75     1.081   .     S
C63    C65     1.394   .     A
C64    H76     1.081   .     S
C64    C66     1.394   .     A
C65    C71     1.419   .     A
C65    C67     1.424   .     A
C66    C72     1.419   .     A
C66    C68     1.424   .     A
C67    C69     1.413   .     A
C67    C518    1.392   1_554 S
C68    C70     1.413   .     A
C68    C517    1.392   .     S
C71    C95     1.490   .     S
C71    C503    1.396   1_554 S
C72    C98     1.490   .     S
C72    C504    1.396   .     S
H79    C355    1.088   1_545 S
H80    C206    1.088   .     S
H82    N134    1.029   .     S
N83    Zn94    2.020   .     S
N83    H131    1.029   .     S
N83    N134    1.275   .     S
N84    Zn93    2.020   .     S
O85    Zn93    1.955   .     S
O86    Zn94    1.955   .     S
O87    Zn94    1.975   .     S
O88    Zn93    1.975   .     S
O89    Zn93    1.988   .     S
O90    Zn94    1.988   .     S
O91    Zn94    2.014   .     S
O92    Zn93    2.014   .     S
C95    H96     1.082   .     S
C95    O247    1.222   .     S
O97    C395    1.222   1_545 S
C98    H99     1.082   .     S
C98    O400    1.222   1_545 S
O100   C248    1.222   .     S
C101   O137    1.286   .     A
C101   C105    1.400   .     S
C101   O135    1.278   .     A
C102   O138    1.286   .     A
C102   C106    1.400   .     S
C102   O136    1.278   .     A
C103   H127    1.085   .     S
C103   C120    1.395   .     A
C103   C571    1.396   .     S
C104   H128    1.085   .     S
C104   C119    1.395   .     A
C104   C572    1.396   1_554 S
C105   C256    1.335   .     S
C105   H279    1.088   .     S
C106   C405    1.335   1_545 S
C106   H430    1.088   1_545 S
C107   C112    1.416   .     S
C107   O139    1.286   .     A
C107   O141    1.286   .     A
C108   O142    1.286   .     A
C108   C111    1.416   .     S
C108   O140    1.286   .     A
C109   C111    1.384   .     A
C109   H123    1.086   .     S
C109   C119    1.382   .     A
C110   C112    1.384   .     A
C110   H124    1.086   .     S
C110   C120    1.382   .     A
C111   C113    1.388   .     A
C112   C114    1.388   .     A
C113   H125    1.081   .     S
C113   C115    1.394   .     A
C114   H126    1.081   .     S
C114   C116    1.394   .     A
C115   C121    1.419   .     A
C115   C117    1.424   .     A
C116   C122    1.419   .     A
C116   C118    1.424   .     A
C117   C119    1.413   .     A
C117   C568    1.392   1_554 S
C118   C120    1.413   .     A
C118   C567    1.392   .     S
C121   C145    1.490   .     S
C121   C553    1.396   1_554 S
C122   C148    1.490   .     S
C122   C554    1.396   .     S
H129   C405    1.088   1_545 S
H130   C256    1.088   .     S
H132   N34     1.029   1_655 S
N133   Zn144   2.020   .     S
N133   H31     1.029   1_655 S
N133   N34     1.275   1_655 S
N134   Zn143   2.020   .     S
O135   Zn143   1.955   .     S
O136   Zn144   1.955   .     S
O137   Zn144   1.975   .     S
O138   Zn143   1.975   .     S
O139   Zn143   1.988   .     S
O140   Zn144   1.988   .     S
O141   Zn144   2.014   .     S
O142   Zn143   2.014   .     S
C145   H146    1.082   .     S
C145   O297    1.222   .     S
O147   C445    1.222   1_545 S
C148   H149    1.082   .     S
C148   O450    1.222   1_545 S
O150   C298    1.222   .     S
C151   O187    1.286   .     A
C151   C155    1.400   .     S
C151   O185    1.278   .     A
C152   O188    1.286   .     A
C152   C156    1.400   .     S
C152   O186    1.278   .     A
C153   H177    1.085   .     S
C153   C170    1.395   .     A
C153   C621    1.396   .     S
C154   H178    1.085   .     S
C154   C169    1.395   .     A
C154   C622    1.396   1_554 S
C155   C306    1.335   .     S
C155   H329    1.088   .     S
C157   C162    1.416   .     S
C157   O189    1.286   .     A
C157   O191    1.286   .     A
C158   O192    1.286   .     A
C158   C161    1.416   .     S
C158   O190    1.286   .     A
C159   C161    1.384   .     A
C159   H173    1.086   .     S
C159   C169    1.382   .     A
C160   C162    1.384   .     A
C160   H174    1.086   .     S
C160   C170    1.382   .     A
C161   C163    1.388   .     A
C162   C164    1.388   .     A
C163   H175    1.081   .     S
C163   C165    1.394   .     A
C164   H176    1.081   .     S
C164   C166    1.394   .     A
C165   C171    1.419   .     A
C165   C167    1.424   .     A
C166   C172    1.419   .     A
C166   C168    1.424   .     A
C167   C169    1.413   .     A
C167   C618    1.392   1_554 S
C168   C170    1.413   .     A
C168   C617    1.392   .     S
C171   C195    1.490   .     S
C171   C603    1.396   1_554 S
C172   C198    1.490   .     S
C172   C604    1.396   .     S
H180   C306    1.088   .     S
H181   N283    1.029   1_455 S
H182   N234    1.029   .     S
N183   Zn194   2.020   .     S
N183   H231    1.029   .     S
N183   N234    1.275   .     S
N184   Zn193   2.020   .     S
N184   N283    1.275   1_455 S
N184   H282    1.029   1_455 S
O185   Zn193   1.955   .     S
O186   Zn194   1.955   .     S
O187   Zn194   1.975   .     S
O188   Zn193   1.975   .     S
O189   Zn193   1.988   .     S
O190   Zn194   1.988   .     S
O191   Zn194   2.014   .     S
O192   Zn193   2.014   .     S
C195   H196    1.082   .     S
C195   O347    1.222   .     S
C198   H199    1.082   .     S
O200   C348    1.222   .     S
C201   O237    1.286   .     A
C201   C205    1.400   .     S
C201   O235    1.278   .     A
C202   O238    1.286   .     A
C202   C206    1.400   .     S
C202   O236    1.278   .     A
C203   H227    1.085   .     S
C203   C220    1.395   .     A
C203   C671    1.396   .     S
C204   H228    1.085   .     S
C204   C219    1.395   .     A
C204   C672    1.396   1_554 S
C205   C356    1.335   .     S
C205   H379    1.088   .     S
C207   C212    1.416   .     S
C207   O239    1.286   .     A
C207   O241    1.286   .     A
C208   O242    1.286   .     A
C208   C211    1.416   .     S
C208   O240    1.286   .     A
C209   C211    1.384   .     A
C209   H223    1.086   .     S
C209   C219    1.382   .     A
C210   C212    1.384   .     A
C210   H224    1.086   .     S
C210   C220    1.382   .     A
C211   C213    1.388   .     A
C212   C214    1.388   .     A
C213   H225    1.081   .     S
C213   C215    1.394   .     A
C214   H226    1.081   .     S
C214   C216    1.394   .     A
C215   C221    1.419   .     A
C215   C217    1.424   .     A
C216   C222    1.419   .     A
C216   C218    1.424   .     A
C217   C219    1.413   .     A
C217   C668    1.392   1_554 S
C218   C220    1.413   .     A
C218   C667    1.392   .     S
C221   C245    1.490   .     S
C221   C653    1.396   1_554 S
C222   C248    1.490   .     S
C222   C654    1.396   .     S
H230   C356    1.088   .     S
H232   N284    1.029   .     S
N233   Zn244   2.020   .     S
N233   H281    1.029   .     S
N233   N284    1.275   .     S
N234   Zn243   2.020   .     S
O235   Zn243   1.955   .     S
O236   Zn244   1.955   .     S
O237   Zn244   1.975   .     S
O238   Zn243   1.975   .     S
O239   Zn243   1.988   .     S
O240   Zn244   1.988   .     S
O241   Zn244   2.014   .     S
O242   Zn243   2.014   .     S
C245   H246    1.082   .     S
C245   O397    1.222   .     S
C248   H249    1.082   .     S
O250   C398    1.222   .     S
C251   O287    1.286   .     A
C251   C255    1.400   .     S
C251   O285    1.278   .     A
C252   O288    1.286   .     A
C252   C256    1.400   .     S
C252   O286    1.278   .     A
C253   H277    1.085   .     S
C253   C270    1.395   .     A
C253   C721    1.396   .     S
C254   H278    1.085   .     S
C254   C269    1.395   .     A
C254   C722    1.396   1_554 S
C255   C406    1.335   .     S
C255   H429    1.088   .     S
C257   C262    1.416   .     S
C257   O289    1.286   .     A
C257   O291    1.286   .     A
C258   O292    1.286   .     A
C258   C261    1.416   .     S
C258   O290    1.286   .     A
C259   C261    1.384   .     A
C259   H273    1.086   .     S
C259   C269    1.382   .     A
C260   C262    1.384   .     A
C260   H274    1.086   .     S
C260   C270    1.382   .     A
C261   C263    1.388   .     A
C262   C264    1.388   .     A
C263   H275    1.081   .     S
C263   C265    1.394   .     A
C264   H276    1.081   .     S
C264   C266    1.394   .     A
C265   C271    1.419   .     A
C265   C267    1.424   .     A
C266   C272    1.419   .     A
C266   C268    1.424   .     A
C267   C269    1.413   .     A
C267   C718    1.392   1_554 S
C268   C270    1.413   .     A
C268   C717    1.392   .     S
C271   C295    1.490   .     S
C271   C703    1.396   1_554 S
C272   C298    1.490   .     S
C272   C704    1.396   .     S
H280   C406    1.088   .     S
H282   N184    1.029   1_655 S
N283   Zn294   2.020   .     S
N283   H181    1.029   1_655 S
N283   N184    1.275   1_655 S
N284   Zn293   2.020   .     S
O285   Zn293   1.955   .     S
O286   Zn294   1.955   .     S
O287   Zn294   1.975   .     S
O288   Zn293   1.975   .     S
O289   Zn293   1.988   .     S
O290   Zn294   1.988   .     S
O291   Zn294   2.014   .     S
O292   Zn293   2.014   .     S
C295   H296    1.082   .     S
C295   O447    1.222   .     S
C298   H299    1.082   .     S
O300   C448    1.222   .     S
C301   O337    1.286   .     A
C301   C305    1.400   .     S
C301   O335    1.278   .     A
C302   O338    1.286   .     A
C302   C306    1.400   .     S
C302   O336    1.278   .     A
C303   H327    1.085   .     S
C303   C320    1.395   .     A
C303   C771    1.396   .     S
C304   H328    1.085   .     S
C304   C319    1.395   .     A
C304   C772    1.396   1_554 S
C305   C6      1.335   1_565 S
C305   H29     1.088   1_565 S
C307   C312    1.416   .     S
C307   O339    1.286   .     A
C307   O341    1.286   .     A
C308   O342    1.286   .     A
C308   C311    1.416   .     S
C308   O340    1.286   .     A
C309   C311    1.384   .     A
C309   H323    1.086   .     S
C309   C319    1.382   .     A
C310   C312    1.384   .     A
C310   H324    1.086   .     S
C310   C320    1.382   .     A
C311   C313    1.388   .     A
C312   C314    1.388   .     A
C313   H325    1.081   .     S
C313   C315    1.394   .     A
C314   H326    1.081   .     S
C314   C316    1.394   .     A
C315   C321    1.419   .     A
C315   C317    1.424   .     A
C316   C322    1.419   .     A
C316   C318    1.424   .     A
C317   C319    1.413   .     A
C317   C768    1.392   1_554 S
C318   C320    1.413   .     A
C318   C767    1.392   .     S
C321   C345    1.490   .     S
C321   C753    1.396   1_554 S
C322   C348    1.490   .     S
C322   C754    1.396   .     S
H330   C6      1.088   1_565 S
H331   N433    1.029   1_455 S
H332   N384    1.029   .     S
N333   Zn344   2.020   .     S
N333   H381    1.029   .     S
N333   N384    1.275   .     S
N334   Zn343   2.020   .     S
N334   N433    1.275   1_455 S
N334   H432    1.029   1_455 S
O335   Zn343   1.955   .     S
O336   Zn344   1.955   .     S
O337   Zn344   1.975   .     S
O338   Zn343   1.975   .     S
O339   Zn343   1.988   .     S
O340   Zn344   1.988   .     S
O341   Zn344   2.014   .     S
O342   Zn343   2.014   .     S
C345   H346    1.082   .     S
C345   O47     1.222   1_565 S
C348   H349    1.082   .     S
O350   C48     1.222   1_565 S
C351   O387    1.286   .     A
C351   C355    1.400   .     S
C351   O385    1.278   .     A
C352   O388    1.286   .     A
C352   C356    1.400   .     S
C352   O386    1.278   .     A
C353   H377    1.085   .     S
C353   C370    1.395   .     A
C353   C821    1.396   .     S
C354   H378    1.085   .     S
C354   C369    1.395   .     A
C354   C822    1.396   1_554 S
C355   C56     1.335   1_565 S
C355   H79     1.088   1_565 S
C357   C362    1.416   .     S
C357   O389    1.286   .     A
C357   O391    1.286   .     A
C358   O392    1.286   .     A
C358   C361    1.416   .     S
C358   O390    1.286   .     A
C359   C361    1.384   .     A
C359   H373    1.086   .     S
C359   C369    1.382   .     A
C360   C362    1.384   .     A
C360   H374    1.086   .     S
C360   C370    1.382   .     A
C361   C363    1.388   .     A
C362   C364    1.388   .     A
C363   H375    1.081   .     S
C363   C365    1.394   .     A
C364   H376    1.081   .     S
C364   C366    1.394   .     A
C365   C371    1.419   .     A
C365   C367    1.424   .     A
C366   C372    1.419   .     A
C366   C368    1.424   .     A
C367   C369    1.413   .     A
C367   C818    1.392   1_554 S
C368   C370    1.413   .     A
C368   C817    1.392   .     S
C371   C395    1.490   .     S
C371   C803    1.396   1_554 S
C372   C398    1.490   .     S
C372   C804    1.396   .     S
H380   C56     1.088   1_565 S
H382   N434    1.029   .     S
N383   Zn394   2.020   .     S
N383   H431    1.029   .     S
N383   N434    1.275   .     S
N384   Zn393   2.020   .     S
O385   Zn393   1.955   .     S
O386   Zn394   1.955   .     S
O387   Zn394   1.975   .     S
O388   Zn393   1.975   .     S
O389   Zn393   1.988   .     S
O390   Zn394   1.988   .     S
O391   Zn394   2.014   .     S
O392   Zn393   2.014   .     S
C395   H396    1.082   .     S
C395   O97     1.222   1_565 S
C398   H399    1.082   .     S
O400   C98     1.222   1_565 S
C401   O437    1.286   .     A
C401   C405    1.400   .     S
C401   O435    1.278   .     A
C402   O438    1.286   .     A
C402   C406    1.400   .     S
C402   O436    1.278   .     A
C403   H427    1.085   .     S
C403   C420    1.395   .     A
C403   C871    1.396   .     S
C404   H428    1.085   .     S
C404   C419    1.395   .     A
C404   C872    1.396   1_554 S
C405   C106    1.335   1_565 S
C405   H129    1.088   1_565 S
C407   C412    1.416   .     S
C407   O439    1.286   .     A
C407   O441    1.286   .     A
C408   O442    1.286   .     A
C408   C411    1.416   .     S
C408   O440    1.286   .     A
C409   C411    1.384   .     A
C409   H423    1.086   .     S
C409   C419    1.382   .     A
C410   C412    1.384   .     A
C410   H424    1.086   .     S
C410   C420    1.382   .     A
C411   C413    1.388   .     A
C412   C414    1.388   .     A
C413   H425    1.081   .     S
C413   C415    1.394   .     A
C414   H426    1.081   .     S
C414   C416    1.394   .     A
C415   C421    1.419   .     A
C415   C417    1.424   .     A
C416   C422    1.419   .     A
C416   C418    1.424   .     A
C417   C419    1.413   .     A
C417   C868    1.392   1_554 S
C418   C420    1.413   .     A
C418   C867    1.392   .     S
C421   C445    1.490   .     S
C421   C853    1.396   1_554 S
C422   C448    1.490   .     S
C422   C854    1.396   .     S
H430   C106    1.088   1_565 S
H432   N334    1.029   1_655 S
N433   Zn444   2.020   .     S
N433   H331    1.029   1_655 S
N433   N334    1.275   1_655 S
N434   Zn443   2.020   .     S
O435   Zn443   1.955   .     S
O436   Zn444   1.955   .     S
O437   Zn444   1.975   .     S
O438   Zn443   1.975   .     S
O439   Zn443   1.988   .     S
O440   Zn444   1.988   .     S
O441   Zn444   2.014   .     S
O442   Zn443   2.014   .     S
C445   H446    1.082   .     S
C445   O147    1.222   1_565 S
C448   H449    1.082   .     S
O450   C148    1.222   1_565 S
C451   O487    1.286   .     A
C451   C455    1.400   .     S
C451   O485    1.278   .     A
C452   O488    1.286   .     A
C452   C456    1.400   .     S
C452   O486    1.278   .     A
C453   H477    1.085   .     S
C453   C470    1.395   .     A
C453   C21     1.396   1_556 S
C454   H478    1.085   .     S
C454   C469    1.395   .     A
C455   C606    1.335   .     S
C455   H629    1.088   .     S
C456   C755    1.335   1_545 S
C456   H780    1.088   1_545 S
C457   C462    1.416   .     S
C457   O489    1.286   .     A
C457   O491    1.286   .     A
C458   O492    1.286   .     A
C458   C461    1.416   .     S
C458   O490    1.286   .     A
C459   C461    1.384   .     A
C459   H473    1.086   .     S
C459   C469    1.382   .     A
C460   C462    1.384   .     A
C460   H474    1.086   .     S
C460   C470    1.382   .     A
C461   C463    1.388   .     A
C462   C464    1.388   .     A
C463   H475    1.081   .     S
C463   C465    1.394   .     A
C464   H476    1.081   .     S
C464   C466    1.394   .     A
C465   C471    1.419   .     A
C465   C467    1.424   .     A
C466   C472    1.419   .     A
C466   C468    1.424   .     A
C467   C469    1.413   .     A
C468   C470    1.413   .     A
C468   C17     1.392   1_556 S
C471   C495    1.490   .     S
C472   C498    1.490   .     S
C472   C4      1.396   1_556 S
H479   C755    1.088   1_545 S
H480   C606    1.088   .     S
H481   N583    1.029   1_455 S
H482   N534    1.029   .     S
N483   Zn494   2.020   .     S
N483   H531    1.029   .     S
N483   N534    1.275   .     S
N484   Zn493   2.020   .     S
N484   N583    1.275   1_455 S
N484   H582    1.029   1_455 S
O485   Zn493   1.955   .     S
O486   Zn494   1.955   .     S
O487   Zn494   1.975   .     S
O488   Zn493   1.975   .     S
O489   Zn493   1.988   .     S
O490   Zn494   1.988   .     S
O491   Zn494   2.014   .     S
O492   Zn493   2.014   .     S
C495   H496    1.082   .     S
C495   O647    1.222   .     S
O497   C795    1.222   1_545 S
C498   H499    1.082   .     S
C498   O800    1.222   1_545 S
O500   C648    1.222   .     S
C501   O537    1.286   .     A
C501   C505    1.400   .     S
C501   O535    1.278   .     A
C502   O538    1.286   .     A
C502   C506    1.400   .     S
C502   O536    1.278   .     A
C503   H527    1.085   .     S
C503   C520    1.395   .     A
C503   C71     1.396   1_556 S
C504   H528    1.085   .     S
C504   C519    1.395   .     A
C505   C656    1.335   .     S
C505   H679    1.088   .     S
C506   C805    1.335   1_545 S
C506   H830    1.088   1_545 S
C507   C512    1.416   .     S
C507   O539    1.286   .     A
C507   O541    1.286   .     A
C508   O542    1.286   .     A
C508   C511    1.416   .     S
C508   O540    1.286   .     A
C509   C511    1.384   .     A
C509   H523    1.086   .     S
C509   C519    1.382   .     A
C510   C512    1.384   .     A
C510   H524    1.086   .     S
C510   C520    1.382   .     A
C511   C513    1.388   .     A
C512   C514    1.388   .     A
C513   H525    1.081   .     S
C513   C515    1.394   .     A
C514   H526    1.081   .     S
C514   C516    1.394   .     A
C515   C521    1.419   .     A
C515   C517    1.424   .     A
C516   C522    1.419   .     A
C516   C518    1.424   .     A
C517   C519    1.413   .     A
C518   C520    1.413   .     A
C518   C67     1.392   1_556 S
C521   C545    1.490   .     S
C522   C548    1.490   .     S
C522   C54     1.396   1_556 S
H529   C805    1.088   1_545 S
H530   C656    1.088   .     S
H532   N584    1.029   .     S
N533   Zn544   2.020   .     S
N533   H581    1.029   .     S
N533   N584    1.275   .     S
N534   Zn543   2.020   .     S
O535   Zn543   1.955   .     S
O536   Zn544   1.955   .     S
O537   Zn544   1.975   .     S
O538   Zn543   1.975   .     S
O539   Zn543   1.988   .     S
O540   Zn544   1.988   .     S
O541   Zn544   2.014   .     S
O542   Zn543   2.014   .     S
C545   H546    1.082   .     S
C545   O697    1.222   .     S
O547   C845    1.222   1_545 S
C548   H549    1.082   .     S
C548   O850    1.222   1_545 S
O550   C698    1.222   .     S
C551   O587    1.286   .     A
C551   C555    1.400   .     S
C551   O585    1.278   .     A
C552   O588    1.286   .     A
C552   C556    1.400   .     S
C552   O586    1.278   .     A
C553   H577    1.085   .     S
C553   C570    1.395   .     A
C553   C121    1.396   1_556 S
C554   H578    1.085   .     S
C554   C569    1.395   .     A
C555   C706    1.335   .     S
C555   H729    1.088   .     S
C556   C855    1.335   1_545 S
C556   H880    1.088   1_545 S
C557   C562    1.416   .     S
C557   O589    1.286   .     A
C557   O591    1.286   .     A
C558   O592    1.286   .     A
C558   C561    1.416   .     S
C558   O590    1.286   .     A
C559   C561    1.384   .     A
C559   H573    1.086   .     S
C559   C569    1.382   .     A
C560   C562    1.384   .     A
C560   H574    1.086   .     S
C560   C570    1.382   .     A
C561   C563    1.388   .     A
C562   C564    1.388   .     A
C563   H575    1.081   .     S
C563   C565    1.394   .     A
C564   H576    1.081   .     S
C564   C566    1.394   .     A
C565   C571    1.419   .     A
C565   C567    1.424   .     A
C566   C572    1.419   .     A
C566   C568    1.424   .     A
C567   C569    1.413   .     A
C568   C570    1.413   .     A
C568   C117    1.392   1_556 S
C571   C595    1.490   .     S
C572   C598    1.490   .     S
C572   C104    1.396   1_556 S
H579   C855    1.088   1_545 S
H580   C706    1.088   .     S
H582   N484    1.029   1_655 S
N583   Zn594   2.020   .     S
N583   H481    1.029   1_655 S
N583   N484    1.275   1_655 S
N584   Zn593   2.020   .     S
O585   Zn593   1.955   .     S
O586   Zn594   1.955   .     S
O587   Zn594   1.975   .     S
O588   Zn593   1.975   .     S
O589   Zn593   1.988   .     S
O590   Zn594   1.988   .     S
O591   Zn594   2.014   .     S
O592   Zn593   2.014   .     S
C595   H596    1.082   .     S
C595   O747    1.222   .     S
O597   C895    1.222   1_545 S
C598   H599    1.082   .     S
C598   O900    1.222   1_545 S
O600   C748    1.222   .     S
C601   O637    1.286   .     A
C601   C605    1.400   .     S
C601   O635    1.278   .     A
C602   O638    1.286   .     A
C602   C606    1.400   .     S
C602   O636    1.278   .     A
C603   H627    1.085   .     S
C603   C620    1.395   .     A
C603   C171    1.396   1_556 S
C604   H628    1.085   .     S
C604   C619    1.395   .     A
C605   C756    1.335   .     S
C605   H779    1.088   .     S
C607   C612    1.416   .     S
C607   O639    1.286   .     A
C607   O641    1.286   .     A
C608   O642    1.286   .     A
C608   C611    1.416   .     S
C608   O640    1.286   .     A
C609   C611    1.384   .     A
C609   H623    1.086   .     S
C609   C619    1.382   .     A
C610   C612    1.384   .     A
C610   H624    1.086   .     S
C610   C620    1.382   .     A
C611   C613    1.388   .     A
C612   C614    1.388   .     A
C613   H625    1.081   .     S
C613   C615    1.394   .     A
C614   H626    1.081   .     S
C614   C616    1.394   .     A
C615   C621    1.419   .     A
C615   C617    1.424   .     A
C616   C622    1.419   .     A
C616   C618    1.424   .     A
C617   C619    1.413   .     A
C618   C620    1.413   .     A
C618   C167    1.392   1_556 S
C621   C645    1.490   .     S
C622   C648    1.490   .     S
C622   C154    1.396   1_556 S
H630   C756    1.088   .     S
H631   N733    1.029   1_455 S
H632   N684    1.029   .     S
N633   Zn644   2.020   .     S
N633   H681    1.029   .     S
N633   N684    1.275   .     S
N634   Zn643   2.020   .     S
N634   N733    1.275   1_455 S
N634   H732    1.029   1_455 S
O635   Zn643   1.955   .     S
O636   Zn644   1.955   .     S
O637   Zn644   1.975   .     S
O638   Zn643   1.975   .     S
O639   Zn643   1.988   .     S
O640   Zn644   1.988   .     S
O641   Zn644   2.014   .     S
O642   Zn643   2.014   .     S
C645   H646    1.082   .     S
C645   O797    1.222   .     S
C648   H649    1.082   .     S
O650   C798    1.222   .     S
C651   O687    1.286   .     A
C651   C655    1.400   .     S
C651   O685    1.278   .     A
C652   O688    1.286   .     A
C652   C656    1.400   .     S
C652   O686    1.278   .     A
C653   H677    1.085   .     S
C653   C670    1.395   .     A
C653   C221    1.396   1_556 S
C654   H678    1.085   .     S
C654   C669    1.395   .     A
C655   C806    1.335   .     S
C655   H829    1.088   .     S
C657   C662    1.416   .     S
C657   O689    1.286   .     A
C657   O691    1.286   .     A
C658   O692    1.286   .     A
C658   C661    1.416   .     S
C658   O690    1.286   .     A
C659   C661    1.384   .     A
C659   H673    1.086   .     S
C659   C669    1.382   .     A
C660   C662    1.384   .     A
C660   H674    1.086   .     S
C660   C670    1.382   .     A
C661   C663    1.388   .     A
C662   C664    1.388   .     A
C663   H675    1.081   .     S
C663   C665    1.394   .     A
C664   H676    1.081   .     S
C664   C666    1.394   .     A
C665   C671    1.419   .     A
C665   C667    1.424   .     A
C666   C672    1.419   .     A
C666   C668    1.424   .     A
C667   C669    1.413   .     A
C668   C670    1.413   .     A
C668   C217    1.392   1_556 S
C671   C695    1.490   .     S
C672   C698    1.490   .     S
C672   C204    1.396   1_556 S
H680   C806    1.088   .     S
H682   N734    1.029   .     S
N683   Zn694   2.020   .     S
N683   H731    1.029   .     S
N683   N734    1.275   .     S
N684   Zn693   2.020   .     S
O685   Zn693   1.955   .     S
O686   Zn694   1.955   .     S
O687   Zn694   1.975   .     S
O688   Zn693   1.975   .     S
O689   Zn693   1.988   .     S
O690   Zn694   1.988   .     S
O691   Zn694   2.014   .     S
O692   Zn693   2.014   .     S
C695   H696    1.082   .     S
C695   O847    1.222   .     S
C698   H699    1.082   .     S
O700   C848    1.222   .     S
C701   O737    1.286   .     A
C701   C705    1.400   .     S
C701   O735    1.278   .     A
C702   O738    1.286   .     A
C702   C706    1.400   .     S
C702   O736    1.278   .     A
C703   H727    1.085   .     S
C703   C720    1.395   .     A
C703   C271    1.396   1_556 S
C704   H728    1.085   .     S
C704   C719    1.395   .     A
C705   C856    1.335   .     S
C705   H879    1.088   .     S
C707   C712    1.416   .     S
C707   O739    1.286   .     A
C707   O741    1.286   .     A
C708   O742    1.286   .     A
C708   C711    1.416   .     S
C708   O740    1.286   .     A
C709   C711    1.384   .     A
C709   H723    1.086   .     S
C709   C719    1.382   .     A
C710   C712    1.384   .     A
C710   H724    1.086   .     S
C710   C720    1.382   .     A
C711   C713    1.388   .     A
C712   C714    1.388   .     A
C713   H725    1.081   .     S
C713   C715    1.394   .     A
C714   H726    1.081   .     S
C714   C716    1.394   .     A
C715   C721    1.419   .     A
C715   C717    1.424   .     A
C716   C722    1.419   .     A
C716   C718    1.424   .     A
C717   C719    1.413   .     A
C718   C720    1.413   .     A
C718   C267    1.392   1_556 S
C721   C745    1.490   .     S
C722   C748    1.490   .     S
C722   C254    1.396   1_556 S
H730   C856    1.088   .     S
H732   N634    1.029   1_655 S
N733   Zn744   2.020   .     S
N733   H631    1.029   1_655 S
N733   N634    1.275   1_655 S
N734   Zn743   2.020   .     S
O735   Zn743   1.955   .     S
O736   Zn744   1.955   .     S
O737   Zn744   1.975   .     S
O738   Zn743   1.975   .     S
O739   Zn743   1.988   .     S
O740   Zn744   1.988   .     S
O741   Zn744   2.014   .     S
O742   Zn743   2.014   .     S
C745   H746    1.082   .     S
C745   O897    1.222   .     S
C748   H749    1.082   .     S
O750   C898    1.222   .     S
C751   O787    1.286   .     A
C751   C755    1.400   .     S
C751   O785    1.278   .     A
C752   O788    1.286   .     A
C752   C756    1.400   .     S
C752   O786    1.278   .     A
C753   H777    1.085   .     S
C753   C770    1.395   .     A
C753   C321    1.396   1_556 S
C754   H778    1.085   .     S
C754   C769    1.395   .     A
C755   C456    1.335   1_565 S
C755   H479    1.088   1_565 S
C757   C762    1.416   .     S
C757   O789    1.286   .     A
C757   O791    1.286   .     A
C758   O792    1.286   .     A
C758   C761    1.416   .     S
C758   O790    1.286   .     A
C759   C761    1.384   .     A
C759   H773    1.086   .     S
C759   C769    1.382   .     A
C760   C762    1.384   .     A
C760   H774    1.086   .     S
C760   C770    1.382   .     A
C761   C763    1.388   .     A
C762   C764    1.388   .     A
C763   H775    1.081   .     S
C763   C765    1.394   .     A
C764   H776    1.081   .     S
C764   C766    1.394   .     A
C765   C771    1.419   .     A
C765   C767    1.424   .     A
C766   C772    1.419   .     A
C766   C768    1.424   .     A
C767   C769    1.413   .     A
C768   C770    1.413   .     A
C768   C317    1.392   1_556 S
C771   C795    1.490   .     S
C772   C798    1.490   .     S
C772   C304    1.396   1_556 S
H780   C456    1.088   1_565 S
H781   N883    1.029   1_455 S
H782   N834    1.029   .     S
N783   Zn794   2.020   .     S
N783   H831    1.029   .     S
N783   N834    1.275   .     S
N784   Zn793   2.020   .     S
N784   N883    1.275   1_455 S
N784   H882    1.029   1_455 S
O785   Zn793   1.955   .     S
O786   Zn794   1.955   .     S
O787   Zn794   1.975   .     S
O788   Zn793   1.975   .     S
O789   Zn793   1.988   .     S
O790   Zn794   1.988   .     S
O791   Zn794   2.014   .     S
O792   Zn793   2.014   .     S
C795   H796    1.082   .     S
C795   O497    1.222   1_565 S
C798   H799    1.082   .     S
O800   C498    1.222   1_565 S
C801   O837    1.286   .     A
C801   C805    1.400   .     S
C801   O835    1.278   .     A
C802   O838    1.286   .     A
C802   C806    1.400   .     S
C802   O836    1.278   .     A
C803   H827    1.085   .     S
C803   C820    1.395   .     A
C803   C371    1.396   1_556 S
C804   H828    1.085   .     S
C804   C819    1.395   .     A
C805   C506    1.335   1_565 S
C805   H529    1.088   1_565 S
C807   C812    1.416   .     S
C807   O839    1.286   .     A
C807   O841    1.286   .     A
C808   O842    1.286   .     A
C808   C811    1.416   .     S
C808   O840    1.286   .     A
C809   C811    1.384   .     A
C809   H823    1.086   .     S
C809   C819    1.382   .     A
C810   C812    1.384   .     A
C810   H824    1.086   .     S
C810   C820    1.382   .     A
C811   C813    1.388   .     A
C812   C814    1.388   .     A
C813   H825    1.081   .     S
C813   C815    1.394   .     A
C814   H826    1.081   .     S
C814   C816    1.394   .     A
C815   C821    1.419   .     A
C815   C817    1.424   .     A
C816   C822    1.419   .     A
C816   C818    1.424   .     A
C817   C819    1.413   .     A
C818   C820    1.413   .     A
C818   C367    1.392   1_556 S
C821   C845    1.490   .     S
C822   C848    1.490   .     S
C822   C354    1.396   1_556 S
H830   C506    1.088   1_565 S
H832   N884    1.029   .     S
N833   Zn844   2.020   .     S
N833   H881    1.029   .     S
N833   N884    1.275   .     S
N834   Zn843   2.020   .     S
O835   Zn843   1.955   .     S
O836   Zn844   1.955   .     S
O837   Zn844   1.975   .     S
O838   Zn843   1.975   .     S
O839   Zn843   1.988   .     S
O840   Zn844   1.988   .     S
O841   Zn844   2.014   .     S
O842   Zn843   2.014   .     S
C845   H846    1.082   .     S
C845   O547    1.222   1_565 S
C848   H849    1.082   .     S
O850   C548    1.222   1_565 S
C851   O887    1.286   .     A
C851   C855    1.400   .     S
C851   O885    1.278   .     A
C852   O888    1.286   .     A
C852   C856    1.400   .     S
C852   O886    1.278   .     A
C853   H877    1.085   .     S
C853   C870    1.395   .     A
C853   C421    1.396   1_556 S
C854   H878    1.085   .     S
C854   C869    1.395   .     A
C855   C556    1.335   1_565 S
C855   H579    1.088   1_565 S
C857   C862    1.416   .     S
C857   O889    1.286   .     A
C857   O891    1.286   .     A
C858   O892    1.286   .     A
C858   C861    1.416   .     S
C858   O890    1.286   .     A
C859   C861    1.384   .     A
C859   H873    1.086   .     S
C859   C869    1.382   .     A
C860   C862    1.384   .     A
C860   H874    1.086   .     S
C860   C870    1.382   .     A
C861   C863    1.388   .     A
C862   C864    1.388   .     A
C863   H875    1.081   .     S
C863   C865    1.394   .     A
C864   H876    1.081   .     S
C864   C866    1.394   .     A
C865   C871    1.419   .     A
C865   C867    1.424   .     A
C866   C872    1.419   .     A
C866   C868    1.424   .     A
C867   C869    1.413   .     A
C868   C870    1.413   .     A
C868   C417    1.392   1_556 S
C871   C895    1.490   .     S
C872   C898    1.490   .     S
C872   C404    1.396   1_556 S
H880   C556    1.088   1_565 S
H882   N784    1.029   1_655 S
N883   Zn894   2.020   .     S
N883   H781    1.029   1_655 S
N883   N784    1.275   1_655 S
N884   Zn893   2.020   .     S
O885   Zn893   1.955   .     S
O886   Zn894   1.955   .     S
O887   Zn894   1.975   .     S
O888   Zn893   1.975   .     S
O889   Zn893   1.988   .     S
O890   Zn894   1.988   .     S
O891   Zn894   2.014   .     S
O892   Zn893   2.014   .     S
C895   H896    1.082   .     S
C895   O597    1.222   1_565 S
C898   H899    1.082   .     S
O900   C598    1.222   1_565 S
