data_str_m3_o10_o16_pcu_sym.194
_audit_creation_date              2020-01-03
_audit_creation_method            'Materials Studio'
_symmetry_space_group_name_H-M    'P1'
_symmetry_Int_Tables_number       1
_symmetry_cell_setting            triclinic
loop_
_symmetry_equiv_pos_as_xyz
  x,y,z
_cell_length_a                    23.5772
_cell_length_b                    25.6858
_cell_length_c                    24.0821
_cell_angle_alpha                 92.7499
_cell_angle_beta                  101.1549
_cell_angle_gamma                 94.0635
loop_
_atom_site_label
_atom_site_type_symbol
_atom_site_fract_x
_atom_site_fract_y
_atom_site_fract_z
_atom_site_U_iso_or_equiv
_atom_site_adp_type
_atom_site_occupancy
C1     C     0.01482   0.26486   0.24868   0.00000  Uiso   1.00
C2     C     0.13239   0.16158   0.49513   0.00000  Uiso   1.00
C3     C     0.10335   0.14434   0.44013   0.00000  Uiso   1.00
C4     C     0.19028   0.14919   0.01287   0.00000  Uiso   1.00
C5     C     0.21196   0.10874   0.48244   0.00000  Uiso   1.00
C6     C     0.17865   0.08602   0.43181   0.00000  Uiso   1.00
C7     C     0.12548   0.10446   0.41009   0.00000  Uiso   1.00
C8     C     0.22798   0.17602   0.05923   0.00000  Uiso   1.00
C9     C     0.29785   0.11159   0.05588   0.00000  Uiso   1.00
C10    C     0.05290   0.16781   0.41655   0.00000  Uiso   1.00
C11    C     0.02255   0.31944   0.24802   0.00000  Uiso   1.00
C12    C     0.03528   0.16803   0.35529   0.00000  Uiso   1.00
C13    C     0.31086   0.01391   0.25225   0.00000  Uiso   1.00
C14    C     0.31854   0.06847   0.25140   0.00000  Uiso   1.00
C15    C     0.29765   0.16300   0.14478   0.00000  Uiso   1.00
C16    C     0.26645   0.09123   0.00352   0.00000  Uiso   1.00
C17    C     0.27741   0.15293   0.08435   0.00000  Uiso   1.00
C18    C     0.02412   0.19719   0.45147   0.00000  Uiso   1.00
C19    C     0.04750   0.20576   0.00899   0.00000  Uiso   1.00
C20    C     0.10161   0.18870   0.03079   0.00000  Uiso   1.00
H21    H     0.00332   0.09385   0.07507   0.00000  Uiso   1.00
H22    H     0.26841   0.33014   0.25628   0.00000  Uiso   1.00
H23    H     0.15643   0.12408   0.20875   0.00000  Uiso   1.00
H24    H     0.19428   0.05486   0.40833   0.00000  Uiso   1.00
H25    H     0.28297   0.05977   0.48130   0.00000  Uiso   1.00
H26    H     0.31771   0.21442   0.43413   0.00000  Uiso   1.00
H27    H     0.11805   0.19558   0.07583   0.00000  Uiso   1.00
H28    H     0.02470   0.22728   0.03633   0.00000  Uiso   1.00
H29    H     0.10103   0.08610   0.37045   0.00000  Uiso   1.00
H30    H     0.06501   0.00321   0.24403   0.00000  Uiso   1.00
N31    N     0.14493   0.15223   0.23543   0.00000  Uiso   1.00
N32    N     0.18840   0.18110   0.26458   0.00000  Uiso   1.00
O33    O     0.29769   0.24629   0.25358   0.00000  Uiso   1.00
O34    O     0.05742   0.23704   0.24424   0.00000  Uiso   1.00
O35    O     0.31490   0.17358   0.33380   0.00000  Uiso   1.00
O36    O     0.07463   0.16433   0.32446   0.00000  Uiso   1.00
O37    O     0.27592   0.09629   0.25577   0.00000  Uiso   1.00
O38    O     0.03565   0.08704   0.24643   0.00000  Uiso   1.00
O39    O     0.25870   0.16901   0.17554   0.00000  Uiso   1.00
O40    O     0.01843   0.15976   0.16620   0.00000  Uiso   1.00
Zn41   Zn    0.27119   0.17284   0.25624   0.00000  Uiso   1.00
Zn42   Zn    0.06214   0.16049   0.24377   0.00000  Uiso   1.00
Cl43   Cl    0.17408   0.23061   0.30957   0.00000  Uiso   1.00
C44    C     0.22061   0.22924   0.07828   0.00000  Uiso   1.00
N45    N     0.21506   0.27168   0.09351   0.00000  Uiso   1.00
C46    C     0.34815   0.26486   0.24868   0.00000  Uiso   1.00
C47    C     0.46573   0.16158   0.49513   0.00000  Uiso   1.00
C48    C     0.43668   0.14434   0.44013   0.00000  Uiso   1.00
C49    C     0.52362   0.14919   0.01287   0.00000  Uiso   1.00
C50    C     0.54529   0.10874   0.48244   0.00000  Uiso   1.00
C51    C     0.51198   0.08602   0.43181   0.00000  Uiso   1.00
C52    C     0.45882   0.10446   0.41009   0.00000  Uiso   1.00
C53    C     0.56131   0.17602   0.05923   0.00000  Uiso   1.00
C54    C     0.63118   0.11159   0.05588   0.00000  Uiso   1.00
C55    C     0.38624   0.16781   0.41655   0.00000  Uiso   1.00
C56    C     0.35588   0.31944   0.24802   0.00000  Uiso   1.00
C57    C     0.36861   0.16803   0.35529   0.00000  Uiso   1.00
C58    C     0.64419   0.01391   0.25225   0.00000  Uiso   1.00
C59    C     0.65187   0.06847   0.25140   0.00000  Uiso   1.00
C60    C     0.63098   0.16300   0.14478   0.00000  Uiso   1.00
C61    C     0.59978   0.09123   0.00352   0.00000  Uiso   1.00
C62    C     0.61075   0.15293   0.08435   0.00000  Uiso   1.00
C63    C     0.35745   0.19719   0.45147   0.00000  Uiso   1.00
C64    C     0.38083   0.20576   0.00899   0.00000  Uiso   1.00
C65    C     0.43494   0.18870   0.03079   0.00000  Uiso   1.00
H66    H     0.33665   0.09385   0.07507   0.00000  Uiso   1.00
H67    H     0.60174   0.33014   0.25628   0.00000  Uiso   1.00
H68    H     0.48977   0.12408   0.20875   0.00000  Uiso   1.00
H69    H     0.52761   0.05486   0.40833   0.00000  Uiso   1.00
H70    H     0.61630   0.05977   0.48130   0.00000  Uiso   1.00
H71    H     0.65104   0.21442   0.43413   0.00000  Uiso   1.00
H72    H     0.45138   0.19558   0.07583   0.00000  Uiso   1.00
H73    H     0.35804   0.22728   0.03633   0.00000  Uiso   1.00
H74    H     0.43436   0.08610   0.37045   0.00000  Uiso   1.00
H75    H     0.39834   0.00321   0.24403   0.00000  Uiso   1.00
N76    N     0.47827   0.15223   0.23543   0.00000  Uiso   1.00
N77    N     0.52173   0.18110   0.26458   0.00000  Uiso   1.00
O78    O     0.63102   0.24629   0.25358   0.00000  Uiso   1.00
O79    O     0.39075   0.23704   0.24424   0.00000  Uiso   1.00
O80    O     0.64823   0.17358   0.33380   0.00000  Uiso   1.00
O81    O     0.40796   0.16433   0.32446   0.00000  Uiso   1.00
O82    O     0.60925   0.09629   0.25577   0.00000  Uiso   1.00
O83    O     0.36898   0.08704   0.24643   0.00000  Uiso   1.00
O84    O     0.59204   0.16901   0.17554   0.00000  Uiso   1.00
O85    O     0.35177   0.15976   0.16620   0.00000  Uiso   1.00
Zn86   Zn    0.60453   0.17284   0.25624   0.00000  Uiso   1.00
Zn87   Zn    0.39547   0.16049   0.24377   0.00000  Uiso   1.00
Cl88   Cl    0.50741   0.23061   0.30957   0.00000  Uiso   1.00
C89    C     0.55394   0.22924   0.07828   0.00000  Uiso   1.00
N90    N     0.54839   0.27168   0.09351   0.00000  Uiso   1.00
C91    C     0.68149   0.26486   0.24868   0.00000  Uiso   1.00
C92    C     0.79906   0.16158   0.49513   0.00000  Uiso   1.00
C93    C     0.77001   0.14434   0.44013   0.00000  Uiso   1.00
C94    C     0.85695   0.14919   0.01287   0.00000  Uiso   1.00
C95    C     0.87863   0.10874   0.48244   0.00000  Uiso   1.00
C96    C     0.84531   0.08602   0.43181   0.00000  Uiso   1.00
C97    C     0.79215   0.10446   0.41009   0.00000  Uiso   1.00
C98    C     0.89464   0.17602   0.05923   0.00000  Uiso   1.00
C99    C     0.96452   0.11159   0.05588   0.00000  Uiso   1.00
C100   C     0.71957   0.16781   0.41655   0.00000  Uiso   1.00
C101   C     0.68922   0.31944   0.24802   0.00000  Uiso   1.00
C102   C     0.70195   0.16803   0.35529   0.00000  Uiso   1.00
C103   C     0.97753   0.01391   0.25225   0.00000  Uiso   1.00
C104   C     0.98520   0.06847   0.25140   0.00000  Uiso   1.00
C105   C     0.96432   0.16300   0.14478   0.00000  Uiso   1.00
C106   C     0.93312   0.09123   0.00352   0.00000  Uiso   1.00
C107   C     0.94408   0.15293   0.08435   0.00000  Uiso   1.00
C108   C     0.69078   0.19719   0.45147   0.00000  Uiso   1.00
C109   C     0.71416   0.20576   0.00899   0.00000  Uiso   1.00
C110   C     0.76828   0.18870   0.03079   0.00000  Uiso   1.00
H111   H     0.66998   0.09385   0.07507   0.00000  Uiso   1.00
H112   H     0.93508   0.33014   0.25628   0.00000  Uiso   1.00
H113   H     0.82310   0.12408   0.20875   0.00000  Uiso   1.00
H114   H     0.86094   0.05486   0.40833   0.00000  Uiso   1.00
H115   H     0.94964   0.05977   0.48130   0.00000  Uiso   1.00
H116   H     0.98438   0.21442   0.43413   0.00000  Uiso   1.00
H117   H     0.78471   0.19558   0.07583   0.00000  Uiso   1.00
H118   H     0.69137   0.22728   0.03633   0.00000  Uiso   1.00
H119   H     0.76770   0.08610   0.37045   0.00000  Uiso   1.00
H120   H     0.73168   0.00321   0.24403   0.00000  Uiso   1.00
N121   N     0.81160   0.15223   0.23543   0.00000  Uiso   1.00
N122   N     0.85507   0.18110   0.26458   0.00000  Uiso   1.00
O123   O     0.96435   0.24629   0.25358   0.00000  Uiso   1.00
O124   O     0.72408   0.23704   0.24424   0.00000  Uiso   1.00
O125   O     0.98157   0.17358   0.33380   0.00000  Uiso   1.00
O126   O     0.74130   0.16433   0.32446   0.00000  Uiso   1.00
O127   O     0.94258   0.09629   0.25577   0.00000  Uiso   1.00
O128   O     0.70231   0.08704   0.24643   0.00000  Uiso   1.00
O129   O     0.92537   0.16901   0.17554   0.00000  Uiso   1.00
O130   O     0.68510   0.15976   0.16620   0.00000  Uiso   1.00
Zn131  Zn    0.93786   0.17284   0.25624   0.00000  Uiso   1.00
Zn132  Zn    0.72881   0.16049   0.24377   0.00000  Uiso   1.00
Cl133  Cl    0.84075   0.23061   0.30957   0.00000  Uiso   1.00
C134   C     0.88728   0.22924   0.07828   0.00000  Uiso   1.00
N135   N     0.88173   0.27168   0.09351   0.00000  Uiso   1.00
C136   C     0.01482   0.59819   0.24868   0.00000  Uiso   1.00
C137   C     0.13239   0.49491   0.49513   0.00000  Uiso   1.00
C138   C     0.10335   0.47767   0.44013   0.00000  Uiso   1.00
C139   C     0.19028   0.48252   0.01287   0.00000  Uiso   1.00
C140   C     0.21196   0.44208   0.48244   0.00000  Uiso   1.00
C141   C     0.17865   0.41935   0.43181   0.00000  Uiso   1.00
C142   C     0.12548   0.43780   0.41009   0.00000  Uiso   1.00
C143   C     0.22798   0.50936   0.05923   0.00000  Uiso   1.00
C144   C     0.29785   0.44492   0.05588   0.00000  Uiso   1.00
C145   C     0.05290   0.50114   0.41655   0.00000  Uiso   1.00
C146   C     0.02255   0.65277   0.24802   0.00000  Uiso   1.00
C147   C     0.03528   0.50136   0.35529   0.00000  Uiso   1.00
C148   C     0.31086   0.34724   0.25225   0.00000  Uiso   1.00
C149   C     0.31854   0.40181   0.25140   0.00000  Uiso   1.00
C150   C     0.29765   0.49634   0.14478   0.00000  Uiso   1.00
C151   C     0.26645   0.42456   0.00352   0.00000  Uiso   1.00
C152   C     0.27741   0.48627   0.08435   0.00000  Uiso   1.00
C153   C     0.02412   0.53052   0.45147   0.00000  Uiso   1.00
C154   C     0.04750   0.53910   0.00899   0.00000  Uiso   1.00
C155   C     0.10161   0.52203   0.03079   0.00000  Uiso   1.00
H156   H     0.00332   0.42718   0.07507   0.00000  Uiso   1.00
H157   H     0.26841   0.66347   0.25628   0.00000  Uiso   1.00
H158   H     0.15643   0.45741   0.20875   0.00000  Uiso   1.00
H159   H     0.19428   0.38820   0.40833   0.00000  Uiso   1.00
H160   H     0.28297   0.39311   0.48130   0.00000  Uiso   1.00
H161   H     0.31771   0.54775   0.43413   0.00000  Uiso   1.00
H162   H     0.11805   0.52891   0.07583   0.00000  Uiso   1.00
H163   H     0.02470   0.56062   0.03633   0.00000  Uiso   1.00
H164   H     0.10103   0.41944   0.37045   0.00000  Uiso   1.00
H165   H     0.06501   0.33654   0.24403   0.00000  Uiso   1.00
N166   N     0.14493   0.48556   0.23543   0.00000  Uiso   1.00
N167   N     0.18840   0.51444   0.26458   0.00000  Uiso   1.00
O168   O     0.29769   0.57963   0.25358   0.00000  Uiso   1.00
O169   O     0.05742   0.57038   0.24424   0.00000  Uiso   1.00
O170   O     0.31490   0.50691   0.33380   0.00000  Uiso   1.00
O171   O     0.07463   0.49766   0.32446   0.00000  Uiso   1.00
O172   O     0.27592   0.42962   0.25577   0.00000  Uiso   1.00
O173   O     0.03565   0.42037   0.24643   0.00000  Uiso   1.00
O174   O     0.25870   0.50234   0.17554   0.00000  Uiso   1.00
O175   O     0.01843   0.49309   0.16620   0.00000  Uiso   1.00
Zn176  Zn    0.27119   0.50618   0.25624   0.00000  Uiso   1.00
Zn177  Zn    0.06214   0.49382   0.24377   0.00000  Uiso   1.00
Cl178  Cl    0.17408   0.56395   0.30957   0.00000  Uiso   1.00
C179   C     0.22061   0.56258   0.07828   0.00000  Uiso   1.00
N180   N     0.21506   0.60501   0.09351   0.00000  Uiso   1.00
C181   C     0.34815   0.59819   0.24868   0.00000  Uiso   1.00
C182   C     0.46573   0.49491   0.49513   0.00000  Uiso   1.00
C183   C     0.43668   0.47767   0.44013   0.00000  Uiso   1.00
C184   C     0.52362   0.48252   0.01287   0.00000  Uiso   1.00
C185   C     0.54529   0.44208   0.48244   0.00000  Uiso   1.00
C186   C     0.51198   0.41935   0.43181   0.00000  Uiso   1.00
C187   C     0.45882   0.43780   0.41009   0.00000  Uiso   1.00
C188   C     0.56131   0.50936   0.05923   0.00000  Uiso   1.00
C189   C     0.63118   0.44492   0.05588   0.00000  Uiso   1.00
C190   C     0.38624   0.50114   0.41655   0.00000  Uiso   1.00
C191   C     0.35588   0.65277   0.24802   0.00000  Uiso   1.00
C192   C     0.36861   0.50136   0.35529   0.00000  Uiso   1.00
C193   C     0.64419   0.34724   0.25225   0.00000  Uiso   1.00
C194   C     0.65187   0.40181   0.25140   0.00000  Uiso   1.00
C195   C     0.63098   0.49634   0.14478   0.00000  Uiso   1.00
C196   C     0.59978   0.42456   0.00352   0.00000  Uiso   1.00
C197   C     0.61075   0.48627   0.08435   0.00000  Uiso   1.00
C198   C     0.35745   0.53052   0.45147   0.00000  Uiso   1.00
C199   C     0.38083   0.53910   0.00899   0.00000  Uiso   1.00
C200   C     0.43494   0.52203   0.03079   0.00000  Uiso   1.00
H201   H     0.33665   0.42718   0.07507   0.00000  Uiso   1.00
H202   H     0.60174   0.66347   0.25628   0.00000  Uiso   1.00
H203   H     0.48977   0.45741   0.20875   0.00000  Uiso   1.00
H204   H     0.52761   0.38820   0.40833   0.00000  Uiso   1.00
H205   H     0.61630   0.39311   0.48130   0.00000  Uiso   1.00
H206   H     0.65104   0.54775   0.43413   0.00000  Uiso   1.00
H207   H     0.45138   0.52891   0.07583   0.00000  Uiso   1.00
H208   H     0.35804   0.56062   0.03633   0.00000  Uiso   1.00
H209   H     0.43436   0.41944   0.37045   0.00000  Uiso   1.00
H210   H     0.39834   0.33654   0.24403   0.00000  Uiso   1.00
N211   N     0.47827   0.48556   0.23543   0.00000  Uiso   1.00
N212   N     0.52173   0.51444   0.26458   0.00000  Uiso   1.00
O213   O     0.63102   0.57963   0.25358   0.00000  Uiso   1.00
O214   O     0.39075   0.57038   0.24424   0.00000  Uiso   1.00
O215   O     0.64823   0.50691   0.33380   0.00000  Uiso   1.00
O216   O     0.40796   0.49766   0.32446   0.00000  Uiso   1.00
O217   O     0.60925   0.42962   0.25577   0.00000  Uiso   1.00
O218   O     0.36898   0.42037   0.24643   0.00000  Uiso   1.00
O219   O     0.59204   0.50234   0.17554   0.00000  Uiso   1.00
O220   O     0.35177   0.49309   0.16620   0.00000  Uiso   1.00
Zn221  Zn    0.60453   0.50618   0.25624   0.00000  Uiso   1.00
Zn222  Zn    0.39547   0.49382   0.24377   0.00000  Uiso   1.00
Cl223  Cl    0.50741   0.56395   0.30957   0.00000  Uiso   1.00
C224   C     0.55394   0.56258   0.07828   0.00000  Uiso   1.00
N225   N     0.54839   0.60501   0.09351   0.00000  Uiso   1.00
C226   C     0.68149   0.59819   0.24868   0.00000  Uiso   1.00
C227   C     0.79906   0.49491   0.49513   0.00000  Uiso   1.00
C228   C     0.77001   0.47767   0.44013   0.00000  Uiso   1.00
C229   C     0.85695   0.48252   0.01287   0.00000  Uiso   1.00
C230   C     0.87863   0.44208   0.48244   0.00000  Uiso   1.00
C231   C     0.84531   0.41935   0.43181   0.00000  Uiso   1.00
C232   C     0.79215   0.43780   0.41009   0.00000  Uiso   1.00
C233   C     0.89464   0.50936   0.05923   0.00000  Uiso   1.00
C234   C     0.96452   0.44492   0.05588   0.00000  Uiso   1.00
C235   C     0.71957   0.50114   0.41655   0.00000  Uiso   1.00
C236   C     0.68922   0.65277   0.24802   0.00000  Uiso   1.00
C237   C     0.70195   0.50136   0.35529   0.00000  Uiso   1.00
C238   C     0.97753   0.34724   0.25225   0.00000  Uiso   1.00
C239   C     0.98520   0.40181   0.25140   0.00000  Uiso   1.00
C240   C     0.96432   0.49634   0.14478   0.00000  Uiso   1.00
C241   C     0.93312   0.42456   0.00352   0.00000  Uiso   1.00
C242   C     0.94408   0.48627   0.08435   0.00000  Uiso   1.00
C243   C     0.69078   0.53052   0.45147   0.00000  Uiso   1.00
C244   C     0.71416   0.53910   0.00899   0.00000  Uiso   1.00
C245   C     0.76828   0.52203   0.03079   0.00000  Uiso   1.00
H246   H     0.66998   0.42718   0.07507   0.00000  Uiso   1.00
H247   H     0.93508   0.66347   0.25628   0.00000  Uiso   1.00
H248   H     0.82310   0.45741   0.20875   0.00000  Uiso   1.00
H249   H     0.86094   0.38820   0.40833   0.00000  Uiso   1.00
H250   H     0.94964   0.39311   0.48130   0.00000  Uiso   1.00
H251   H     0.98438   0.54775   0.43413   0.00000  Uiso   1.00
H252   H     0.78471   0.52891   0.07583   0.00000  Uiso   1.00
H253   H     0.69137   0.56062   0.03633   0.00000  Uiso   1.00
H254   H     0.76770   0.41944   0.37045   0.00000  Uiso   1.00
H255   H     0.73168   0.33654   0.24403   0.00000  Uiso   1.00
N256   N     0.81160   0.48556   0.23543   0.00000  Uiso   1.00
N257   N     0.85507   0.51444   0.26458   0.00000  Uiso   1.00
O258   O     0.96435   0.57963   0.25358   0.00000  Uiso   1.00
O259   O     0.72408   0.57038   0.24424   0.00000  Uiso   1.00
O260   O     0.98157   0.50691   0.33380   0.00000  Uiso   1.00
O261   O     0.74130   0.49766   0.32446   0.00000  Uiso   1.00
O262   O     0.94258   0.42962   0.25577   0.00000  Uiso   1.00
O263   O     0.70231   0.42037   0.24643   0.00000  Uiso   1.00
O264   O     0.92537   0.50234   0.17554   0.00000  Uiso   1.00
O265   O     0.68510   0.49309   0.16620   0.00000  Uiso   1.00
Zn266  Zn    0.93786   0.50618   0.25624   0.00000  Uiso   1.00
Zn267  Zn    0.72881   0.49382   0.24377   0.00000  Uiso   1.00
Cl268  Cl    0.84075   0.56395   0.30957   0.00000  Uiso   1.00
C269   C     0.88728   0.56258   0.07828   0.00000  Uiso   1.00
N270   N     0.88173   0.60501   0.09351   0.00000  Uiso   1.00
C271   C     0.01482   0.93153   0.24868   0.00000  Uiso   1.00
C272   C     0.13239   0.82824   0.49513   0.00000  Uiso   1.00
C273   C     0.10335   0.81101   0.44013   0.00000  Uiso   1.00
C274   C     0.19028   0.81585   0.01287   0.00000  Uiso   1.00
C275   C     0.21196   0.77541   0.48244   0.00000  Uiso   1.00
C276   C     0.17865   0.75269   0.43181   0.00000  Uiso   1.00
C277   C     0.12548   0.77113   0.41009   0.00000  Uiso   1.00
C278   C     0.22798   0.84269   0.05923   0.00000  Uiso   1.00
C279   C     0.29785   0.77826   0.05588   0.00000  Uiso   1.00
C280   C     0.05290   0.83448   0.41655   0.00000  Uiso   1.00
C281   C     0.02255   0.98610   0.24802   0.00000  Uiso   1.00
C282   C     0.03528   0.83470   0.35529   0.00000  Uiso   1.00
C283   C     0.31086   0.68057   0.25225   0.00000  Uiso   1.00
C284   C     0.31854   0.73514   0.25140   0.00000  Uiso   1.00
C285   C     0.29765   0.82967   0.14478   0.00000  Uiso   1.00
C286   C     0.26645   0.75790   0.00352   0.00000  Uiso   1.00
C287   C     0.27741   0.81960   0.08435   0.00000  Uiso   1.00
C288   C     0.02412   0.86385   0.45147   0.00000  Uiso   1.00
C289   C     0.04750   0.87243   0.00899   0.00000  Uiso   1.00
C290   C     0.10161   0.85537   0.03079   0.00000  Uiso   1.00
H291   H     0.00332   0.76052   0.07507   0.00000  Uiso   1.00
H292   H     0.26841   0.99680   0.25628   0.00000  Uiso   1.00
H293   H     0.15643   0.79074   0.20875   0.00000  Uiso   1.00
H294   H     0.19428   0.72153   0.40833   0.00000  Uiso   1.00
H295   H     0.28297   0.72644   0.48130   0.00000  Uiso   1.00
H296   H     0.31771   0.88109   0.43413   0.00000  Uiso   1.00
H297   H     0.11805   0.86225   0.07583   0.00000  Uiso   1.00
H298   H     0.02470   0.89395   0.03633   0.00000  Uiso   1.00
H299   H     0.10103   0.75277   0.37045   0.00000  Uiso   1.00
H300   H     0.06501   0.66987   0.24403   0.00000  Uiso   1.00
N301   N     0.14493   0.81890   0.23543   0.00000  Uiso   1.00
N302   N     0.18840   0.84777   0.26458   0.00000  Uiso   1.00
O303   O     0.29769   0.91296   0.25358   0.00000  Uiso   1.00
O304   O     0.05742   0.90371   0.24424   0.00000  Uiso   1.00
O305   O     0.31490   0.84024   0.33380   0.00000  Uiso   1.00
O306   O     0.07463   0.83099   0.32446   0.00000  Uiso   1.00
O307   O     0.27592   0.76296   0.25577   0.00000  Uiso   1.00
O308   O     0.03565   0.75371   0.24643   0.00000  Uiso   1.00
O309   O     0.25870   0.83567   0.17554   0.00000  Uiso   1.00
O310   O     0.01843   0.82642   0.16620   0.00000  Uiso   1.00
Zn311  Zn    0.27119   0.83951   0.25624   0.00000  Uiso   1.00
Zn312  Zn    0.06214   0.82716   0.24377   0.00000  Uiso   1.00
Cl313  Cl    0.17408   0.89728   0.30957   0.00000  Uiso   1.00
C314   C     0.22061   0.89591   0.07828   0.00000  Uiso   1.00
N315   N     0.21506   0.93835   0.09351   0.00000  Uiso   1.00
C316   C     0.34815   0.93153   0.24868   0.00000  Uiso   1.00
C317   C     0.46573   0.82824   0.49513   0.00000  Uiso   1.00
C318   C     0.43668   0.81101   0.44013   0.00000  Uiso   1.00
C319   C     0.52362   0.81585   0.01287   0.00000  Uiso   1.00
C320   C     0.54529   0.77541   0.48244   0.00000  Uiso   1.00
C321   C     0.51198   0.75269   0.43181   0.00000  Uiso   1.00
C322   C     0.45882   0.77113   0.41009   0.00000  Uiso   1.00
C323   C     0.56131   0.84269   0.05923   0.00000  Uiso   1.00
C324   C     0.63118   0.77826   0.05588   0.00000  Uiso   1.00
C325   C     0.38624   0.83448   0.41655   0.00000  Uiso   1.00
C326   C     0.35588   0.98610   0.24802   0.00000  Uiso   1.00
C327   C     0.36861   0.83470   0.35529   0.00000  Uiso   1.00
C328   C     0.64419   0.68057   0.25225   0.00000  Uiso   1.00
C329   C     0.65187   0.73514   0.25140   0.00000  Uiso   1.00
C330   C     0.63098   0.82967   0.14478   0.00000  Uiso   1.00
C331   C     0.59978   0.75790   0.00352   0.00000  Uiso   1.00
C332   C     0.61075   0.81960   0.08435   0.00000  Uiso   1.00
C333   C     0.35745   0.86385   0.45147   0.00000  Uiso   1.00
C334   C     0.38083   0.87243   0.00899   0.00000  Uiso   1.00
C335   C     0.43494   0.85537   0.03079   0.00000  Uiso   1.00
H336   H     0.33665   0.76052   0.07507   0.00000  Uiso   1.00
H337   H     0.60174   0.99680   0.25628   0.00000  Uiso   1.00
H338   H     0.48977   0.79074   0.20875   0.00000  Uiso   1.00
H339   H     0.52761   0.72153   0.40833   0.00000  Uiso   1.00
H340   H     0.61630   0.72644   0.48130   0.00000  Uiso   1.00
H341   H     0.65104   0.88109   0.43413   0.00000  Uiso   1.00
H342   H     0.45138   0.86225   0.07583   0.00000  Uiso   1.00
H343   H     0.35804   0.89395   0.03633   0.00000  Uiso   1.00
H344   H     0.43436   0.75277   0.37045   0.00000  Uiso   1.00
H345   H     0.39834   0.66987   0.24403   0.00000  Uiso   1.00
N346   N     0.47827   0.81890   0.23543   0.00000  Uiso   1.00
N347   N     0.52173   0.84777   0.26458   0.00000  Uiso   1.00
O348   O     0.63102   0.91296   0.25358   0.00000  Uiso   1.00
O349   O     0.39075   0.90371   0.24424   0.00000  Uiso   1.00
O350   O     0.64823   0.84024   0.33380   0.00000  Uiso   1.00
O351   O     0.40796   0.83099   0.32446   0.00000  Uiso   1.00
O352   O     0.60925   0.76296   0.25577   0.00000  Uiso   1.00
O353   O     0.36898   0.75371   0.24643   0.00000  Uiso   1.00
O354   O     0.59204   0.83567   0.17554   0.00000  Uiso   1.00
O355   O     0.35177   0.82642   0.16620   0.00000  Uiso   1.00
Zn356  Zn    0.60453   0.83951   0.25624   0.00000  Uiso   1.00
Zn357  Zn    0.39547   0.82716   0.24377   0.00000  Uiso   1.00
Cl358  Cl    0.50741   0.89728   0.30957   0.00000  Uiso   1.00
C359   C     0.55394   0.89591   0.07828   0.00000  Uiso   1.00
N360   N     0.54839   0.93835   0.09351   0.00000  Uiso   1.00
C361   C     0.68149   0.93153   0.24868   0.00000  Uiso   1.00
C362   C     0.79906   0.82824   0.49513   0.00000  Uiso   1.00
C363   C     0.77001   0.81101   0.44013   0.00000  Uiso   1.00
C364   C     0.85695   0.81585   0.01287   0.00000  Uiso   1.00
C365   C     0.87863   0.77541   0.48244   0.00000  Uiso   1.00
C366   C     0.84531   0.75269   0.43181   0.00000  Uiso   1.00
C367   C     0.79215   0.77113   0.41009   0.00000  Uiso   1.00
C368   C     0.89464   0.84269   0.05923   0.00000  Uiso   1.00
C369   C     0.96452   0.77826   0.05588   0.00000  Uiso   1.00
C370   C     0.71957   0.83448   0.41655   0.00000  Uiso   1.00
C371   C     0.68922   0.98610   0.24802   0.00000  Uiso   1.00
C372   C     0.70195   0.83470   0.35529   0.00000  Uiso   1.00
C373   C     0.97753   0.68057   0.25225   0.00000  Uiso   1.00
C374   C     0.98520   0.73514   0.25140   0.00000  Uiso   1.00
C375   C     0.96432   0.82967   0.14478   0.00000  Uiso   1.00
C376   C     0.93312   0.75790   0.00352   0.00000  Uiso   1.00
C377   C     0.94408   0.81960   0.08435   0.00000  Uiso   1.00
C378   C     0.69078   0.86385   0.45147   0.00000  Uiso   1.00
C379   C     0.71416   0.87243   0.00899   0.00000  Uiso   1.00
C380   C     0.76828   0.85537   0.03079   0.00000  Uiso   1.00
H381   H     0.66998   0.76052   0.07507   0.00000  Uiso   1.00
H382   H     0.93508   0.99680   0.25628   0.00000  Uiso   1.00
H383   H     0.82310   0.79074   0.20875   0.00000  Uiso   1.00
H384   H     0.86094   0.72153   0.40833   0.00000  Uiso   1.00
H385   H     0.94964   0.72644   0.48130   0.00000  Uiso   1.00
H386   H     0.98438   0.88109   0.43413   0.00000  Uiso   1.00
H387   H     0.78471   0.86225   0.07583   0.00000  Uiso   1.00
H388   H     0.69137   0.89395   0.03633   0.00000  Uiso   1.00
H389   H     0.76770   0.75277   0.37045   0.00000  Uiso   1.00
H390   H     0.73168   0.66987   0.24403   0.00000  Uiso   1.00
N391   N     0.81160   0.81890   0.23543   0.00000  Uiso   1.00
N392   N     0.85507   0.84777   0.26458   0.00000  Uiso   1.00
O393   O     0.96435   0.91296   0.25358   0.00000  Uiso   1.00
O394   O     0.72408   0.90371   0.24424   0.00000  Uiso   1.00
O395   O     0.98157   0.84024   0.33380   0.00000  Uiso   1.00
O396   O     0.74130   0.83099   0.32446   0.00000  Uiso   1.00
O397   O     0.94258   0.76296   0.25577   0.00000  Uiso   1.00
O398   O     0.70231   0.75371   0.24643   0.00000  Uiso   1.00
O399   O     0.92537   0.83567   0.17554   0.00000  Uiso   1.00
O400   O     0.68510   0.82642   0.16620   0.00000  Uiso   1.00
Zn401  Zn    0.93786   0.83951   0.25624   0.00000  Uiso   1.00
Zn402  Zn    0.72881   0.82716   0.24377   0.00000  Uiso   1.00
Cl403  Cl    0.84075   0.89728   0.30957   0.00000  Uiso   1.00
C404   C     0.88728   0.89591   0.07828   0.00000  Uiso   1.00
N405   N     0.88173   0.93835   0.09351   0.00000  Uiso   1.00
C406   C     0.01482   0.26486   0.74868   0.00000  Uiso   1.00
C407   C     0.13239   0.16158   0.99513   0.00000  Uiso   1.00
C408   C     0.10335   0.14434   0.94013   0.00000  Uiso   1.00
C409   C     0.19028   0.14919   0.51287   0.00000  Uiso   1.00
C410   C     0.21196   0.10874   0.98244   0.00000  Uiso   1.00
C411   C     0.17865   0.08602   0.93181   0.00000  Uiso   1.00
C412   C     0.12548   0.10446   0.91009   0.00000  Uiso   1.00
C413   C     0.22798   0.17602   0.55923   0.00000  Uiso   1.00
C414   C     0.29785   0.11159   0.55588   0.00000  Uiso   1.00
C415   C     0.05290   0.16781   0.91655   0.00000  Uiso   1.00
C416   C     0.02255   0.31944   0.74802   0.00000  Uiso   1.00
C417   C     0.03528   0.16803   0.85529   0.00000  Uiso   1.00
C418   C     0.31086   0.01391   0.75225   0.00000  Uiso   1.00
C419   C     0.31854   0.06847   0.75140   0.00000  Uiso   1.00
C420   C     0.29765   0.16300   0.64478   0.00000  Uiso   1.00
C421   C     0.26645   0.09123   0.50352   0.00000  Uiso   1.00
C422   C     0.27741   0.15293   0.58435   0.00000  Uiso   1.00
C423   C     0.02412   0.19719   0.95147   0.00000  Uiso   1.00
C424   C     0.04750   0.20576   0.50899   0.00000  Uiso   1.00
C425   C     0.10161   0.18870   0.53079   0.00000  Uiso   1.00
H426   H     0.00332   0.09385   0.57507   0.00000  Uiso   1.00
H427   H     0.26841   0.33014   0.75628   0.00000  Uiso   1.00
H428   H     0.15643   0.12408   0.70875   0.00000  Uiso   1.00
H429   H     0.19428   0.05486   0.90833   0.00000  Uiso   1.00
H430   H     0.28297   0.05977   0.98130   0.00000  Uiso   1.00
H431   H     0.31771   0.21442   0.93413   0.00000  Uiso   1.00
H432   H     0.11805   0.19558   0.57583   0.00000  Uiso   1.00
H433   H     0.02470   0.22728   0.53633   0.00000  Uiso   1.00
H434   H     0.10103   0.08610   0.87045   0.00000  Uiso   1.00
H435   H     0.06501   0.00321   0.74403   0.00000  Uiso   1.00
N436   N     0.14493   0.15223   0.73543   0.00000  Uiso   1.00
N437   N     0.18840   0.18110   0.76458   0.00000  Uiso   1.00
O438   O     0.29769   0.24629   0.75358   0.00000  Uiso   1.00
O439   O     0.05742   0.23704   0.74424   0.00000  Uiso   1.00
O440   O     0.31490   0.17358   0.83380   0.00000  Uiso   1.00
O441   O     0.07463   0.16433   0.82446   0.00000  Uiso   1.00
O442   O     0.27592   0.09629   0.75577   0.00000  Uiso   1.00
O443   O     0.03565   0.08704   0.74643   0.00000  Uiso   1.00
O444   O     0.25870   0.16901   0.67554   0.00000  Uiso   1.00
O445   O     0.01843   0.15976   0.66620   0.00000  Uiso   1.00
Zn446  Zn    0.27119   0.17284   0.75624   0.00000  Uiso   1.00
Zn447  Zn    0.06214   0.16049   0.74377   0.00000  Uiso   1.00
Cl448  Cl    0.17408   0.23061   0.80957   0.00000  Uiso   1.00
C449   C     0.22061   0.22924   0.57828   0.00000  Uiso   1.00
N450   N     0.21506   0.27168   0.59351   0.00000  Uiso   1.00
C451   C     0.34815   0.26486   0.74868   0.00000  Uiso   1.00
C452   C     0.46573   0.16158   0.99513   0.00000  Uiso   1.00
C453   C     0.43668   0.14434   0.94013   0.00000  Uiso   1.00
C454   C     0.52362   0.14919   0.51287   0.00000  Uiso   1.00
C455   C     0.54529   0.10874   0.98244   0.00000  Uiso   1.00
C456   C     0.51198   0.08602   0.93181   0.00000  Uiso   1.00
C457   C     0.45882   0.10446   0.91009   0.00000  Uiso   1.00
C458   C     0.56131   0.17602   0.55923   0.00000  Uiso   1.00
C459   C     0.63118   0.11159   0.55588   0.00000  Uiso   1.00
C460   C     0.38624   0.16781   0.91655   0.00000  Uiso   1.00
C461   C     0.35588   0.31944   0.74802   0.00000  Uiso   1.00
C462   C     0.36861   0.16803   0.85529   0.00000  Uiso   1.00
C463   C     0.64419   0.01391   0.75225   0.00000  Uiso   1.00
C464   C     0.65187   0.06847   0.75140   0.00000  Uiso   1.00
C465   C     0.63098   0.16300   0.64478   0.00000  Uiso   1.00
C466   C     0.59978   0.09123   0.50352   0.00000  Uiso   1.00
C467   C     0.61075   0.15293   0.58435   0.00000  Uiso   1.00
C468   C     0.35745   0.19719   0.95147   0.00000  Uiso   1.00
C469   C     0.38083   0.20576   0.50899   0.00000  Uiso   1.00
C470   C     0.43494   0.18870   0.53079   0.00000  Uiso   1.00
H471   H     0.33665   0.09385   0.57507   0.00000  Uiso   1.00
H472   H     0.60174   0.33014   0.75628   0.00000  Uiso   1.00
H473   H     0.48977   0.12408   0.70875   0.00000  Uiso   1.00
H474   H     0.52761   0.05486   0.90833   0.00000  Uiso   1.00
H475   H     0.61630   0.05977   0.98130   0.00000  Uiso   1.00
H476   H     0.65104   0.21442   0.93413   0.00000  Uiso   1.00
H477   H     0.45138   0.19558   0.57583   0.00000  Uiso   1.00
H478   H     0.35804   0.22728   0.53633   0.00000  Uiso   1.00
H479   H     0.43436   0.08610   0.87045   0.00000  Uiso   1.00
H480   H     0.39834   0.00321   0.74403   0.00000  Uiso   1.00
N481   N     0.47827   0.15223   0.73543   0.00000  Uiso   1.00
N482   N     0.52173   0.18110   0.76458   0.00000  Uiso   1.00
O483   O     0.63102   0.24629   0.75358   0.00000  Uiso   1.00
O484   O     0.39075   0.23704   0.74424   0.00000  Uiso   1.00
O485   O     0.64823   0.17358   0.83380   0.00000  Uiso   1.00
O486   O     0.40796   0.16433   0.82446   0.00000  Uiso   1.00
O487   O     0.60925   0.09629   0.75577   0.00000  Uiso   1.00
O488   O     0.36898   0.08704   0.74643   0.00000  Uiso   1.00
O489   O     0.59204   0.16901   0.67554   0.00000  Uiso   1.00
O490   O     0.35177   0.15976   0.66620   0.00000  Uiso   1.00
Zn491  Zn    0.60453   0.17284   0.75624   0.00000  Uiso   1.00
Zn492  Zn    0.39547   0.16049   0.74377   0.00000  Uiso   1.00
Cl493  Cl    0.50741   0.23061   0.80957   0.00000  Uiso   1.00
C494   C     0.55394   0.22924   0.57828   0.00000  Uiso   1.00
N495   N     0.54839   0.27168   0.59351   0.00000  Uiso   1.00
C496   C     0.68149   0.26486   0.74868   0.00000  Uiso   1.00
C497   C     0.79906   0.16158   0.99513   0.00000  Uiso   1.00
C498   C     0.77001   0.14434   0.94013   0.00000  Uiso   1.00
C499   C     0.85695   0.14919   0.51287   0.00000  Uiso   1.00
C500   C     0.87863   0.10874   0.98244   0.00000  Uiso   1.00
C501   C     0.84531   0.08602   0.93181   0.00000  Uiso   1.00
C502   C     0.79215   0.10446   0.91009   0.00000  Uiso   1.00
C503   C     0.89464   0.17602   0.55923   0.00000  Uiso   1.00
C504   C     0.96452   0.11159   0.55588   0.00000  Uiso   1.00
C505   C     0.71957   0.16781   0.91655   0.00000  Uiso   1.00
C506   C     0.68922   0.31944   0.74802   0.00000  Uiso   1.00
C507   C     0.70195   0.16803   0.85529   0.00000  Uiso   1.00
C508   C     0.97753   0.01391   0.75225   0.00000  Uiso   1.00
C509   C     0.98520   0.06847   0.75140   0.00000  Uiso   1.00
C510   C     0.96432   0.16300   0.64478   0.00000  Uiso   1.00
C511   C     0.93312   0.09123   0.50352   0.00000  Uiso   1.00
C512   C     0.94408   0.15293   0.58435   0.00000  Uiso   1.00
C513   C     0.69078   0.19719   0.95147   0.00000  Uiso   1.00
C514   C     0.71416   0.20576   0.50899   0.00000  Uiso   1.00
C515   C     0.76828   0.18870   0.53079   0.00000  Uiso   1.00
H516   H     0.66998   0.09385   0.57507   0.00000  Uiso   1.00
H517   H     0.93508   0.33014   0.75628   0.00000  Uiso   1.00
H518   H     0.82310   0.12408   0.70875   0.00000  Uiso   1.00
H519   H     0.86094   0.05486   0.90833   0.00000  Uiso   1.00
H520   H     0.94964   0.05977   0.98130   0.00000  Uiso   1.00
H521   H     0.98438   0.21442   0.93413   0.00000  Uiso   1.00
H522   H     0.78471   0.19558   0.57583   0.00000  Uiso   1.00
H523   H     0.69137   0.22728   0.53633   0.00000  Uiso   1.00
H524   H     0.76770   0.08610   0.87045   0.00000  Uiso   1.00
H525   H     0.73168   0.00321   0.74403   0.00000  Uiso   1.00
N526   N     0.81160   0.15223   0.73543   0.00000  Uiso   1.00
N527   N     0.85507   0.18110   0.76458   0.00000  Uiso   1.00
O528   O     0.96435   0.24629   0.75358   0.00000  Uiso   1.00
O529   O     0.72408   0.23704   0.74424   0.00000  Uiso   1.00
O530   O     0.98157   0.17358   0.83380   0.00000  Uiso   1.00
O531   O     0.74130   0.16433   0.82446   0.00000  Uiso   1.00
O532   O     0.94258   0.09629   0.75577   0.00000  Uiso   1.00
O533   O     0.70231   0.08704   0.74643   0.00000  Uiso   1.00
O534   O     0.92537   0.16901   0.67554   0.00000  Uiso   1.00
O535   O     0.68510   0.15976   0.66620   0.00000  Uiso   1.00
Zn536  Zn    0.93786   0.17284   0.75624   0.00000  Uiso   1.00
Zn537  Zn    0.72881   0.16049   0.74377   0.00000  Uiso   1.00
Cl538  Cl    0.84075   0.23061   0.80957   0.00000  Uiso   1.00
C539   C     0.88728   0.22924   0.57828   0.00000  Uiso   1.00
N540   N     0.88173   0.27168   0.59351   0.00000  Uiso   1.00
C541   C     0.01482   0.59819   0.74868   0.00000  Uiso   1.00
C542   C     0.13239   0.49491   0.99513   0.00000  Uiso   1.00
C543   C     0.10335   0.47767   0.94013   0.00000  Uiso   1.00
C544   C     0.19028   0.48252   0.51287   0.00000  Uiso   1.00
C545   C     0.21196   0.44208   0.98244   0.00000  Uiso   1.00
C546   C     0.17865   0.41935   0.93181   0.00000  Uiso   1.00
C547   C     0.12548   0.43780   0.91009   0.00000  Uiso   1.00
C548   C     0.22798   0.50936   0.55923   0.00000  Uiso   1.00
C549   C     0.29785   0.44492   0.55588   0.00000  Uiso   1.00
C550   C     0.05290   0.50114   0.91655   0.00000  Uiso   1.00
C551   C     0.02255   0.65277   0.74802   0.00000  Uiso   1.00
C552   C     0.03528   0.50136   0.85529   0.00000  Uiso   1.00
C553   C     0.31086   0.34724   0.75225   0.00000  Uiso   1.00
C554   C     0.31854   0.40181   0.75140   0.00000  Uiso   1.00
C555   C     0.29765   0.49634   0.64478   0.00000  Uiso   1.00
C556   C     0.26645   0.42456   0.50352   0.00000  Uiso   1.00
C557   C     0.27741   0.48627   0.58435   0.00000  Uiso   1.00
C558   C     0.02412   0.53052   0.95147   0.00000  Uiso   1.00
C559   C     0.04750   0.53910   0.50899   0.00000  Uiso   1.00
C560   C     0.10161   0.52203   0.53079   0.00000  Uiso   1.00
H561   H     0.00332   0.42718   0.57507   0.00000  Uiso   1.00
H562   H     0.26841   0.66347   0.75628   0.00000  Uiso   1.00
H563   H     0.15643   0.45741   0.70875   0.00000  Uiso   1.00
H564   H     0.19428   0.38820   0.90833   0.00000  Uiso   1.00
H565   H     0.28297   0.39311   0.98130   0.00000  Uiso   1.00
H566   H     0.31771   0.54775   0.93413   0.00000  Uiso   1.00
H567   H     0.11805   0.52891   0.57583   0.00000  Uiso   1.00
H568   H     0.02470   0.56062   0.53633   0.00000  Uiso   1.00
H569   H     0.10103   0.41944   0.87045   0.00000  Uiso   1.00
H570   H     0.06501   0.33654   0.74403   0.00000  Uiso   1.00
N571   N     0.14493   0.48556   0.73543   0.00000  Uiso   1.00
N572   N     0.18840   0.51444   0.76458   0.00000  Uiso   1.00
O573   O     0.29769   0.57963   0.75358   0.00000  Uiso   1.00
O574   O     0.05742   0.57038   0.74424   0.00000  Uiso   1.00
O575   O     0.31490   0.50691   0.83380   0.00000  Uiso   1.00
O576   O     0.07463   0.49766   0.82446   0.00000  Uiso   1.00
O577   O     0.27592   0.42962   0.75577   0.00000  Uiso   1.00
O578   O     0.03565   0.42037   0.74643   0.00000  Uiso   1.00
O579   O     0.25870   0.50234   0.67554   0.00000  Uiso   1.00
O580   O     0.01843   0.49309   0.66620   0.00000  Uiso   1.00
Zn581  Zn    0.27119   0.50618   0.75624   0.00000  Uiso   1.00
Zn582  Zn    0.06214   0.49382   0.74377   0.00000  Uiso   1.00
Cl583  Cl    0.17408   0.56395   0.80957   0.00000  Uiso   1.00
C584   C     0.22061   0.56258   0.57828   0.00000  Uiso   1.00
N585   N     0.21506   0.60501   0.59351   0.00000  Uiso   1.00
C586   C     0.34815   0.59819   0.74868   0.00000  Uiso   1.00
C587   C     0.46573   0.49491   0.99513   0.00000  Uiso   1.00
C588   C     0.43668   0.47767   0.94013   0.00000  Uiso   1.00
C589   C     0.52362   0.48252   0.51287   0.00000  Uiso   1.00
C590   C     0.54529   0.44208   0.98244   0.00000  Uiso   1.00
C591   C     0.51198   0.41935   0.93181   0.00000  Uiso   1.00
C592   C     0.45882   0.43780   0.91009   0.00000  Uiso   1.00
C593   C     0.56131   0.50936   0.55923   0.00000  Uiso   1.00
C594   C     0.63118   0.44492   0.55588   0.00000  Uiso   1.00
C595   C     0.38624   0.50114   0.91655   0.00000  Uiso   1.00
C596   C     0.35588   0.65277   0.74802   0.00000  Uiso   1.00
C597   C     0.36861   0.50136   0.85529   0.00000  Uiso   1.00
C598   C     0.64419   0.34724   0.75225   0.00000  Uiso   1.00
C599   C     0.65187   0.40181   0.75140   0.00000  Uiso   1.00
C600   C     0.63098   0.49634   0.64478   0.00000  Uiso   1.00
C601   C     0.59978   0.42456   0.50352   0.00000  Uiso   1.00
C602   C     0.61075   0.48627   0.58435   0.00000  Uiso   1.00
C603   C     0.35745   0.53052   0.95147   0.00000  Uiso   1.00
C604   C     0.38083   0.53910   0.50899   0.00000  Uiso   1.00
C605   C     0.43494   0.52203   0.53079   0.00000  Uiso   1.00
H606   H     0.33665   0.42718   0.57507   0.00000  Uiso   1.00
H607   H     0.60174   0.66347   0.75628   0.00000  Uiso   1.00
H608   H     0.48977   0.45741   0.70875   0.00000  Uiso   1.00
H609   H     0.52761   0.38820   0.90833   0.00000  Uiso   1.00
H610   H     0.61630   0.39311   0.98130   0.00000  Uiso   1.00
H611   H     0.65104   0.54775   0.93413   0.00000  Uiso   1.00
H612   H     0.45138   0.52891   0.57583   0.00000  Uiso   1.00
H613   H     0.35804   0.56062   0.53633   0.00000  Uiso   1.00
H614   H     0.43436   0.41944   0.87045   0.00000  Uiso   1.00
H615   H     0.39834   0.33654   0.74403   0.00000  Uiso   1.00
N616   N     0.47827   0.48556   0.73543   0.00000  Uiso   1.00
N617   N     0.52173   0.51444   0.76458   0.00000  Uiso   1.00
O618   O     0.63102   0.57963   0.75358   0.00000  Uiso   1.00
O619   O     0.39075   0.57038   0.74424   0.00000  Uiso   1.00
O620   O     0.64823   0.50691   0.83380   0.00000  Uiso   1.00
O621   O     0.40796   0.49766   0.82446   0.00000  Uiso   1.00
O622   O     0.60925   0.42962   0.75577   0.00000  Uiso   1.00
O623   O     0.36898   0.42037   0.74643   0.00000  Uiso   1.00
O624   O     0.59204   0.50234   0.67554   0.00000  Uiso   1.00
O625   O     0.35177   0.49309   0.66620   0.00000  Uiso   1.00
Zn626  Zn    0.60453   0.50618   0.75624   0.00000  Uiso   1.00
Zn627  Zn    0.39547   0.49382   0.74377   0.00000  Uiso   1.00
Cl628  Cl    0.50741   0.56395   0.80957   0.00000  Uiso   1.00
C629   C     0.55394   0.56258   0.57828   0.00000  Uiso   1.00
N630   N     0.54839   0.60501   0.59351   0.00000  Uiso   1.00
C631   C     0.68149   0.59819   0.74868   0.00000  Uiso   1.00
C632   C     0.79906   0.49491   0.99513   0.00000  Uiso   1.00
C633   C     0.77001   0.47767   0.94013   0.00000  Uiso   1.00
C634   C     0.85695   0.48252   0.51287   0.00000  Uiso   1.00
C635   C     0.87863   0.44208   0.98244   0.00000  Uiso   1.00
C636   C     0.84531   0.41935   0.93181   0.00000  Uiso   1.00
C637   C     0.79215   0.43780   0.91009   0.00000  Uiso   1.00
C638   C     0.89464   0.50936   0.55923   0.00000  Uiso   1.00
C639   C     0.96452   0.44492   0.55588   0.00000  Uiso   1.00
C640   C     0.71957   0.50114   0.91655   0.00000  Uiso   1.00
C641   C     0.68922   0.65277   0.74802   0.00000  Uiso   1.00
C642   C     0.70195   0.50136   0.85529   0.00000  Uiso   1.00
C643   C     0.97753   0.34724   0.75225   0.00000  Uiso   1.00
C644   C     0.98520   0.40181   0.75140   0.00000  Uiso   1.00
C645   C     0.96432   0.49634   0.64478   0.00000  Uiso   1.00
C646   C     0.93312   0.42456   0.50352   0.00000  Uiso   1.00
C647   C     0.94408   0.48627   0.58435   0.00000  Uiso   1.00
C648   C     0.69078   0.53052   0.95147   0.00000  Uiso   1.00
C649   C     0.71416   0.53910   0.50899   0.00000  Uiso   1.00
C650   C     0.76828   0.52203   0.53079   0.00000  Uiso   1.00
H651   H     0.66998   0.42718   0.57507   0.00000  Uiso   1.00
H652   H     0.93508   0.66347   0.75628   0.00000  Uiso   1.00
H653   H     0.82310   0.45741   0.70875   0.00000  Uiso   1.00
H654   H     0.86094   0.38820   0.90833   0.00000  Uiso   1.00
H655   H     0.94964   0.39311   0.98130   0.00000  Uiso   1.00
H656   H     0.98438   0.54775   0.93413   0.00000  Uiso   1.00
H657   H     0.78471   0.52891   0.57583   0.00000  Uiso   1.00
H658   H     0.69137   0.56062   0.53633   0.00000  Uiso   1.00
H659   H     0.76770   0.41944   0.87045   0.00000  Uiso   1.00
H660   H     0.73168   0.33654   0.74403   0.00000  Uiso   1.00
N661   N     0.81160   0.48556   0.73543   0.00000  Uiso   1.00
N662   N     0.85507   0.51444   0.76458   0.00000  Uiso   1.00
O663   O     0.96435   0.57963   0.75358   0.00000  Uiso   1.00
O664   O     0.72408   0.57038   0.74424   0.00000  Uiso   1.00
O665   O     0.98157   0.50691   0.83380   0.00000  Uiso   1.00
O666   O     0.74130   0.49766   0.82446   0.00000  Uiso   1.00
O667   O     0.94258   0.42962   0.75577   0.00000  Uiso   1.00
O668   O     0.70231   0.42037   0.74643   0.00000  Uiso   1.00
O669   O     0.92537   0.50234   0.67554   0.00000  Uiso   1.00
O670   O     0.68510   0.49309   0.66620   0.00000  Uiso   1.00
Zn671  Zn    0.93786   0.50618   0.75624   0.00000  Uiso   1.00
Zn672  Zn    0.72881   0.49382   0.74377   0.00000  Uiso   1.00
Cl673  Cl    0.84075   0.56395   0.80957   0.00000  Uiso   1.00
C674   C     0.88728   0.56258   0.57828   0.00000  Uiso   1.00
N675   N     0.88173   0.60501   0.59351   0.00000  Uiso   1.00
C676   C     0.01482   0.93153   0.74868   0.00000  Uiso   1.00
C677   C     0.13239   0.82824   0.99513   0.00000  Uiso   1.00
C678   C     0.10335   0.81101   0.94013   0.00000  Uiso   1.00
C679   C     0.19028   0.81585   0.51287   0.00000  Uiso   1.00
C680   C     0.21196   0.77541   0.98244   0.00000  Uiso   1.00
C681   C     0.17865   0.75269   0.93181   0.00000  Uiso   1.00
C682   C     0.12548   0.77113   0.91009   0.00000  Uiso   1.00
C683   C     0.22798   0.84269   0.55923   0.00000  Uiso   1.00
C684   C     0.29785   0.77826   0.55588   0.00000  Uiso   1.00
C685   C     0.05290   0.83448   0.91655   0.00000  Uiso   1.00
C686   C     0.02255   0.98610   0.74802   0.00000  Uiso   1.00
C687   C     0.03528   0.83470   0.85529   0.00000  Uiso   1.00
C688   C     0.31086   0.68057   0.75225   0.00000  Uiso   1.00
C689   C     0.31854   0.73514   0.75140   0.00000  Uiso   1.00
C690   C     0.29765   0.82967   0.64478   0.00000  Uiso   1.00
C691   C     0.26645   0.75790   0.50352   0.00000  Uiso   1.00
C692   C     0.27741   0.81960   0.58435   0.00000  Uiso   1.00
C693   C     0.02412   0.86385   0.95147   0.00000  Uiso   1.00
C694   C     0.04750   0.87243   0.50899   0.00000  Uiso   1.00
C695   C     0.10161   0.85537   0.53079   0.00000  Uiso   1.00
H696   H     0.00332   0.76052   0.57507   0.00000  Uiso   1.00
H697   H     0.26841   0.99680   0.75628   0.00000  Uiso   1.00
H698   H     0.15643   0.79074   0.70875   0.00000  Uiso   1.00
H699   H     0.19428   0.72153   0.90833   0.00000  Uiso   1.00
H700   H     0.28297   0.72644   0.98130   0.00000  Uiso   1.00
H701   H     0.31771   0.88109   0.93413   0.00000  Uiso   1.00
H702   H     0.11805   0.86225   0.57583   0.00000  Uiso   1.00
H703   H     0.02470   0.89395   0.53633   0.00000  Uiso   1.00
H704   H     0.10103   0.75277   0.87045   0.00000  Uiso   1.00
H705   H     0.06501   0.66987   0.74403   0.00000  Uiso   1.00
N706   N     0.14493   0.81890   0.73543   0.00000  Uiso   1.00
N707   N     0.18840   0.84777   0.76458   0.00000  Uiso   1.00
O708   O     0.29769   0.91296   0.75358   0.00000  Uiso   1.00
O709   O     0.05742   0.90371   0.74424   0.00000  Uiso   1.00
O710   O     0.31490   0.84024   0.83380   0.00000  Uiso   1.00
O711   O     0.07463   0.83099   0.82446   0.00000  Uiso   1.00
O712   O     0.27592   0.76296   0.75577   0.00000  Uiso   1.00
O713   O     0.03565   0.75371   0.74643   0.00000  Uiso   1.00
O714   O     0.25870   0.83567   0.67554   0.00000  Uiso   1.00
O715   O     0.01843   0.82642   0.66620   0.00000  Uiso   1.00
Zn716  Zn    0.27119   0.83951   0.75624   0.00000  Uiso   1.00
Zn717  Zn    0.06214   0.82716   0.74377   0.00000  Uiso   1.00
Cl718  Cl    0.17408   0.89728   0.80957   0.00000  Uiso   1.00
C719   C     0.22061   0.89591   0.57828   0.00000  Uiso   1.00
N720   N     0.21506   0.93835   0.59351   0.00000  Uiso   1.00
C721   C     0.34815   0.93153   0.74868   0.00000  Uiso   1.00
C722   C     0.46573   0.82824   0.99513   0.00000  Uiso   1.00
C723   C     0.43668   0.81101   0.94013   0.00000  Uiso   1.00
C724   C     0.52362   0.81585   0.51287   0.00000  Uiso   1.00
C725   C     0.54529   0.77541   0.98244   0.00000  Uiso   1.00
C726   C     0.51198   0.75269   0.93181   0.00000  Uiso   1.00
C727   C     0.45882   0.77113   0.91009   0.00000  Uiso   1.00
C728   C     0.56131   0.84269   0.55923   0.00000  Uiso   1.00
C729   C     0.63118   0.77826   0.55588   0.00000  Uiso   1.00
C730   C     0.38624   0.83448   0.91655   0.00000  Uiso   1.00
C731   C     0.35588   0.98610   0.74802   0.00000  Uiso   1.00
C732   C     0.36861   0.83470   0.85529   0.00000  Uiso   1.00
C733   C     0.64419   0.68057   0.75225   0.00000  Uiso   1.00
C734   C     0.65187   0.73514   0.75140   0.00000  Uiso   1.00
C735   C     0.63098   0.82967   0.64478   0.00000  Uiso   1.00
C736   C     0.59978   0.75790   0.50352   0.00000  Uiso   1.00
C737   C     0.61075   0.81960   0.58435   0.00000  Uiso   1.00
C738   C     0.35745   0.86385   0.95147   0.00000  Uiso   1.00
C739   C     0.38083   0.87243   0.50899   0.00000  Uiso   1.00
C740   C     0.43494   0.85537   0.53079   0.00000  Uiso   1.00
H741   H     0.33665   0.76052   0.57507   0.00000  Uiso   1.00
H742   H     0.60174   0.99680   0.75628   0.00000  Uiso   1.00
H743   H     0.48977   0.79074   0.70875   0.00000  Uiso   1.00
H744   H     0.52761   0.72153   0.90833   0.00000  Uiso   1.00
H745   H     0.61630   0.72644   0.98130   0.00000  Uiso   1.00
H746   H     0.65104   0.88109   0.93413   0.00000  Uiso   1.00
H747   H     0.45138   0.86225   0.57583   0.00000  Uiso   1.00
H748   H     0.35804   0.89395   0.53633   0.00000  Uiso   1.00
H749   H     0.43436   0.75277   0.87045   0.00000  Uiso   1.00
H750   H     0.39834   0.66987   0.74403   0.00000  Uiso   1.00
N751   N     0.47827   0.81890   0.73543   0.00000  Uiso   1.00
N752   N     0.52173   0.84777   0.76458   0.00000  Uiso   1.00
O753   O     0.63102   0.91296   0.75358   0.00000  Uiso   1.00
O754   O     0.39075   0.90371   0.74424   0.00000  Uiso   1.00
O755   O     0.64823   0.84024   0.83380   0.00000  Uiso   1.00
O756   O     0.40796   0.83099   0.82446   0.00000  Uiso   1.00
O757   O     0.60925   0.76296   0.75577   0.00000  Uiso   1.00
O758   O     0.36898   0.75371   0.74643   0.00000  Uiso   1.00
O759   O     0.59204   0.83567   0.67554   0.00000  Uiso   1.00
O760   O     0.35177   0.82642   0.66620   0.00000  Uiso   1.00
Zn761  Zn    0.60453   0.83951   0.75624   0.00000  Uiso   1.00
Zn762  Zn    0.39547   0.82716   0.74377   0.00000  Uiso   1.00
Cl763  Cl    0.50741   0.89728   0.80957   0.00000  Uiso   1.00
C764   C     0.55394   0.89591   0.57828   0.00000  Uiso   1.00
N765   N     0.54839   0.93835   0.59351   0.00000  Uiso   1.00
C766   C     0.68149   0.93153   0.74868   0.00000  Uiso   1.00
C767   C     0.79906   0.82824   0.99513   0.00000  Uiso   1.00
C768   C     0.77001   0.81101   0.94013   0.00000  Uiso   1.00
C769   C     0.85695   0.81585   0.51287   0.00000  Uiso   1.00
C770   C     0.87863   0.77541   0.98244   0.00000  Uiso   1.00
C771   C     0.84531   0.75269   0.93181   0.00000  Uiso   1.00
C772   C     0.79215   0.77113   0.91009   0.00000  Uiso   1.00
C773   C     0.89464   0.84269   0.55923   0.00000  Uiso   1.00
C774   C     0.96452   0.77826   0.55588   0.00000  Uiso   1.00
C775   C     0.71957   0.83448   0.91655   0.00000  Uiso   1.00
C776   C     0.68922   0.98610   0.74802   0.00000  Uiso   1.00
C777   C     0.70195   0.83470   0.85529   0.00000  Uiso   1.00
C778   C     0.97753   0.68057   0.75225   0.00000  Uiso   1.00
C779   C     0.98520   0.73514   0.75140   0.00000  Uiso   1.00
C780   C     0.96432   0.82967   0.64478   0.00000  Uiso   1.00
C781   C     0.93312   0.75790   0.50352   0.00000  Uiso   1.00
C782   C     0.94408   0.81960   0.58435   0.00000  Uiso   1.00
C783   C     0.69078   0.86385   0.95147   0.00000  Uiso   1.00
C784   C     0.71416   0.87243   0.50899   0.00000  Uiso   1.00
C785   C     0.76828   0.85537   0.53079   0.00000  Uiso   1.00
H786   H     0.66998   0.76052   0.57507   0.00000  Uiso   1.00
H787   H     0.93508   0.99680   0.75628   0.00000  Uiso   1.00
H788   H     0.82310   0.79074   0.70875   0.00000  Uiso   1.00
H789   H     0.86094   0.72153   0.90833   0.00000  Uiso   1.00
H790   H     0.94964   0.72644   0.98130   0.00000  Uiso   1.00
H791   H     0.98438   0.88109   0.93413   0.00000  Uiso   1.00
H792   H     0.78471   0.86225   0.57583   0.00000  Uiso   1.00
H793   H     0.69137   0.89395   0.53633   0.00000  Uiso   1.00
H794   H     0.76770   0.75277   0.87045   0.00000  Uiso   1.00
H795   H     0.73168   0.66987   0.74403   0.00000  Uiso   1.00
N796   N     0.81160   0.81890   0.73543   0.00000  Uiso   1.00
N797   N     0.85507   0.84777   0.76458   0.00000  Uiso   1.00
O798   O     0.96435   0.91296   0.75358   0.00000  Uiso   1.00
O799   O     0.72408   0.90371   0.74424   0.00000  Uiso   1.00
O800   O     0.98157   0.84024   0.83380   0.00000  Uiso   1.00
O801   O     0.74130   0.83099   0.82446   0.00000  Uiso   1.00
O802   O     0.94258   0.76296   0.75577   0.00000  Uiso   1.00
O803   O     0.70231   0.75371   0.74643   0.00000  Uiso   1.00
O804   O     0.92537   0.83567   0.67554   0.00000  Uiso   1.00
O805   O     0.68510   0.82642   0.66620   0.00000  Uiso   1.00
Zn806  Zn    0.93786   0.83951   0.75624   0.00000  Uiso   1.00
Zn807  Zn    0.72881   0.82716   0.74377   0.00000  Uiso   1.00
Cl808  Cl    0.84075   0.89728   0.80957   0.00000  Uiso   1.00
C809   C     0.88728   0.89591   0.57828   0.00000  Uiso   1.00
N810   N     0.88173   0.93835   0.59351   0.00000  Uiso   1.00
loop_
_geom_bond_atom_site_label_1
_geom_bond_atom_site_label_2
_geom_bond_distance
_geom_bond_site_symmetry_2
_ccdc_geom_bond_type
C1     O34     1.291   .     A
C1     C11     1.402   .     S
C1     O123    1.279   1_455 S
C2     C3      1.403   .     A
C2     C409    1.413   .     S
C2     C425    1.416   .     S
C3     C10     1.405   .     A
C3     C7      1.413   .     A
C4     C8      1.402   .     A
C4     C407    1.413   1_554 S
C4     C410    1.423   1_554 S
C5     C6      1.393   .     A
C5     C409    1.423   .     S
C5     C421    1.401   .     S
C6     C7      1.387   .     A
C6     H24     1.084   .     S
C7     H29     1.082   .     S
C8     C17     1.391   .     A
C8     C44     1.454   .     S
C9     C17     1.400   .     A
C9     C16     1.390   .     A
C9     H66     1.083   .     S
C10    C12     1.454   .     S
C10    C18     1.404   .     A
C11    C238    1.338   1_455 S
C11    H165    1.088   .     S
C12    O36     1.301   .     A
C12    O125    1.293   1_455 S
C13    C14     1.402   .     S
C13    C326    1.338   1_545 S
C13    H292    1.088   1_545 S
C14    O37     1.291   .     A
C14    O83     1.279   .     S
C15    O39     1.299   .     A
C15    C17     1.446   .     S
C15    O85     1.291   .     S
C16    C410    1.401   1_554 S
C16    H430    1.084   1_554 S
C18    C424    1.389   .     S
C18    H116    1.083   1_455 S
C19    H28     1.083   .     S
C19    C20     1.392   .     A
C19    C423    1.389   1_554 S
C20    H27     1.080   .     S
C20    C407    1.416   1_554 S
H21    C99     1.083   1_455 S
H22    C148    1.088   .     S
H23    N31     1.029   .     S
H25    C421    1.084   .     S
H26    C63     1.083   .     S
H30    C281    1.088   1_545 S
N31    Zn42    2.025   .     S
N31    N32     1.287   .     D
N32    Zn41    2.025   .     S
N32    Cl43    1.725   .     S
O33    Zn41    1.953   .     S
O33    C46     1.279   .     S
O34    Zn42    1.977   .     S
O35    Zn41    1.949   .     S
O35    C57     1.293   .     S
O36    Zn42    1.905   .     S
O37    Zn41    1.977   .     S
O38    Zn42    1.953   .     S
O38    C104    1.279   1_455 S
O39    Zn41    1.905   .     S
O40    Zn42    1.949   .     S
O40    C105    1.291   1_455 S
C44    N45     1.158   .     T
C46    O79     1.291   .     A
C46    C56     1.402   .     S
C47    C48     1.403   .     A
C47    C454    1.413   .     S
C47    C470    1.416   .     S
C48    C55     1.405   .     A
C48    C52     1.413   .     A
C49    C53     1.402   .     A
C49    C452    1.413   1_554 S
C49    C455    1.423   1_554 S
C50    C51     1.393   .     A
C50    C454    1.423   .     S
C50    C466    1.401   .     S
C51    C52     1.387   .     A
C51    H69     1.084   .     S
C52    H74     1.082   .     S
C53    C62     1.391   .     A
C53    C89     1.454   .     S
C54    C62     1.400   .     A
C54    C61     1.390   .     A
C54    H111    1.083   .     S
C55    C57     1.454   .     S
C55    C63     1.404   .     A
C56    C148    1.338   .     S
C56    H210    1.088   .     S
C57    O81     1.301   .     A
C58    C59     1.402   .     S
C58    C371    1.338   1_545 S
C58    H337    1.088   1_545 S
C59    O82     1.291   .     A
C59    O128    1.279   .     S
C60    O84     1.299   .     A
C60    C62     1.446   .     S
C60    O130    1.291   .     S
C61    C455    1.401   1_554 S
C61    H475    1.084   1_554 S
C63    C469    1.389   .     S
C64    H73     1.083   .     S
C64    C65     1.392   .     A
C64    C468    1.389   1_554 S
C65    H72     1.080   .     S
C65    C452    1.416   1_554 S
H67    C193    1.088   .     S
H68    N76     1.029   .     S
H70    C466    1.084   .     S
H71    C108    1.083   .     S
H75    C326    1.088   1_545 S
N76    Zn87    2.025   .     S
N76    N77     1.287   .     D
N77    Zn86    2.025   .     S
N77    Cl88    1.725   .     S
O78    Zn86    1.953   .     S
O78    C91     1.279   .     S
O79    Zn87    1.977   .     S
O80    Zn86    1.949   .     S
O80    C102    1.293   .     S
O81    Zn87    1.905   .     S
O82    Zn86    1.977   .     S
O83    Zn87    1.953   .     S
O84    Zn86    1.905   .     S
O85    Zn87    1.949   .     S
C89    N90     1.158   .     T
C91    O124    1.291   .     A
C91    C101    1.402   .     S
C92    C93     1.403   .     A
C92    C499    1.413   .     S
C92    C515    1.416   .     S
C93    C100    1.405   .     A
C93    C97     1.413   .     A
C94    C98     1.402   .     A
C94    C497    1.413   1_554 S
C94    C500    1.423   1_554 S
C95    C96     1.393   .     A
C95    C499    1.423   .     S
C95    C511    1.401   .     S
C96    C97     1.387   .     A
C96    H114    1.084   .     S
C97    H119    1.082   .     S
C98    C107    1.391   .     A
C98    C134    1.454   .     S
C99    C107    1.400   .     A
C99    C106    1.390   .     A
C99    H21     1.083   1_655 S
C100   C102    1.454   .     S
C100   C108    1.404   .     A
C101   C193    1.338   .     S
C101   H255    1.088   .     S
C102   O126    1.301   .     A
C103   C104    1.402   .     S
C103   C281    1.338   1_645 S
C103   H382    1.088   1_545 S
C104   O127    1.291   .     A
C104   O38     1.279   1_655 S
C105   O129    1.299   .     A
C105   C107    1.446   .     S
C105   O40     1.291   1_655 S
C106   C500    1.401   1_554 S
C106   H520    1.084   1_554 S
C108   C514    1.389   .     S
C109   H118    1.083   .     S
C109   C110    1.392   .     A
C109   C513    1.389   1_554 S
C110   H117    1.080   .     S
C110   C497    1.416   1_554 S
H112   C238    1.088   .     S
H113   N121    1.029   .     S
H115   C511    1.084   .     S
H116   C18     1.083   1_655 S
H120   C371    1.088   1_545 S
N121   Zn132   2.025   .     S
N121   N122    1.287   .     D
N122   Zn131   2.025   .     S
N122   Cl133   1.725   .     S
O123   Zn131   1.953   .     S
O123   C1      1.279   1_655 S
O124   Zn132   1.977   .     S
O125   Zn131   1.949   .     S
O125   C12     1.293   1_655 S
O126   Zn132   1.905   .     S
O127   Zn131   1.977   .     S
O128   Zn132   1.953   .     S
O129   Zn131   1.905   .     S
O130   Zn132   1.949   .     S
C134   N135    1.158   .     T
C136   O169    1.291   .     A
C136   C146    1.402   .     S
C136   O258    1.279   1_455 S
C137   C138    1.403   .     A
C137   C544    1.413   .     S
C137   C560    1.416   .     S
C138   C145    1.405   .     A
C138   C142    1.413   .     A
C139   C143    1.402   .     A
C139   C542    1.413   1_554 S
C139   C545    1.423   1_554 S
C140   C141    1.393   .     A
C140   C544    1.423   .     S
C140   C556    1.401   .     S
C141   C142    1.387   .     A
C141   H159    1.084   .     S
C142   H164    1.082   .     S
C143   C152    1.391   .     A
C143   C179    1.454   .     S
C144   C152    1.400   .     A
C144   C151    1.390   .     A
C144   H201    1.083   .     S
C145   C147    1.454   .     S
C145   C153    1.404   .     A
C146   C373    1.338   1_455 S
C146   H300    1.088   .     S
C147   O171    1.301   .     A
C147   O260    1.293   1_455 S
C148   C149    1.402   .     S
C149   O172    1.291   .     A
C149   O218    1.279   .     S
C150   O174    1.299   .     A
C150   C152    1.446   .     S
C150   O220    1.291   .     S
C151   C545    1.401   1_554 S
C151   H565    1.084   1_554 S
C153   C559    1.389   .     S
C153   H251    1.083   1_455 S
C154   H163    1.083   .     S
C154   C155    1.392   .     A
C154   C558    1.389   1_554 S
C155   H162    1.080   .     S
C155   C542    1.416   1_554 S
H156   C234    1.083   1_455 S
H157   C283    1.088   .     S
H158   N166    1.029   .     S
H160   C556    1.084   .     S
H161   C198    1.083   .     S
N166   Zn177   2.025   .     S
N166   N167    1.287   .     D
N167   Zn176   2.025   .     S
N167   Cl178   1.725   .     S
O168   Zn176   1.953   .     S
O168   C181    1.279   .     S
O169   Zn177   1.977   .     S
O170   Zn176   1.949   .     S
O170   C192    1.293   .     S
O171   Zn177   1.905   .     S
O172   Zn176   1.977   .     S
O173   Zn177   1.953   .     S
O173   C239    1.279   1_455 S
O174   Zn176   1.905   .     S
O175   Zn177   1.949   .     S
O175   C240    1.291   1_455 S
C179   N180    1.158   .     T
C181   O214    1.291   .     A
C181   C191    1.402   .     S
C182   C183    1.403   .     A
C182   C589    1.413   .     S
C182   C605    1.416   .     S
C183   C190    1.405   .     A
C183   C187    1.413   .     A
C184   C188    1.402   .     A
C184   C587    1.413   1_554 S
C184   C590    1.423   1_554 S
C185   C186    1.393   .     A
C185   C589    1.423   .     S
C185   C601    1.401   .     S
C186   C187    1.387   .     A
C186   H204    1.084   .     S
C187   H209    1.082   .     S
C188   C197    1.391   .     A
C188   C224    1.454   .     S
C189   C197    1.400   .     A
C189   C196    1.390   .     A
C189   H246    1.083   .     S
C190   C192    1.454   .     S
C190   C198    1.404   .     A
C191   C283    1.338   .     S
C191   H345    1.088   .     S
C192   O216    1.301   .     A
C193   C194    1.402   .     S
C194   O217    1.291   .     A
C194   O263    1.279   .     S
C195   O219    1.299   .     A
C195   C197    1.446   .     S
C195   O265    1.291   .     S
C196   C590    1.401   1_554 S
C196   H610    1.084   1_554 S
C198   C604    1.389   .     S
C199   H208    1.083   .     S
C199   C200    1.392   .     A
C199   C603    1.389   1_554 S
C200   H207    1.080   .     S
C200   C587    1.416   1_554 S
H202   C328    1.088   .     S
H203   N211    1.029   .     S
H205   C601    1.084   .     S
H206   C243    1.083   .     S
N211   Zn222   2.025   .     S
N211   N212    1.287   .     D
N212   Zn221   2.025   .     S
N212   Cl223   1.725   .     S
O213   Zn221   1.953   .     S
O213   C226    1.279   .     S
O214   Zn222   1.977   .     S
O215   Zn221   1.949   .     S
O215   C237    1.293   .     S
O216   Zn222   1.905   .     S
O217   Zn221   1.977   .     S
O218   Zn222   1.953   .     S
O219   Zn221   1.905   .     S
O220   Zn222   1.949   .     S
C224   N225    1.158   .     T
C226   O259    1.291   .     A
C226   C236    1.402   .     S
C227   C228    1.403   .     A
C227   C634    1.413   .     S
C227   C650    1.416   .     S
C228   C235    1.405   .     A
C228   C232    1.413   .     A
C229   C233    1.402   .     A
C229   C632    1.413   1_554 S
C229   C635    1.423   1_554 S
C230   C231    1.393   .     A
C230   C634    1.423   .     S
C230   C646    1.401   .     S
C231   C232    1.387   .     A
C231   H249    1.084   .     S
C232   H254    1.082   .     S
C233   C242    1.391   .     A
C233   C269    1.454   .     S
C234   C242    1.400   .     A
C234   C241    1.390   .     A
C234   H156    1.083   1_655 S
C235   C237    1.454   .     S
C235   C243    1.404   .     A
C236   C328    1.338   .     S
C236   H390    1.088   .     S
C237   O261    1.301   .     A
C238   C239    1.402   .     S
C238   C11     1.338   1_655 S
C239   O262    1.291   .     A
C239   O173    1.279   1_655 S
C240   O264    1.299   .     A
C240   C242    1.446   .     S
C240   O175    1.291   1_655 S
C241   C635    1.401   1_554 S
C241   H655    1.084   1_554 S
C243   C649    1.389   .     S
C244   H253    1.083   .     S
C244   C245    1.392   .     A
C244   C648    1.389   1_554 S
C245   H252    1.080   .     S
C245   C632    1.416   1_554 S
H247   C373    1.088   .     S
H248   N256    1.029   .     S
H250   C646    1.084   .     S
H251   C153    1.083   1_655 S
N256   Zn267   2.025   .     S
N256   N257    1.287   .     D
N257   Zn266   2.025   .     S
N257   Cl268   1.725   .     S
O258   Zn266   1.953   .     S
O258   C136    1.279   1_655 S
O259   Zn267   1.977   .     S
O260   Zn266   1.949   .     S
O260   C147    1.293   1_655 S
O261   Zn267   1.905   .     S
O262   Zn266   1.977   .     S
O263   Zn267   1.953   .     S
O264   Zn266   1.905   .     S
O265   Zn267   1.949   .     S
C269   N270    1.158   .     T
C271   O304    1.291   .     A
C271   C281    1.402   .     S
C271   O393    1.279   1_455 S
C272   C273    1.403   .     A
C272   C679    1.413   .     S
C272   C695    1.416   .     S
C273   C280    1.405   .     A
C273   C277    1.413   .     A
C274   C278    1.402   .     A
C274   C677    1.413   1_554 S
C274   C680    1.423   1_554 S
C275   C276    1.393   .     A
C275   C679    1.423   .     S
C275   C691    1.401   .     S
C276   C277    1.387   .     A
C276   H294    1.084   .     S
C277   H299    1.082   .     S
C278   C287    1.391   .     A
C278   C314    1.454   .     S
C279   C287    1.400   .     A
C279   C286    1.390   .     A
C279   H336    1.083   .     S
C280   C282    1.454   .     S
C280   C288    1.404   .     A
C281   C103    1.338   1_465 S
C281   H30     1.088   1_565 S
C282   O306    1.301   .     A
C282   O395    1.293   1_455 S
C283   C284    1.402   .     S
C284   O307    1.291   .     A
C284   O353    1.279   .     S
C285   O309    1.299   .     A
C285   C287    1.446   .     S
C285   O355    1.291   .     S
C286   C680    1.401   1_554 S
C286   H700    1.084   1_554 S
C288   C694    1.389   .     S
C288   H386    1.083   1_455 S
C289   H298    1.083   .     S
C289   C290    1.392   .     A
C289   C693    1.389   1_554 S
C290   H297    1.080   .     S
C290   C677    1.416   1_554 S
H291   C369    1.083   1_455 S
H292   C13     1.088   1_565 S
H293   N301    1.029   .     S
H295   C691    1.084   .     S
H296   C333    1.083   .     S
N301   Zn312   2.025   .     S
N301   N302    1.287   .     D
N302   Zn311   2.025   .     S
N302   Cl313   1.725   .     S
O303   Zn311   1.953   .     S
O303   C316    1.279   .     S
O304   Zn312   1.977   .     S
O305   Zn311   1.949   .     S
O305   C327    1.293   .     S
O306   Zn312   1.905   .     S
O307   Zn311   1.977   .     S
O308   Zn312   1.953   .     S
O308   C374    1.279   1_455 S
O309   Zn311   1.905   .     S
O310   Zn312   1.949   .     S
O310   C375    1.291   1_455 S
C314   N315    1.158   .     T
C316   O349    1.291   .     A
C316   C326    1.402   .     S
C317   C318    1.403   .     A
C317   C724    1.413   .     S
C317   C740    1.416   .     S
C318   C325    1.405   .     A
C318   C322    1.413   .     A
C319   C323    1.402   .     A
C319   C722    1.413   1_554 S
C319   C725    1.423   1_554 S
C320   C321    1.393   .     A
C320   C724    1.423   .     S
C320   C736    1.401   .     S
C321   C322    1.387   .     A
C321   H339    1.084   .     S
C322   H344    1.082   .     S
C323   C332    1.391   .     A
C323   C359    1.454   .     S
C324   C332    1.400   .     A
C324   C331    1.390   .     A
C324   H381    1.083   .     S
C325   C327    1.454   .     S
C325   C333    1.404   .     A
C326   C13     1.338   1_565 S
C326   H75     1.088   1_565 S
C327   O351    1.301   .     A
C328   C329    1.402   .     S
C329   O352    1.291   .     A
C329   O398    1.279   .     S
C330   O354    1.299   .     A
C330   C332    1.446   .     S
C330   O400    1.291   .     S
C331   C725    1.401   1_554 S
C331   H745    1.084   1_554 S
C333   C739    1.389   .     S
C334   H343    1.083   .     S
C334   C335    1.392   .     A
C334   C738    1.389   1_554 S
C335   H342    1.080   .     S
C335   C722    1.416   1_554 S
H337   C58     1.088   1_565 S
H338   N346    1.029   .     S
H340   C736    1.084   .     S
H341   C378    1.083   .     S
N346   Zn357   2.025   .     S
N346   N347    1.287   .     D
N347   Zn356   2.025   .     S
N347   Cl358   1.725   .     S
O348   Zn356   1.953   .     S
O348   C361    1.279   .     S
O349   Zn357   1.977   .     S
O350   Zn356   1.949   .     S
O350   C372    1.293   .     S
O351   Zn357   1.905   .     S
O352   Zn356   1.977   .     S
O353   Zn357   1.953   .     S
O354   Zn356   1.905   .     S
O355   Zn357   1.949   .     S
C359   N360    1.158   .     T
C361   O394    1.291   .     A
C361   C371    1.402   .     S
C362   C363    1.403   .     A
C362   C769    1.413   .     S
C362   C785    1.416   .     S
C363   C370    1.405   .     A
C363   C367    1.413   .     A
C364   C368    1.402   .     A
C364   C767    1.413   1_554 S
C364   C770    1.423   1_554 S
C365   C366    1.393   .     A
C365   C769    1.423   .     S
C365   C781    1.401   .     S
C366   C367    1.387   .     A
C366   H384    1.084   .     S
C367   H389    1.082   .     S
C368   C377    1.391   .     A
C368   C404    1.454   .     S
C369   C377    1.400   .     A
C369   C376    1.390   .     A
C369   H291    1.083   1_655 S
C370   C372    1.454   .     S
C370   C378    1.404   .     A
C371   C58     1.338   1_565 S
C371   H120    1.088   1_565 S
C372   O396    1.301   .     A
C373   C374    1.402   .     S
C373   C146    1.338   1_655 S
C374   O397    1.291   .     A
C374   O308    1.279   1_655 S
C375   O399    1.299   .     A
C375   C377    1.446   .     S
C375   O310    1.291   1_655 S
C376   C770    1.401   1_554 S
C376   H790    1.084   1_554 S
C378   C784    1.389   .     S
C379   H388    1.083   .     S
C379   C380    1.392   .     A
C379   C783    1.389   1_554 S
C380   H387    1.080   .     S
C380   C767    1.416   1_554 S
H382   C103    1.088   1_565 S
H383   N391    1.029   .     S
H385   C781    1.084   .     S
H386   C288    1.083   1_655 S
N391   Zn402   2.025   .     S
N391   N392    1.287   .     D
N392   Zn401   2.025   .     S
N392   Cl403   1.725   .     S
O393   Zn401   1.953   .     S
O393   C271    1.279   1_655 S
O394   Zn402   1.977   .     S
O395   Zn401   1.949   .     S
O395   C282    1.293   1_655 S
O396   Zn402   1.905   .     S
O397   Zn401   1.977   .     S
O398   Zn402   1.953   .     S
O399   Zn401   1.905   .     S
O400   Zn402   1.949   .     S
C404   N405    1.158   .     T
C406   O439    1.291   .     A
C406   C416    1.402   .     S
C406   O528    1.279   1_455 S
C407   C408    1.403   .     A
C407   C4      1.413   1_556 S
C407   C20     1.416   1_556 S
C408   C415    1.405   .     A
C408   C412    1.413   .     A
C409   C413    1.402   .     A
C410   C411    1.393   .     A
C410   C4      1.423   1_556 S
C410   C16     1.401   1_556 S
C411   C412    1.387   .     A
C411   H429    1.084   .     S
C412   H434    1.082   .     S
C413   C422    1.391   .     A
C413   C449    1.454   .     S
C414   C422    1.400   .     A
C414   C421    1.390   .     A
C414   H471    1.083   .     S
C415   C417    1.454   .     S
C415   C423    1.404   .     A
C416   C643    1.338   1_455 S
C416   H570    1.088   .     S
C417   O441    1.301   .     A
C417   O530    1.293   1_455 S
C418   C419    1.402   .     S
C418   C731    1.338   1_545 S
C418   H697    1.088   1_545 S
C419   O442    1.291   .     A
C419   O488    1.279   .     S
C420   O444    1.299   .     A
C420   C422    1.446   .     S
C420   O490    1.291   .     S
C423   C19     1.389   1_556 S
C423   H521    1.083   1_455 S
C424   H433    1.083   .     S
C424   C425    1.392   .     A
C425   H432    1.080   .     S
H426   C504    1.083   1_455 S
H427   C553    1.088   .     S
H428   N436    1.029   .     S
H430   C16     1.084   1_556 S
H431   C468    1.083   .     S
H435   C686    1.088   1_545 S
N436   Zn447   2.025   .     S
N436   N437    1.287   .     D
N437   Zn446   2.025   .     S
N437   Cl448   1.725   .     S
O438   Zn446   1.953   .     S
O438   C451    1.279   .     S
O439   Zn447   1.977   .     S
O440   Zn446   1.949   .     S
O440   C462    1.293   .     S
O441   Zn447   1.905   .     S
O442   Zn446   1.977   .     S
O443   Zn447   1.953   .     S
O443   C509    1.279   1_455 S
O444   Zn446   1.905   .     S
O445   Zn447   1.949   .     S
O445   C510    1.291   1_455 S
C449   N450    1.158   .     T
C451   O484    1.291   .     A
C451   C461    1.402   .     S
C452   C453    1.403   .     A
C452   C49     1.413   1_556 S
C452   C65     1.416   1_556 S
C453   C460    1.405   .     A
C453   C457    1.413   .     A
C454   C458    1.402   .     A
C455   C456    1.393   .     A
C455   C49     1.423   1_556 S
C455   C61     1.401   1_556 S
C456   C457    1.387   .     A
C456   H474    1.084   .     S
C457   H479    1.082   .     S
C458   C467    1.391   .     A
C458   C494    1.454   .     S
C459   C467    1.400   .     A
C459   C466    1.390   .     A
C459   H516    1.083   .     S
C460   C462    1.454   .     S
C460   C468    1.404   .     A
C461   C553    1.338   .     S
C461   H615    1.088   .     S
C462   O486    1.301   .     A
C463   C464    1.402   .     S
C463   C776    1.338   1_545 S
C463   H742    1.088   1_545 S
C464   O487    1.291   .     A
C464   O533    1.279   .     S
C465   O489    1.299   .     A
C465   C467    1.446   .     S
C465   O535    1.291   .     S
C468   C64     1.389   1_556 S
C469   H478    1.083   .     S
C469   C470    1.392   .     A
C470   H477    1.080   .     S
H472   C598    1.088   .     S
H473   N481    1.029   .     S
H475   C61     1.084   1_556 S
H476   C513    1.083   .     S
H480   C731    1.088   1_545 S
N481   Zn492   2.025   .     S
N481   N482    1.287   .     D
N482   Zn491   2.025   .     S
N482   Cl493   1.725   .     S
O483   Zn491   1.953   .     S
O483   C496    1.279   .     S
O484   Zn492   1.977   .     S
O485   Zn491   1.949   .     S
O485   C507    1.293   .     S
O486   Zn492   1.905   .     S
O487   Zn491   1.977   .     S
O488   Zn492   1.953   .     S
O489   Zn491   1.905   .     S
O490   Zn492   1.949   .     S
C494   N495    1.158   .     T
C496   O529    1.291   .     A
C496   C506    1.402   .     S
C497   C498    1.403   .     A
C497   C94     1.413   1_556 S
C497   C110    1.416   1_556 S
C498   C505    1.405   .     A
C498   C502    1.413   .     A
C499   C503    1.402   .     A
C500   C501    1.393   .     A
C500   C94     1.423   1_556 S
C500   C106    1.401   1_556 S
C501   C502    1.387   .     A
C501   H519    1.084   .     S
C502   H524    1.082   .     S
C503   C512    1.391   .     A
C503   C539    1.454   .     S
C504   C512    1.400   .     A
C504   C511    1.390   .     A
C504   H426    1.083   1_655 S
C505   C507    1.454   .     S
C505   C513    1.404   .     A
C506   C598    1.338   .     S
C506   H660    1.088   .     S
C507   O531    1.301   .     A
C508   C509    1.402   .     S
C508   C686    1.338   1_645 S
C508   H787    1.088   1_545 S
C509   O532    1.291   .     A
C509   O443    1.279   1_655 S
C510   O534    1.299   .     A
C510   C512    1.446   .     S
C510   O445    1.291   1_655 S
C513   C109    1.389   1_556 S
C514   H523    1.083   .     S
C514   C515    1.392   .     A
C515   H522    1.080   .     S
H517   C643    1.088   .     S
H518   N526    1.029   .     S
H520   C106    1.084   1_556 S
H521   C423    1.083   1_655 S
H525   C776    1.088   1_545 S
N526   Zn537   2.025   .     S
N526   N527    1.287   .     D
N527   Zn536   2.025   .     S
N527   Cl538   1.725   .     S
O528   Zn536   1.953   .     S
O528   C406    1.279   1_655 S
O529   Zn537   1.977   .     S
O530   Zn536   1.949   .     S
O530   C417    1.293   1_655 S
O531   Zn537   1.905   .     S
O532   Zn536   1.977   .     S
O533   Zn537   1.953   .     S
O534   Zn536   1.905   .     S
O535   Zn537   1.949   .     S
C539   N540    1.158   .     T
C541   O574    1.291   .     A
C541   C551    1.402   .     S
C541   O663    1.279   1_455 S
C542   C543    1.403   .     A
C542   C139    1.413   1_556 S
C542   C155    1.416   1_556 S
C543   C550    1.405   .     A
C543   C547    1.413   .     A
C544   C548    1.402   .     A
C545   C546    1.393   .     A
C545   C139    1.423   1_556 S
C545   C151    1.401   1_556 S
C546   C547    1.387   .     A
C546   H564    1.084   .     S
C547   H569    1.082   .     S
C548   C557    1.391   .     A
C548   C584    1.454   .     S
C549   C557    1.400   .     A
C549   C556    1.390   .     A
C549   H606    1.083   .     S
C550   C552    1.454   .     S
C550   C558    1.404   .     A
C551   C778    1.338   1_455 S
C551   H705    1.088   .     S
C552   O576    1.301   .     A
C552   O665    1.293   1_455 S
C553   C554    1.402   .     S
C554   O577    1.291   .     A
C554   O623    1.279   .     S
C555   O579    1.299   .     A
C555   C557    1.446   .     S
C555   O625    1.291   .     S
C558   C154    1.389   1_556 S
C558   H656    1.083   1_455 S
C559   H568    1.083   .     S
C559   C560    1.392   .     A
C560   H567    1.080   .     S
H561   C639    1.083   1_455 S
H562   C688    1.088   .     S
H563   N571    1.029   .     S
H565   C151    1.084   1_556 S
H566   C603    1.083   .     S
N571   Zn582   2.025   .     S
N571   N572    1.287   .     D
N572   Zn581   2.025   .     S
N572   Cl583   1.725   .     S
O573   Zn581   1.953   .     S
O573   C586    1.279   .     S
O574   Zn582   1.977   .     S
O575   Zn581   1.949   .     S
O575   C597    1.293   .     S
O576   Zn582   1.905   .     S
O577   Zn581   1.977   .     S
O578   Zn582   1.953   .     S
O578   C644    1.279   1_455 S
O579   Zn581   1.905   .     S
O580   Zn582   1.949   .     S
O580   C645    1.291   1_455 S
C584   N585    1.158   .     T
C586   O619    1.291   .     A
C586   C596    1.402   .     S
C587   C588    1.403   .     A
C587   C184    1.413   1_556 S
C587   C200    1.416   1_556 S
C588   C595    1.405   .     A
C588   C592    1.413   .     A
C589   C593    1.402   .     A
C590   C591    1.393   .     A
C590   C184    1.423   1_556 S
C590   C196    1.401   1_556 S
C591   C592    1.387   .     A
C591   H609    1.084   .     S
C592   H614    1.082   .     S
C593   C602    1.391   .     A
C593   C629    1.454   .     S
C594   C602    1.400   .     A
C594   C601    1.390   .     A
C594   H651    1.083   .     S
C595   C597    1.454   .     S
C595   C603    1.404   .     A
C596   C688    1.338   .     S
C596   H750    1.088   .     S
C597   O621    1.301   .     A
C598   C599    1.402   .     S
C599   O622    1.291   .     A
C599   O668    1.279   .     S
C600   O624    1.299   .     A
C600   C602    1.446   .     S
C600   O670    1.291   .     S
C603   C199    1.389   1_556 S
C604   H613    1.083   .     S
C604   C605    1.392   .     A
C605   H612    1.080   .     S
H607   C733    1.088   .     S
H608   N616    1.029   .     S
H610   C196    1.084   1_556 S
H611   C648    1.083   .     S
N616   Zn627   2.025   .     S
N616   N617    1.287   .     D
N617   Zn626   2.025   .     S
N617   Cl628   1.725   .     S
O618   Zn626   1.953   .     S
O618   C631    1.279   .     S
O619   Zn627   1.977   .     S
O620   Zn626   1.949   .     S
O620   C642    1.293   .     S
O621   Zn627   1.905   .     S
O622   Zn626   1.977   .     S
O623   Zn627   1.953   .     S
O624   Zn626   1.905   .     S
O625   Zn627   1.949   .     S
C629   N630    1.158   .     T
C631   O664    1.291   .     A
C631   C641    1.402   .     S
C632   C633    1.403   .     A
C632   C229    1.413   1_556 S
C632   C245    1.416   1_556 S
C633   C640    1.405   .     A
C633   C637    1.413   .     A
C634   C638    1.402   .     A
C635   C636    1.393   .     A
C635   C229    1.423   1_556 S
C635   C241    1.401   1_556 S
C636   C637    1.387   .     A
C636   H654    1.084   .     S
C637   H659    1.082   .     S
C638   C647    1.391   .     A
C638   C674    1.454   .     S
C639   C647    1.400   .     A
C639   C646    1.390   .     A
C639   H561    1.083   1_655 S
C640   C642    1.454   .     S
C640   C648    1.404   .     A
C641   C733    1.338   .     S
C641   H795    1.088   .     S
C642   O666    1.301   .     A
C643   C644    1.402   .     S
C643   C416    1.338   1_655 S
C644   O667    1.291   .     A
C644   O578    1.279   1_655 S
C645   O669    1.299   .     A
C645   C647    1.446   .     S
C645   O580    1.291   1_655 S
C648   C244    1.389   1_556 S
C649   H658    1.083   .     S
C649   C650    1.392   .     A
C650   H657    1.080   .     S
H652   C778    1.088   .     S
H653   N661    1.029   .     S
H655   C241    1.084   1_556 S
H656   C558    1.083   1_655 S
N661   Zn672   2.025   .     S
N661   N662    1.287   .     D
N662   Zn671   2.025   .     S
N662   Cl673   1.725   .     S
O663   Zn671   1.953   .     S
O663   C541    1.279   1_655 S
O664   Zn672   1.977   .     S
O665   Zn671   1.949   .     S
O665   C552    1.293   1_655 S
O666   Zn672   1.905   .     S
O667   Zn671   1.977   .     S
O668   Zn672   1.953   .     S
O669   Zn671   1.905   .     S
O670   Zn672   1.949   .     S
C674   N675    1.158   .     T
C676   O709    1.291   .     A
C676   C686    1.402   .     S
C676   O798    1.279   1_455 S
C677   C678    1.403   .     A
C677   C274    1.413   1_556 S
C677   C290    1.416   1_556 S
C678   C685    1.405   .     A
C678   C682    1.413   .     A
C679   C683    1.402   .     A
C680   C681    1.393   .     A
C680   C274    1.423   1_556 S
C680   C286    1.401   1_556 S
C681   C682    1.387   .     A
C681   H699    1.084   .     S
C682   H704    1.082   .     S
C683   C692    1.391   .     A
C683   C719    1.454   .     S
C684   C692    1.400   .     A
C684   C691    1.390   .     A
C684   H741    1.083   .     S
C685   C687    1.454   .     S
C685   C693    1.404   .     A
C686   C508    1.338   1_465 S
C686   H435    1.088   1_565 S
C687   O711    1.301   .     A
C687   O800    1.293   1_455 S
C688   C689    1.402   .     S
C689   O712    1.291   .     A
C689   O758    1.279   .     S
C690   O714    1.299   .     A
C690   C692    1.446   .     S
C690   O760    1.291   .     S
C693   C289    1.389   1_556 S
C693   H791    1.083   1_455 S
C694   H703    1.083   .     S
C694   C695    1.392   .     A
C695   H702    1.080   .     S
H696   C774    1.083   1_455 S
H697   C418    1.088   1_565 S
H698   N706    1.029   .     S
H700   C286    1.084   1_556 S
H701   C738    1.083   .     S
N706   Zn717   2.025   .     S
N706   N707    1.287   .     D
N707   Zn716   2.025   .     S
N707   Cl718   1.725   .     S
O708   Zn716   1.953   .     S
O708   C721    1.279   .     S
O709   Zn717   1.977   .     S
O710   Zn716   1.949   .     S
O710   C732    1.293   .     S
O711   Zn717   1.905   .     S
O712   Zn716   1.977   .     S
O713   Zn717   1.953   .     S
O713   C779    1.279   1_455 S
O714   Zn716   1.905   .     S
O715   Zn717   1.949   .     S
O715   C780    1.291   1_455 S
C719   N720    1.158   .     T
C721   O754    1.291   .     A
C721   C731    1.402   .     S
C722   C723    1.403   .     A
C722   C319    1.413   1_556 S
C722   C335    1.416   1_556 S
C723   C730    1.405   .     A
C723   C727    1.413   .     A
C724   C728    1.402   .     A
C725   C726    1.393   .     A
C725   C319    1.423   1_556 S
C725   C331    1.401   1_556 S
C726   C727    1.387   .     A
C726   H744    1.084   .     S
C727   H749    1.082   .     S
C728   C737    1.391   .     A
C728   C764    1.454   .     S
C729   C737    1.400   .     A
C729   C736    1.390   .     A
C729   H786    1.083   .     S
C730   C732    1.454   .     S
C730   C738    1.404   .     A
C731   C418    1.338   1_565 S
C731   H480    1.088   1_565 S
C732   O756    1.301   .     A
C733   C734    1.402   .     S
C734   O757    1.291   .     A
C734   O803    1.279   .     S
C735   O759    1.299   .     A
C735   C737    1.446   .     S
C735   O805    1.291   .     S
C738   C334    1.389   1_556 S
C739   H748    1.083   .     S
C739   C740    1.392   .     A
C740   H747    1.080   .     S
H742   C463    1.088   1_565 S
H743   N751    1.029   .     S
H745   C331    1.084   1_556 S
H746   C783    1.083   .     S
N751   Zn762   2.025   .     S
N751   N752    1.287   .     D
N752   Zn761   2.025   .     S
N752   Cl763   1.725   .     S
O753   Zn761   1.953   .     S
O753   C766    1.279   .     S
O754   Zn762   1.977   .     S
O755   Zn761   1.949   .     S
O755   C777    1.293   .     S
O756   Zn762   1.905   .     S
O757   Zn761   1.977   .     S
O758   Zn762   1.953   .     S
O759   Zn761   1.905   .     S
O760   Zn762   1.949   .     S
C764   N765    1.158   .     T
C766   O799    1.291   .     A
C766   C776    1.402   .     S
C767   C768    1.403   .     A
C767   C364    1.413   1_556 S
C767   C380    1.416   1_556 S
C768   C775    1.405   .     A
C768   C772    1.413   .     A
C769   C773    1.402   .     A
C770   C771    1.393   .     A
C770   C364    1.423   1_556 S
C770   C376    1.401   1_556 S
C771   C772    1.387   .     A
C771   H789    1.084   .     S
C772   H794    1.082   .     S
C773   C782    1.391   .     A
C773   C809    1.454   .     S
C774   C782    1.400   .     A
C774   C781    1.390   .     A
C774   H696    1.083   1_655 S
C775   C777    1.454   .     S
C775   C783    1.404   .     A
C776   C463    1.338   1_565 S
C776   H525    1.088   1_565 S
C777   O801    1.301   .     A
C778   C779    1.402   .     S
C778   C551    1.338   1_655 S
C779   O802    1.291   .     A
C779   O713    1.279   1_655 S
C780   O804    1.299   .     A
C780   C782    1.446   .     S
C780   O715    1.291   1_655 S
C783   C379    1.389   1_556 S
C784   H793    1.083   .     S
C784   C785    1.392   .     A
C785   H792    1.080   .     S
H787   C508    1.088   1_565 S
H788   N796    1.029   .     S
H790   C376    1.084   1_556 S
H791   C693    1.083   1_655 S
N796   Zn807   2.025   .     S
N796   N797    1.287   .     D
N797   Zn806   2.025   .     S
N797   Cl808   1.725   .     S
O798   Zn806   1.953   .     S
O798   C676    1.279   1_655 S
O799   Zn807   1.977   .     S
O800   Zn806   1.949   .     S
O800   C687    1.293   1_655 S
O801   Zn807   1.905   .     S
O802   Zn806   1.977   .     S
O803   Zn807   1.953   .     S
O804   Zn806   1.905   .     S
O805   Zn807   1.949   .     S
C809   N810    1.158   .     T
