data_str_m3_o1_o18_pcu_sym.235
_audit_creation_date              2020-01-03
_audit_creation_method            'Materials Studio'
_symmetry_space_group_name_H-M    'P1'
_symmetry_Int_Tables_number       1
_symmetry_cell_setting            triclinic
loop_
_symmetry_equiv_pos_as_xyz
  x,y,z
_cell_length_a                    29.5337
_cell_length_b                    31.9588
_cell_length_c                    31.0887
_cell_angle_alpha                 89.9241
_cell_angle_beta                  66.8413
_cell_angle_gamma                 89.7620
loop_
_atom_site_label
_atom_site_type_symbol
_atom_site_fract_x
_atom_site_fract_y
_atom_site_fract_z
_atom_site_U_iso_or_equiv
_atom_site_adp_type
_atom_site_occupancy
C1     C     0.16681   0.24658   0.24948   0.00000  Uiso   1.00
C2     C     0.16671   0.08665   0.25045   0.00000  Uiso   1.00
C3     C     0.11007   0.15291   0.05210   0.00000  Uiso   1.00
C4     C     0.22270   0.18210   0.44832   0.00000  Uiso   1.00
C5     C     0.07615   0.14433   0.03224   0.00000  Uiso   1.00
C6     C     0.25664   0.19053   0.46819   0.00000  Uiso   1.00
C7     C     0.18945   0.31093   0.27455   0.00000  Uiso   1.00
C8     C     0.14608   0.02207   0.22302   0.00000  Uiso   1.00
C9     C     0.19187   0.02046   0.27388   0.00000  Uiso   1.00
C10    C     0.14745   0.31245   0.22057   0.00000  Uiso   1.00
C11    C     0.16798   0.04246   0.24955   0.00000  Uiso   1.00
C12    C     0.16758   0.29062   0.24812   0.00000  Uiso   1.00
C13    C     0.32162   0.14088   0.22069   0.00000  Uiso   1.00
C14    C     0.01181   0.19265   0.27910   0.00000  Uiso   1.00
C15    C     0.03616   0.14076   0.22083   0.00000  Uiso   1.00
C16    C     0.29719   0.19262   0.27913   0.00000  Uiso   1.00
C17    C     0.13574   0.16684   0.33809   0.00000  Uiso   1.00
C18    C     0.19757   0.16656   0.16194   0.00000  Uiso   1.00
C19    C     0.11610   0.16522   0.38891   0.00000  Uiso   1.00
C20    C     0.21707   0.16867   0.11119   0.00000  Uiso   1.00
C21    C     0.05615   0.14235   0.46335   0.00000  Uiso   1.00
C22    C     0.27671   0.19228   0.03701   0.00000  Uiso   1.00
C23    C     0.06994   0.14837   0.41546   0.00000  Uiso   1.00
C24    C     0.26305   0.18588   0.08480   0.00000  Uiso   1.00
C25    C     0.14753   0.17679   0.41026   0.00000  Uiso   1.00
C26    C     0.18551   0.15745   0.08985   0.00000  Uiso   1.00
C27    C     0.13723   0.16648   0.45674   0.00000  Uiso   1.00
C28    C     0.19561   0.16826   0.04357   0.00000  Uiso   1.00
C29    C     0.08960   0.15092   0.48434   0.00000  Uiso   1.00
C30    C     0.24322   0.18383   0.01603   0.00000  Uiso   1.00
C31    C     0.17319   0.17125   0.47607   0.00000  Uiso   1.00
C32    C     0.15958   0.16373   0.02432   0.00000  Uiso   1.00
H33    H     0.15257   0.14069   0.11067   0.00000  Uiso   1.00
H34    H     0.18053   0.19337   0.38926   0.00000  Uiso   1.00
H35    H     0.28782   0.19497   0.10116   0.00000  Uiso   1.00
H36    H     0.04513   0.13924   0.39916   0.00000  Uiso   1.00
H37    H     0.02004   0.12959   0.48346   0.00000  Uiso   1.00
H38    H     0.31273   0.20525   0.01698   0.00000  Uiso   1.00
H39    H     0.09590   0.15172   0.08972   0.00000  Uiso   1.00
H40    H     0.23693   0.18336   0.41071   0.00000  Uiso   1.00
H41    H     0.20398   0.29347   0.29625   0.00000  Uiso   1.00
H42    H     0.12900   0.03948   0.20336   0.00000  Uiso   1.00
H43    H     0.06400   0.11994   0.19757   0.00000  Uiso   1.00
H44    H     0.26933   0.21340   0.30242   0.00000  Uiso   1.00
N45    N     0.04759   0.16668   0.25001   0.00000  Uiso   1.00
N46    N     0.28574   0.16666   0.24999   0.00000  Uiso   1.00
O47    O     0.12846   0.22775   0.25001   0.00000  Uiso   1.00
O48    O     0.20488   0.10558   0.25000   0.00000  Uiso   1.00
O49    O     0.20490   0.22774   0.25000   0.00000  Uiso   1.00
O50    O     0.12843   0.10559   0.25000   0.00000  Uiso   1.00
O51    O     0.10661   0.16667   0.31613   0.00000  Uiso   1.00
O52    O     0.22672   0.16666   0.18388   0.00000  Uiso   1.00
O53    O     0.18305   0.16666   0.31612   0.00000  Uiso   1.00
O54    O     0.15028   0.16667   0.18388   0.00000  Uiso   1.00
Zn55   Zn    0.11562   0.16667   0.25000   0.00000  Uiso   1.00
Zn56   Zn    0.21771   0.16666   0.25000   0.00000  Uiso   1.00
O57    O     0.02795   0.13426   0.06047   0.00000  Uiso   1.00
C58    C     0.02620   0.09340   0.07842   0.00000  Uiso   1.00
H59    H     0.04485   0.09222   0.10333   0.00000  Uiso   1.00
H60    H     0.04401   0.07052   0.04955   0.00000  Uiso   1.00
C61    C     0.30563   0.08098   0.10462   0.00000  Uiso   1.00
H62    H     0.28721   0.10394   0.13295   0.00000  Uiso   1.00
H63    H     0.28652   0.08155   0.08014   0.00000  Uiso   1.00
C64    C     0.30097   0.03741   0.12609   0.00000  Uiso   1.00
H65    H     0.31687   0.01353   0.09818   0.00000  Uiso   1.00
H66    H     0.26150   0.03010   0.14622   0.00000  Uiso   1.00
H67    H     0.32040   0.03599   0.15025   0.00000  Uiso   1.00
O68    O     0.30490   0.20029   0.43997   0.00000  Uiso   1.00
C69    C     0.30699   0.24113   0.42194   0.00000  Uiso   1.00
H70    H     0.28938   0.26413   0.45075   0.00000  Uiso   1.00
H71    H     0.28838   0.24243   0.39701   0.00000  Uiso   1.00
C72    C     0.02767   0.25315   0.39576   0.00000  Uiso   1.00
H73    H     0.04653   0.25307   0.42046   0.00000  Uiso   1.00
H74    H     0.04607   0.22970   0.36797   0.00000  Uiso   1.00
C75    C     0.03269   0.29628   0.37330   0.00000  Uiso   1.00
H76    H     0.01414   0.29679   0.34842   0.00000  Uiso   1.00
H77    H     0.07228   0.30362   0.35381   0.00000  Uiso   1.00
H78    H     0.01599   0.32057   0.40055   0.00000  Uiso   1.00
O79    O     0.21254   0.04051   0.30125   0.00000  Uiso   1.00
C80    C     0.26385   0.04569   0.27549   0.00000  Uiso   1.00
H81    H     0.27436   0.07566   0.28703   0.00000  Uiso   1.00
H82    H     0.27431   0.04851   0.23695   0.00000  Uiso   1.00
C83    C     0.29352   0.01039   0.28564   0.00000  Uiso   1.00
H84    H     0.28207   0.00697   0.32406   0.00000  Uiso   1.00
H85    H     0.28659   0.31376   0.27132   0.00000  Uiso   1.00
C86    C     0.01534   0.01937   0.26316   0.00000  Uiso   1.00
H87    H     0.02745   0.02341   0.22475   0.00000  Uiso   1.00
H88    H     0.03606   0.32609   0.26964   0.00000  Uiso   1.00
H89    H     0.02410   0.04817   0.27831   0.00000  Uiso   1.00
O90    O     0.12619   0.29230   0.19377   0.00000  Uiso   1.00
C91    C     0.16330   0.27788   0.15144   0.00000  Uiso   1.00
H92    H     0.14890   0.24959   0.14042   0.00000  Uiso   1.00
H93    H     0.19791   0.26799   0.15510   0.00000  Uiso   1.00
C94    C     0.17468   0.31106   0.11303   0.00000  Uiso   1.00
H95    H     0.14005   0.32037   0.10940   0.00000  Uiso   1.00
H96    H     0.19053   0.00587   0.12271   0.00000  Uiso   1.00
C97    C     0.21127   0.29452   0.06615   0.00000  Uiso   1.00
H98    H     0.24635   0.28531   0.06890   0.00000  Uiso   1.00
H99    H     0.21917   0.31931   0.03914   0.00000  Uiso   1.00
H100   H     0.19568   0.26703   0.05498   0.00000  Uiso   1.00
H101   H     0.31325   0.12017   0.19738   0.00000  Uiso   1.00
H102   H     0.02025   0.21348   0.30229   0.00000  Uiso   1.00
C103   C     0.50014   0.24658   0.24948   0.00000  Uiso   1.00
C104   C     0.50004   0.08665   0.25045   0.00000  Uiso   1.00
C105   C     0.44340   0.15291   0.05210   0.00000  Uiso   1.00
C106   C     0.55603   0.18210   0.44832   0.00000  Uiso   1.00
C107   C     0.40948   0.14433   0.03224   0.00000  Uiso   1.00
C108   C     0.58997   0.19053   0.46819   0.00000  Uiso   1.00
C109   C     0.52279   0.31093   0.27455   0.00000  Uiso   1.00
C110   C     0.47941   0.02207   0.22302   0.00000  Uiso   1.00
C111   C     0.52520   0.02046   0.27388   0.00000  Uiso   1.00
C112   C     0.48079   0.31245   0.22057   0.00000  Uiso   1.00
C113   C     0.50131   0.04246   0.24955   0.00000  Uiso   1.00
C114   C     0.50091   0.29062   0.24812   0.00000  Uiso   1.00
C115   C     0.65495   0.14088   0.22069   0.00000  Uiso   1.00
C116   C     0.34515   0.19265   0.27910   0.00000  Uiso   1.00
C117   C     0.36949   0.14076   0.22083   0.00000  Uiso   1.00
C118   C     0.63053   0.19262   0.27913   0.00000  Uiso   1.00
C119   C     0.46908   0.16684   0.33809   0.00000  Uiso   1.00
C120   C     0.53090   0.16656   0.16194   0.00000  Uiso   1.00
C121   C     0.44943   0.16522   0.38891   0.00000  Uiso   1.00
C122   C     0.55041   0.16867   0.11119   0.00000  Uiso   1.00
C123   C     0.38948   0.14235   0.46335   0.00000  Uiso   1.00
C124   C     0.61005   0.19228   0.03701   0.00000  Uiso   1.00
C125   C     0.40327   0.14837   0.41546   0.00000  Uiso   1.00
C126   C     0.59638   0.18588   0.08480   0.00000  Uiso   1.00
C127   C     0.48086   0.17679   0.41026   0.00000  Uiso   1.00
C128   C     0.51885   0.15745   0.08985   0.00000  Uiso   1.00
C129   C     0.47057   0.16648   0.45674   0.00000  Uiso   1.00
C130   C     0.52894   0.16826   0.04357   0.00000  Uiso   1.00
C131   C     0.42293   0.15092   0.48434   0.00000  Uiso   1.00
C132   C     0.57656   0.18383   0.01603   0.00000  Uiso   1.00
C133   C     0.50652   0.17125   0.47607   0.00000  Uiso   1.00
C134   C     0.49291   0.16373   0.02432   0.00000  Uiso   1.00
H135   H     0.48591   0.14069   0.11067   0.00000  Uiso   1.00
H136   H     0.51387   0.19337   0.38926   0.00000  Uiso   1.00
H137   H     0.62115   0.19497   0.10116   0.00000  Uiso   1.00
H138   H     0.37847   0.13924   0.39916   0.00000  Uiso   1.00
H139   H     0.35338   0.12959   0.48346   0.00000  Uiso   1.00
H140   H     0.64606   0.20525   0.01698   0.00000  Uiso   1.00
H141   H     0.42923   0.15172   0.08972   0.00000  Uiso   1.00
H142   H     0.57026   0.18336   0.41071   0.00000  Uiso   1.00
H143   H     0.53731   0.29347   0.29625   0.00000  Uiso   1.00
H144   H     0.46234   0.03948   0.20336   0.00000  Uiso   1.00
H145   H     0.39733   0.11994   0.19757   0.00000  Uiso   1.00
H146   H     0.60267   0.21340   0.30242   0.00000  Uiso   1.00
N147   N     0.38093   0.16668   0.25001   0.00000  Uiso   1.00
N148   N     0.61907   0.16666   0.24999   0.00000  Uiso   1.00
O149   O     0.46179   0.22775   0.25001   0.00000  Uiso   1.00
O150   O     0.53821   0.10558   0.25000   0.00000  Uiso   1.00
O151   O     0.53823   0.22774   0.25000   0.00000  Uiso   1.00
O152   O     0.46177   0.10559   0.25000   0.00000  Uiso   1.00
O153   O     0.43994   0.16667   0.31613   0.00000  Uiso   1.00
O154   O     0.56006   0.16666   0.18388   0.00000  Uiso   1.00
O155   O     0.51639   0.16666   0.31612   0.00000  Uiso   1.00
O156   O     0.48361   0.16667   0.18388   0.00000  Uiso   1.00
Zn157  Zn    0.44896   0.16667   0.25000   0.00000  Uiso   1.00
Zn158  Zn    0.55104   0.16666   0.25000   0.00000  Uiso   1.00
O159   O     0.36128   0.13426   0.06047   0.00000  Uiso   1.00
C160   C     0.35953   0.09340   0.07842   0.00000  Uiso   1.00
H161   H     0.37818   0.09222   0.10333   0.00000  Uiso   1.00
H162   H     0.37734   0.07052   0.04955   0.00000  Uiso   1.00
C163   C     0.63896   0.08098   0.10462   0.00000  Uiso   1.00
H164   H     0.62054   0.10394   0.13295   0.00000  Uiso   1.00
H165   H     0.61985   0.08155   0.08014   0.00000  Uiso   1.00
C166   C     0.63431   0.03741   0.12609   0.00000  Uiso   1.00
H167   H     0.65020   0.01353   0.09818   0.00000  Uiso   1.00
H168   H     0.59483   0.03010   0.14622   0.00000  Uiso   1.00
H169   H     0.65373   0.03599   0.15025   0.00000  Uiso   1.00
O170   O     0.63824   0.20029   0.43997   0.00000  Uiso   1.00
C171   C     0.64033   0.24113   0.42194   0.00000  Uiso   1.00
H172   H     0.62271   0.26413   0.45075   0.00000  Uiso   1.00
H173   H     0.62171   0.24243   0.39701   0.00000  Uiso   1.00
C174   C     0.36100   0.25315   0.39576   0.00000  Uiso   1.00
H175   H     0.37987   0.25307   0.42046   0.00000  Uiso   1.00
H176   H     0.37941   0.22970   0.36797   0.00000  Uiso   1.00
C177   C     0.36602   0.29628   0.37330   0.00000  Uiso   1.00
H178   H     0.34747   0.29679   0.34842   0.00000  Uiso   1.00
H179   H     0.40561   0.30362   0.35381   0.00000  Uiso   1.00
H180   H     0.34932   0.32057   0.40055   0.00000  Uiso   1.00
O181   O     0.54587   0.04051   0.30125   0.00000  Uiso   1.00
C182   C     0.59719   0.04569   0.27549   0.00000  Uiso   1.00
H183   H     0.60769   0.07566   0.28703   0.00000  Uiso   1.00
H184   H     0.60764   0.04851   0.23695   0.00000  Uiso   1.00
C185   C     0.62685   0.01039   0.28564   0.00000  Uiso   1.00
H186   H     0.61540   0.00697   0.32406   0.00000  Uiso   1.00
H187   H     0.61992   0.31376   0.27132   0.00000  Uiso   1.00
C188   C     0.34867   0.01937   0.26316   0.00000  Uiso   1.00
H189   H     0.36078   0.02341   0.22475   0.00000  Uiso   1.00
H190   H     0.36939   0.32609   0.26964   0.00000  Uiso   1.00
H191   H     0.35743   0.04817   0.27831   0.00000  Uiso   1.00
O192   O     0.45952   0.29230   0.19377   0.00000  Uiso   1.00
C193   C     0.49663   0.27788   0.15144   0.00000  Uiso   1.00
H194   H     0.48224   0.24959   0.14042   0.00000  Uiso   1.00
H195   H     0.53125   0.26799   0.15510   0.00000  Uiso   1.00
C196   C     0.50801   0.31106   0.11303   0.00000  Uiso   1.00
H197   H     0.47338   0.32037   0.10940   0.00000  Uiso   1.00
H198   H     0.52387   0.00587   0.12271   0.00000  Uiso   1.00
C199   C     0.54460   0.29452   0.06615   0.00000  Uiso   1.00
H200   H     0.57968   0.28531   0.06890   0.00000  Uiso   1.00
H201   H     0.55250   0.31931   0.03914   0.00000  Uiso   1.00
H202   H     0.52902   0.26703   0.05498   0.00000  Uiso   1.00
H203   H     0.64658   0.12017   0.19738   0.00000  Uiso   1.00
H204   H     0.35359   0.21348   0.30229   0.00000  Uiso   1.00
C205   C     0.83347   0.24658   0.24948   0.00000  Uiso   1.00
C206   C     0.83338   0.08665   0.25045   0.00000  Uiso   1.00
C207   C     0.77673   0.15291   0.05210   0.00000  Uiso   1.00
C208   C     0.88937   0.18210   0.44832   0.00000  Uiso   1.00
C209   C     0.74282   0.14433   0.03224   0.00000  Uiso   1.00
C210   C     0.92330   0.19053   0.46819   0.00000  Uiso   1.00
C211   C     0.85612   0.31093   0.27455   0.00000  Uiso   1.00
C212   C     0.81275   0.02207   0.22302   0.00000  Uiso   1.00
C213   C     0.85853   0.02046   0.27388   0.00000  Uiso   1.00
C214   C     0.81412   0.31245   0.22057   0.00000  Uiso   1.00
C215   C     0.83464   0.04246   0.24955   0.00000  Uiso   1.00
C216   C     0.83425   0.29062   0.24812   0.00000  Uiso   1.00
C217   C     0.98829   0.14088   0.22069   0.00000  Uiso   1.00
C218   C     0.67848   0.19265   0.27910   0.00000  Uiso   1.00
C219   C     0.70283   0.14076   0.22083   0.00000  Uiso   1.00
C220   C     0.96386   0.19262   0.27913   0.00000  Uiso   1.00
C221   C     0.80241   0.16684   0.33809   0.00000  Uiso   1.00
C222   C     0.86423   0.16656   0.16194   0.00000  Uiso   1.00
C223   C     0.78277   0.16522   0.38891   0.00000  Uiso   1.00
C224   C     0.88374   0.16867   0.11119   0.00000  Uiso   1.00
C225   C     0.72282   0.14235   0.46335   0.00000  Uiso   1.00
C226   C     0.94338   0.19228   0.03701   0.00000  Uiso   1.00
C227   C     0.73661   0.14837   0.41546   0.00000  Uiso   1.00
C228   C     0.92972   0.18588   0.08480   0.00000  Uiso   1.00
C229   C     0.81420   0.17679   0.41026   0.00000  Uiso   1.00
C230   C     0.85218   0.15745   0.08985   0.00000  Uiso   1.00
C231   C     0.80390   0.16648   0.45674   0.00000  Uiso   1.00
C232   C     0.86228   0.16826   0.04357   0.00000  Uiso   1.00
C233   C     0.75626   0.15092   0.48434   0.00000  Uiso   1.00
C234   C     0.90989   0.18383   0.01603   0.00000  Uiso   1.00
C235   C     0.83986   0.17125   0.47607   0.00000  Uiso   1.00
C236   C     0.82625   0.16373   0.02432   0.00000  Uiso   1.00
H237   H     0.81924   0.14069   0.11067   0.00000  Uiso   1.00
H238   H     0.84720   0.19337   0.38926   0.00000  Uiso   1.00
H239   H     0.95449   0.19497   0.10116   0.00000  Uiso   1.00
H240   H     0.71180   0.13924   0.39916   0.00000  Uiso   1.00
H241   H     0.68671   0.12959   0.48346   0.00000  Uiso   1.00
H242   H     0.97939   0.20525   0.01698   0.00000  Uiso   1.00
H243   H     0.76257   0.15172   0.08972   0.00000  Uiso   1.00
H244   H     0.90359   0.18336   0.41071   0.00000  Uiso   1.00
H245   H     0.87065   0.29347   0.29625   0.00000  Uiso   1.00
H246   H     0.79567   0.03948   0.20336   0.00000  Uiso   1.00
H247   H     0.73067   0.11994   0.19757   0.00000  Uiso   1.00
H248   H     0.93600   0.21340   0.30242   0.00000  Uiso   1.00
N249   N     0.71426   0.16668   0.25001   0.00000  Uiso   1.00
N250   N     0.95241   0.16666   0.24999   0.00000  Uiso   1.00
O251   O     0.79512   0.22775   0.25001   0.00000  Uiso   1.00
O252   O     0.87154   0.10558   0.25000   0.00000  Uiso   1.00
O253   O     0.87157   0.22774   0.25000   0.00000  Uiso   1.00
O254   O     0.79510   0.10559   0.25000   0.00000  Uiso   1.00
O255   O     0.77328   0.16667   0.31613   0.00000  Uiso   1.00
O256   O     0.89339   0.16666   0.18388   0.00000  Uiso   1.00
O257   O     0.84972   0.16666   0.31612   0.00000  Uiso   1.00
O258   O     0.81695   0.16667   0.18388   0.00000  Uiso   1.00
Zn259  Zn    0.78229   0.16667   0.25000   0.00000  Uiso   1.00
Zn260  Zn    0.88438   0.16666   0.25000   0.00000  Uiso   1.00
O261   O     0.69462   0.13426   0.06047   0.00000  Uiso   1.00
C262   C     0.69286   0.09340   0.07842   0.00000  Uiso   1.00
H263   H     0.71152   0.09222   0.10333   0.00000  Uiso   1.00
H264   H     0.71067   0.07052   0.04955   0.00000  Uiso   1.00
C265   C     0.97229   0.08098   0.10462   0.00000  Uiso   1.00
H266   H     0.95388   0.10394   0.13295   0.00000  Uiso   1.00
H267   H     0.95318   0.08155   0.08014   0.00000  Uiso   1.00
C268   C     0.96764   0.03741   0.12609   0.00000  Uiso   1.00
H269   H     0.98354   0.01353   0.09818   0.00000  Uiso   1.00
H270   H     0.92816   0.03010   0.14622   0.00000  Uiso   1.00
H271   H     0.98707   0.03599   0.15025   0.00000  Uiso   1.00
O272   O     0.97157   0.20029   0.43997   0.00000  Uiso   1.00
C273   C     0.97366   0.24113   0.42194   0.00000  Uiso   1.00
H274   H     0.95604   0.26413   0.45075   0.00000  Uiso   1.00
H275   H     0.95504   0.24243   0.39701   0.00000  Uiso   1.00
C276   C     0.69434   0.25315   0.39576   0.00000  Uiso   1.00
H277   H     0.71320   0.25307   0.42046   0.00000  Uiso   1.00
H278   H     0.71274   0.22970   0.36797   0.00000  Uiso   1.00
C279   C     0.69936   0.29628   0.37330   0.00000  Uiso   1.00
H280   H     0.68080   0.29679   0.34842   0.00000  Uiso   1.00
H281   H     0.73894   0.30362   0.35381   0.00000  Uiso   1.00
H282   H     0.68266   0.32057   0.40055   0.00000  Uiso   1.00
O283   O     0.87920   0.04051   0.30125   0.00000  Uiso   1.00
C284   C     0.93052   0.04569   0.27549   0.00000  Uiso   1.00
H285   H     0.94103   0.07566   0.28703   0.00000  Uiso   1.00
H286   H     0.94098   0.04851   0.23695   0.00000  Uiso   1.00
C287   C     0.96018   0.01039   0.28564   0.00000  Uiso   1.00
H288   H     0.94874   0.00697   0.32406   0.00000  Uiso   1.00
H289   H     0.95325   0.31376   0.27132   0.00000  Uiso   1.00
C290   C     0.68200   0.01937   0.26316   0.00000  Uiso   1.00
H291   H     0.69412   0.02341   0.22475   0.00000  Uiso   1.00
H292   H     0.70272   0.32609   0.26964   0.00000  Uiso   1.00
H293   H     0.69076   0.04817   0.27831   0.00000  Uiso   1.00
O294   O     0.79286   0.29230   0.19377   0.00000  Uiso   1.00
C295   C     0.82997   0.27788   0.15144   0.00000  Uiso   1.00
H296   H     0.81557   0.24959   0.14042   0.00000  Uiso   1.00
H297   H     0.86458   0.26799   0.15510   0.00000  Uiso   1.00
C298   C     0.84135   0.31106   0.11303   0.00000  Uiso   1.00
H299   H     0.80672   0.32037   0.10940   0.00000  Uiso   1.00
H300   H     0.85720   0.00587   0.12271   0.00000  Uiso   1.00
C301   C     0.87793   0.29452   0.06615   0.00000  Uiso   1.00
H302   H     0.91301   0.28531   0.06890   0.00000  Uiso   1.00
H303   H     0.88584   0.31931   0.03914   0.00000  Uiso   1.00
H304   H     0.86235   0.26703   0.05498   0.00000  Uiso   1.00
H305   H     0.97992   0.12017   0.19738   0.00000  Uiso   1.00
H306   H     0.68692   0.21348   0.30229   0.00000  Uiso   1.00
C307   C     0.16681   0.57991   0.24948   0.00000  Uiso   1.00
C308   C     0.16671   0.41998   0.25045   0.00000  Uiso   1.00
C309   C     0.11007   0.48625   0.05210   0.00000  Uiso   1.00
C310   C     0.22270   0.51544   0.44832   0.00000  Uiso   1.00
C311   C     0.07615   0.47767   0.03224   0.00000  Uiso   1.00
C312   C     0.25664   0.52387   0.46819   0.00000  Uiso   1.00
C313   C     0.18945   0.64427   0.27455   0.00000  Uiso   1.00
C314   C     0.14608   0.35540   0.22302   0.00000  Uiso   1.00
C315   C     0.19187   0.35379   0.27388   0.00000  Uiso   1.00
C316   C     0.14745   0.64579   0.22057   0.00000  Uiso   1.00
C317   C     0.16798   0.37579   0.24955   0.00000  Uiso   1.00
C318   C     0.16758   0.62395   0.24812   0.00000  Uiso   1.00
C319   C     0.32162   0.47421   0.22069   0.00000  Uiso   1.00
C320   C     0.01181   0.52598   0.27910   0.00000  Uiso   1.00
C321   C     0.03616   0.47409   0.22083   0.00000  Uiso   1.00
C322   C     0.29719   0.52595   0.27913   0.00000  Uiso   1.00
C323   C     0.13574   0.50017   0.33809   0.00000  Uiso   1.00
C324   C     0.19757   0.49989   0.16194   0.00000  Uiso   1.00
C325   C     0.11610   0.49855   0.38891   0.00000  Uiso   1.00
C326   C     0.21707   0.50200   0.11119   0.00000  Uiso   1.00
C327   C     0.05615   0.47568   0.46335   0.00000  Uiso   1.00
C328   C     0.27671   0.52561   0.03701   0.00000  Uiso   1.00
C329   C     0.06994   0.48171   0.41546   0.00000  Uiso   1.00
C330   C     0.26305   0.51921   0.08480   0.00000  Uiso   1.00
C331   C     0.14753   0.51013   0.41026   0.00000  Uiso   1.00
C332   C     0.18551   0.49078   0.08985   0.00000  Uiso   1.00
C333   C     0.13723   0.49981   0.45674   0.00000  Uiso   1.00
C334   C     0.19561   0.50160   0.04357   0.00000  Uiso   1.00
C335   C     0.08960   0.48426   0.48434   0.00000  Uiso   1.00
C336   C     0.24322   0.51717   0.01603   0.00000  Uiso   1.00
C337   C     0.17319   0.50458   0.47607   0.00000  Uiso   1.00
C338   C     0.15958   0.49707   0.02432   0.00000  Uiso   1.00
H339   H     0.15257   0.47402   0.11067   0.00000  Uiso   1.00
H340   H     0.18053   0.52670   0.38926   0.00000  Uiso   1.00
H341   H     0.28782   0.52831   0.10116   0.00000  Uiso   1.00
H342   H     0.04513   0.47257   0.39916   0.00000  Uiso   1.00
H343   H     0.02004   0.46292   0.48346   0.00000  Uiso   1.00
H344   H     0.31273   0.53859   0.01698   0.00000  Uiso   1.00
H345   H     0.09590   0.48505   0.08972   0.00000  Uiso   1.00
H346   H     0.23693   0.51669   0.41071   0.00000  Uiso   1.00
H347   H     0.20398   0.62680   0.29625   0.00000  Uiso   1.00
H348   H     0.12900   0.37281   0.20336   0.00000  Uiso   1.00
H349   H     0.06400   0.45327   0.19757   0.00000  Uiso   1.00
H350   H     0.26933   0.54673   0.30242   0.00000  Uiso   1.00
N351   N     0.04759   0.50001   0.25001   0.00000  Uiso   1.00
N352   N     0.28574   0.49999   0.24999   0.00000  Uiso   1.00
O353   O     0.12846   0.56108   0.25001   0.00000  Uiso   1.00
O354   O     0.20488   0.43892   0.25000   0.00000  Uiso   1.00
O355   O     0.20490   0.56107   0.25000   0.00000  Uiso   1.00
O356   O     0.12843   0.43893   0.25000   0.00000  Uiso   1.00
O357   O     0.10661   0.50001   0.31613   0.00000  Uiso   1.00
O358   O     0.22672   0.49999   0.18388   0.00000  Uiso   1.00
O359   O     0.18305   0.50000   0.31612   0.00000  Uiso   1.00
O360   O     0.15028   0.50000   0.18388   0.00000  Uiso   1.00
Zn361  Zn    0.11562   0.50001   0.25000   0.00000  Uiso   1.00
Zn362  Zn    0.21771   0.49999   0.25000   0.00000  Uiso   1.00
O363   O     0.02795   0.46760   0.06047   0.00000  Uiso   1.00
C364   C     0.02620   0.42674   0.07842   0.00000  Uiso   1.00
H365   H     0.04485   0.42556   0.10333   0.00000  Uiso   1.00
H366   H     0.04401   0.40385   0.04955   0.00000  Uiso   1.00
C367   C     0.30563   0.41431   0.10462   0.00000  Uiso   1.00
H368   H     0.28721   0.43728   0.13295   0.00000  Uiso   1.00
H369   H     0.28652   0.41488   0.08014   0.00000  Uiso   1.00
C370   C     0.30097   0.37074   0.12609   0.00000  Uiso   1.00
H371   H     0.31687   0.34687   0.09818   0.00000  Uiso   1.00
H372   H     0.26150   0.36343   0.14622   0.00000  Uiso   1.00
H373   H     0.32040   0.36932   0.15025   0.00000  Uiso   1.00
O374   O     0.30490   0.53362   0.43997   0.00000  Uiso   1.00
C375   C     0.30699   0.57446   0.42194   0.00000  Uiso   1.00
H376   H     0.28938   0.59746   0.45075   0.00000  Uiso   1.00
H377   H     0.28838   0.57577   0.39701   0.00000  Uiso   1.00
C378   C     0.02767   0.58648   0.39576   0.00000  Uiso   1.00
H379   H     0.04653   0.58640   0.42046   0.00000  Uiso   1.00
H380   H     0.04607   0.56303   0.36797   0.00000  Uiso   1.00
C381   C     0.03269   0.62961   0.37330   0.00000  Uiso   1.00
H382   H     0.01414   0.63013   0.34842   0.00000  Uiso   1.00
H383   H     0.07228   0.63695   0.35381   0.00000  Uiso   1.00
H384   H     0.01599   0.65391   0.40055   0.00000  Uiso   1.00
O385   O     0.21254   0.37384   0.30125   0.00000  Uiso   1.00
C386   C     0.26385   0.37902   0.27549   0.00000  Uiso   1.00
H387   H     0.27436   0.40899   0.28703   0.00000  Uiso   1.00
H388   H     0.27431   0.38184   0.23695   0.00000  Uiso   1.00
C389   C     0.29352   0.34372   0.28564   0.00000  Uiso   1.00
H390   H     0.28207   0.34030   0.32406   0.00000  Uiso   1.00
H391   H     0.28659   0.64710   0.27132   0.00000  Uiso   1.00
C392   C     0.01534   0.35271   0.26316   0.00000  Uiso   1.00
H393   H     0.02745   0.35674   0.22475   0.00000  Uiso   1.00
H394   H     0.03606   0.65942   0.26964   0.00000  Uiso   1.00
H395   H     0.02410   0.38150   0.27831   0.00000  Uiso   1.00
O396   O     0.12619   0.62564   0.19377   0.00000  Uiso   1.00
C397   C     0.16330   0.61121   0.15144   0.00000  Uiso   1.00
H398   H     0.14890   0.58292   0.14042   0.00000  Uiso   1.00
H399   H     0.19791   0.60132   0.15510   0.00000  Uiso   1.00
C400   C     0.17468   0.64439   0.11303   0.00000  Uiso   1.00
H401   H     0.14005   0.65371   0.10940   0.00000  Uiso   1.00
H402   H     0.19053   0.33920   0.12271   0.00000  Uiso   1.00
C403   C     0.21127   0.62785   0.06615   0.00000  Uiso   1.00
H404   H     0.24635   0.61864   0.06890   0.00000  Uiso   1.00
H405   H     0.21917   0.65264   0.03914   0.00000  Uiso   1.00
H406   H     0.19568   0.60037   0.05498   0.00000  Uiso   1.00
H407   H     0.31325   0.45350   0.19738   0.00000  Uiso   1.00
H408   H     0.02025   0.54682   0.30229   0.00000  Uiso   1.00
C409   C     0.50014   0.57991   0.24948   0.00000  Uiso   1.00
C410   C     0.50004   0.41998   0.25045   0.00000  Uiso   1.00
C411   C     0.44340   0.48625   0.05210   0.00000  Uiso   1.00
C412   C     0.55603   0.51544   0.44832   0.00000  Uiso   1.00
C413   C     0.40948   0.47767   0.03224   0.00000  Uiso   1.00
C414   C     0.58997   0.52387   0.46819   0.00000  Uiso   1.00
C415   C     0.52279   0.64427   0.27455   0.00000  Uiso   1.00
C416   C     0.47941   0.35540   0.22302   0.00000  Uiso   1.00
C417   C     0.52520   0.35379   0.27388   0.00000  Uiso   1.00
C418   C     0.48079   0.64579   0.22057   0.00000  Uiso   1.00
C419   C     0.50131   0.37579   0.24955   0.00000  Uiso   1.00
C420   C     0.50091   0.62395   0.24812   0.00000  Uiso   1.00
C421   C     0.65495   0.47421   0.22069   0.00000  Uiso   1.00
C422   C     0.34515   0.52598   0.27910   0.00000  Uiso   1.00
C423   C     0.36949   0.47409   0.22083   0.00000  Uiso   1.00
C424   C     0.63053   0.52595   0.27913   0.00000  Uiso   1.00
C425   C     0.46908   0.50017   0.33809   0.00000  Uiso   1.00
C426   C     0.53090   0.49989   0.16194   0.00000  Uiso   1.00
C427   C     0.44943   0.49855   0.38891   0.00000  Uiso   1.00
C428   C     0.55041   0.50200   0.11119   0.00000  Uiso   1.00
C429   C     0.38948   0.47568   0.46335   0.00000  Uiso   1.00
C430   C     0.61005   0.52561   0.03701   0.00000  Uiso   1.00
C431   C     0.40327   0.48171   0.41546   0.00000  Uiso   1.00
C432   C     0.59638   0.51921   0.08480   0.00000  Uiso   1.00
C433   C     0.48086   0.51013   0.41026   0.00000  Uiso   1.00
C434   C     0.51885   0.49078   0.08985   0.00000  Uiso   1.00
C435   C     0.47057   0.49981   0.45674   0.00000  Uiso   1.00
C436   C     0.52894   0.50160   0.04357   0.00000  Uiso   1.00
C437   C     0.42293   0.48426   0.48434   0.00000  Uiso   1.00
C438   C     0.57656   0.51717   0.01603   0.00000  Uiso   1.00
C439   C     0.50652   0.50458   0.47607   0.00000  Uiso   1.00
C440   C     0.49291   0.49707   0.02432   0.00000  Uiso   1.00
H441   H     0.48591   0.47402   0.11067   0.00000  Uiso   1.00
H442   H     0.51387   0.52670   0.38926   0.00000  Uiso   1.00
H443   H     0.62115   0.52831   0.10116   0.00000  Uiso   1.00
H444   H     0.37847   0.47257   0.39916   0.00000  Uiso   1.00
H445   H     0.35338   0.46292   0.48346   0.00000  Uiso   1.00
H446   H     0.64606   0.53859   0.01698   0.00000  Uiso   1.00
H447   H     0.42923   0.48505   0.08972   0.00000  Uiso   1.00
H448   H     0.57026   0.51669   0.41071   0.00000  Uiso   1.00
H449   H     0.53731   0.62680   0.29625   0.00000  Uiso   1.00
H450   H     0.46234   0.37281   0.20336   0.00000  Uiso   1.00
H451   H     0.39733   0.45327   0.19757   0.00000  Uiso   1.00
H452   H     0.60267   0.54673   0.30242   0.00000  Uiso   1.00
N453   N     0.38093   0.50001   0.25001   0.00000  Uiso   1.00
N454   N     0.61907   0.49999   0.24999   0.00000  Uiso   1.00
O455   O     0.46179   0.56108   0.25001   0.00000  Uiso   1.00
O456   O     0.53821   0.43892   0.25000   0.00000  Uiso   1.00
O457   O     0.53823   0.56107   0.25000   0.00000  Uiso   1.00
O458   O     0.46177   0.43893   0.25000   0.00000  Uiso   1.00
O459   O     0.43994   0.50001   0.31613   0.00000  Uiso   1.00
O460   O     0.56006   0.49999   0.18388   0.00000  Uiso   1.00
O461   O     0.51639   0.50000   0.31612   0.00000  Uiso   1.00
O462   O     0.48361   0.50000   0.18388   0.00000  Uiso   1.00
Zn463  Zn    0.44896   0.50001   0.25000   0.00000  Uiso   1.00
Zn464  Zn    0.55104   0.49999   0.25000   0.00000  Uiso   1.00
O465   O     0.36128   0.46760   0.06047   0.00000  Uiso   1.00
C466   C     0.35953   0.42674   0.07842   0.00000  Uiso   1.00
H467   H     0.37818   0.42556   0.10333   0.00000  Uiso   1.00
H468   H     0.37734   0.40385   0.04955   0.00000  Uiso   1.00
C469   C     0.63896   0.41431   0.10462   0.00000  Uiso   1.00
H470   H     0.62054   0.43728   0.13295   0.00000  Uiso   1.00
H471   H     0.61985   0.41488   0.08014   0.00000  Uiso   1.00
C472   C     0.63431   0.37074   0.12609   0.00000  Uiso   1.00
H473   H     0.65020   0.34687   0.09818   0.00000  Uiso   1.00
H474   H     0.59483   0.36343   0.14622   0.00000  Uiso   1.00
H475   H     0.65373   0.36932   0.15025   0.00000  Uiso   1.00
O476   O     0.63824   0.53362   0.43997   0.00000  Uiso   1.00
C477   C     0.64033   0.57446   0.42194   0.00000  Uiso   1.00
H478   H     0.62271   0.59746   0.45075   0.00000  Uiso   1.00
H479   H     0.62171   0.57577   0.39701   0.00000  Uiso   1.00
C480   C     0.36100   0.58648   0.39576   0.00000  Uiso   1.00
H481   H     0.37987   0.58640   0.42046   0.00000  Uiso   1.00
H482   H     0.37941   0.56303   0.36797   0.00000  Uiso   1.00
C483   C     0.36602   0.62961   0.37330   0.00000  Uiso   1.00
H484   H     0.34747   0.63013   0.34842   0.00000  Uiso   1.00
H485   H     0.40561   0.63695   0.35381   0.00000  Uiso   1.00
H486   H     0.34932   0.65391   0.40055   0.00000  Uiso   1.00
O487   O     0.54587   0.37384   0.30125   0.00000  Uiso   1.00
C488   C     0.59719   0.37902   0.27549   0.00000  Uiso   1.00
H489   H     0.60769   0.40899   0.28703   0.00000  Uiso   1.00
H490   H     0.60764   0.38184   0.23695   0.00000  Uiso   1.00
C491   C     0.62685   0.34372   0.28564   0.00000  Uiso   1.00
H492   H     0.61540   0.34030   0.32406   0.00000  Uiso   1.00
H493   H     0.61992   0.64710   0.27132   0.00000  Uiso   1.00
C494   C     0.34867   0.35271   0.26316   0.00000  Uiso   1.00
H495   H     0.36078   0.35674   0.22475   0.00000  Uiso   1.00
H496   H     0.36939   0.65942   0.26964   0.00000  Uiso   1.00
H497   H     0.35743   0.38150   0.27831   0.00000  Uiso   1.00
O498   O     0.45952   0.62564   0.19377   0.00000  Uiso   1.00
C499   C     0.49663   0.61121   0.15144   0.00000  Uiso   1.00
H500   H     0.48224   0.58292   0.14042   0.00000  Uiso   1.00
H501   H     0.53125   0.60132   0.15510   0.00000  Uiso   1.00
C502   C     0.50801   0.64439   0.11303   0.00000  Uiso   1.00
H503   H     0.47338   0.65371   0.10940   0.00000  Uiso   1.00
H504   H     0.52387   0.33920   0.12271   0.00000  Uiso   1.00
C505   C     0.54460   0.62785   0.06615   0.00000  Uiso   1.00
H506   H     0.57968   0.61864   0.06890   0.00000  Uiso   1.00
H507   H     0.55250   0.65264   0.03914   0.00000  Uiso   1.00
H508   H     0.52902   0.60037   0.05498   0.00000  Uiso   1.00
H509   H     0.64658   0.45350   0.19738   0.00000  Uiso   1.00
H510   H     0.35359   0.54682   0.30229   0.00000  Uiso   1.00
C511   C     0.83347   0.57991   0.24948   0.00000  Uiso   1.00
C512   C     0.83338   0.41998   0.25045   0.00000  Uiso   1.00
C513   C     0.77673   0.48625   0.05210   0.00000  Uiso   1.00
C514   C     0.88937   0.51544   0.44832   0.00000  Uiso   1.00
C515   C     0.74282   0.47767   0.03224   0.00000  Uiso   1.00
C516   C     0.92330   0.52387   0.46819   0.00000  Uiso   1.00
C517   C     0.85612   0.64427   0.27455   0.00000  Uiso   1.00
C518   C     0.81275   0.35540   0.22302   0.00000  Uiso   1.00
C519   C     0.85853   0.35379   0.27388   0.00000  Uiso   1.00
C520   C     0.81412   0.64579   0.22057   0.00000  Uiso   1.00
C521   C     0.83464   0.37579   0.24955   0.00000  Uiso   1.00
C522   C     0.83425   0.62395   0.24812   0.00000  Uiso   1.00
C523   C     0.98829   0.47421   0.22069   0.00000  Uiso   1.00
C524   C     0.67848   0.52598   0.27910   0.00000  Uiso   1.00
C525   C     0.70283   0.47409   0.22083   0.00000  Uiso   1.00
C526   C     0.96386   0.52595   0.27913   0.00000  Uiso   1.00
C527   C     0.80241   0.50017   0.33809   0.00000  Uiso   1.00
C528   C     0.86423   0.49989   0.16194   0.00000  Uiso   1.00
C529   C     0.78277   0.49855   0.38891   0.00000  Uiso   1.00
C530   C     0.88374   0.50200   0.11119   0.00000  Uiso   1.00
C531   C     0.72282   0.47568   0.46335   0.00000  Uiso   1.00
C532   C     0.94338   0.52561   0.03701   0.00000  Uiso   1.00
C533   C     0.73661   0.48171   0.41546   0.00000  Uiso   1.00
C534   C     0.92972   0.51921   0.08480   0.00000  Uiso   1.00
C535   C     0.81420   0.51013   0.41026   0.00000  Uiso   1.00
C536   C     0.85218   0.49078   0.08985   0.00000  Uiso   1.00
C537   C     0.80390   0.49981   0.45674   0.00000  Uiso   1.00
C538   C     0.86228   0.50160   0.04357   0.00000  Uiso   1.00
C539   C     0.75626   0.48426   0.48434   0.00000  Uiso   1.00
C540   C     0.90989   0.51717   0.01603   0.00000  Uiso   1.00
C541   C     0.83986   0.50458   0.47607   0.00000  Uiso   1.00
C542   C     0.82625   0.49707   0.02432   0.00000  Uiso   1.00
H543   H     0.81924   0.47402   0.11067   0.00000  Uiso   1.00
H544   H     0.84720   0.52670   0.38926   0.00000  Uiso   1.00
H545   H     0.95449   0.52831   0.10116   0.00000  Uiso   1.00
H546   H     0.71180   0.47257   0.39916   0.00000  Uiso   1.00
H547   H     0.68671   0.46292   0.48346   0.00000  Uiso   1.00
H548   H     0.97939   0.53859   0.01698   0.00000  Uiso   1.00
H549   H     0.76257   0.48505   0.08972   0.00000  Uiso   1.00
H550   H     0.90359   0.51669   0.41071   0.00000  Uiso   1.00
H551   H     0.87065   0.62680   0.29625   0.00000  Uiso   1.00
H552   H     0.79567   0.37281   0.20336   0.00000  Uiso   1.00
H553   H     0.73067   0.45327   0.19757   0.00000  Uiso   1.00
H554   H     0.93600   0.54673   0.30242   0.00000  Uiso   1.00
N555   N     0.71426   0.50001   0.25001   0.00000  Uiso   1.00
N556   N     0.95241   0.49999   0.24999   0.00000  Uiso   1.00
O557   O     0.79512   0.56108   0.25001   0.00000  Uiso   1.00
O558   O     0.87154   0.43892   0.25000   0.00000  Uiso   1.00
O559   O     0.87157   0.56107   0.25000   0.00000  Uiso   1.00
O560   O     0.79510   0.43893   0.25000   0.00000  Uiso   1.00
O561   O     0.77328   0.50001   0.31613   0.00000  Uiso   1.00
O562   O     0.89339   0.49999   0.18388   0.00000  Uiso   1.00
O563   O     0.84972   0.50000   0.31612   0.00000  Uiso   1.00
O564   O     0.81695   0.50000   0.18388   0.00000  Uiso   1.00
Zn565  Zn    0.78229   0.50001   0.25000   0.00000  Uiso   1.00
Zn566  Zn    0.88438   0.49999   0.25000   0.00000  Uiso   1.00
O567   O     0.69462   0.46760   0.06047   0.00000  Uiso   1.00
C568   C     0.69286   0.42674   0.07842   0.00000  Uiso   1.00
H569   H     0.71152   0.42556   0.10333   0.00000  Uiso   1.00
H570   H     0.71067   0.40385   0.04955   0.00000  Uiso   1.00
C571   C     0.97229   0.41431   0.10462   0.00000  Uiso   1.00
H572   H     0.95388   0.43728   0.13295   0.00000  Uiso   1.00
H573   H     0.95318   0.41488   0.08014   0.00000  Uiso   1.00
C574   C     0.96764   0.37074   0.12609   0.00000  Uiso   1.00
H575   H     0.98354   0.34687   0.09818   0.00000  Uiso   1.00
H576   H     0.92816   0.36343   0.14622   0.00000  Uiso   1.00
H577   H     0.98707   0.36932   0.15025   0.00000  Uiso   1.00
O578   O     0.97157   0.53362   0.43997   0.00000  Uiso   1.00
C579   C     0.97366   0.57446   0.42194   0.00000  Uiso   1.00
H580   H     0.95604   0.59746   0.45075   0.00000  Uiso   1.00
H581   H     0.95504   0.57577   0.39701   0.00000  Uiso   1.00
C582   C     0.69434   0.58648   0.39576   0.00000  Uiso   1.00
H583   H     0.71320   0.58640   0.42046   0.00000  Uiso   1.00
H584   H     0.71274   0.56303   0.36797   0.00000  Uiso   1.00
C585   C     0.69936   0.62961   0.37330   0.00000  Uiso   1.00
H586   H     0.68080   0.63013   0.34842   0.00000  Uiso   1.00
H587   H     0.73894   0.63695   0.35381   0.00000  Uiso   1.00
H588   H     0.68266   0.65391   0.40055   0.00000  Uiso   1.00
O589   O     0.87920   0.37384   0.30125   0.00000  Uiso   1.00
C590   C     0.93052   0.37902   0.27549   0.00000  Uiso   1.00
H591   H     0.94103   0.40899   0.28703   0.00000  Uiso   1.00
H592   H     0.94098   0.38184   0.23695   0.00000  Uiso   1.00
C593   C     0.96018   0.34372   0.28564   0.00000  Uiso   1.00
H594   H     0.94874   0.34030   0.32406   0.00000  Uiso   1.00
H595   H     0.95325   0.64710   0.27132   0.00000  Uiso   1.00
C596   C     0.68200   0.35271   0.26316   0.00000  Uiso   1.00
H597   H     0.69412   0.35674   0.22475   0.00000  Uiso   1.00
H598   H     0.70272   0.65942   0.26964   0.00000  Uiso   1.00
H599   H     0.69076   0.38150   0.27831   0.00000  Uiso   1.00
O600   O     0.79286   0.62564   0.19377   0.00000  Uiso   1.00
C601   C     0.82997   0.61121   0.15144   0.00000  Uiso   1.00
H602   H     0.81557   0.58292   0.14042   0.00000  Uiso   1.00
H603   H     0.86458   0.60132   0.15510   0.00000  Uiso   1.00
C604   C     0.84135   0.64439   0.11303   0.00000  Uiso   1.00
H605   H     0.80672   0.65371   0.10940   0.00000  Uiso   1.00
H606   H     0.85720   0.33920   0.12271   0.00000  Uiso   1.00
C607   C     0.87793   0.62785   0.06615   0.00000  Uiso   1.00
H608   H     0.91301   0.61864   0.06890   0.00000  Uiso   1.00
H609   H     0.88584   0.65264   0.03914   0.00000  Uiso   1.00
H610   H     0.86235   0.60037   0.05498   0.00000  Uiso   1.00
H611   H     0.97992   0.45350   0.19738   0.00000  Uiso   1.00
H612   H     0.68692   0.54682   0.30229   0.00000  Uiso   1.00
C613   C     0.16681   0.91325   0.24948   0.00000  Uiso   1.00
C614   C     0.16671   0.75332   0.25045   0.00000  Uiso   1.00
C615   C     0.11007   0.81958   0.05210   0.00000  Uiso   1.00
C616   C     0.22270   0.84877   0.44832   0.00000  Uiso   1.00
C617   C     0.07615   0.81100   0.03224   0.00000  Uiso   1.00
C618   C     0.25664   0.85720   0.46819   0.00000  Uiso   1.00
C619   C     0.18945   0.97760   0.27455   0.00000  Uiso   1.00
C620   C     0.14608   0.68874   0.22302   0.00000  Uiso   1.00
C621   C     0.19187   0.68713   0.27388   0.00000  Uiso   1.00
C622   C     0.14745   0.97912   0.22057   0.00000  Uiso   1.00
C623   C     0.16798   0.70912   0.24955   0.00000  Uiso   1.00
C624   C     0.16758   0.95728   0.24812   0.00000  Uiso   1.00
C625   C     0.32162   0.80755   0.22069   0.00000  Uiso   1.00
C626   C     0.01181   0.85932   0.27910   0.00000  Uiso   1.00
C627   C     0.03616   0.80742   0.22083   0.00000  Uiso   1.00
C628   C     0.29719   0.85928   0.27913   0.00000  Uiso   1.00
C629   C     0.13574   0.83351   0.33809   0.00000  Uiso   1.00
C630   C     0.19757   0.83323   0.16194   0.00000  Uiso   1.00
C631   C     0.11610   0.83188   0.38891   0.00000  Uiso   1.00
C632   C     0.21707   0.83534   0.11119   0.00000  Uiso   1.00
C633   C     0.05615   0.80902   0.46335   0.00000  Uiso   1.00
C634   C     0.27671   0.85895   0.03701   0.00000  Uiso   1.00
C635   C     0.06994   0.81504   0.41546   0.00000  Uiso   1.00
C636   C     0.26305   0.85255   0.08480   0.00000  Uiso   1.00
C637   C     0.14753   0.84346   0.41026   0.00000  Uiso   1.00
C638   C     0.18551   0.82411   0.08985   0.00000  Uiso   1.00
C639   C     0.13723   0.83314   0.45674   0.00000  Uiso   1.00
C640   C     0.19561   0.83493   0.04357   0.00000  Uiso   1.00
C641   C     0.08960   0.81759   0.48434   0.00000  Uiso   1.00
C642   C     0.24322   0.85050   0.01603   0.00000  Uiso   1.00
C643   C     0.17319   0.83791   0.47607   0.00000  Uiso   1.00
C644   C     0.15958   0.83040   0.02432   0.00000  Uiso   1.00
H645   H     0.15257   0.80736   0.11067   0.00000  Uiso   1.00
H646   H     0.18053   0.86004   0.38926   0.00000  Uiso   1.00
H647   H     0.28782   0.86164   0.10116   0.00000  Uiso   1.00
H648   H     0.04513   0.80590   0.39916   0.00000  Uiso   1.00
H649   H     0.02004   0.79625   0.48346   0.00000  Uiso   1.00
H650   H     0.31273   0.87192   0.01698   0.00000  Uiso   1.00
H651   H     0.09590   0.81839   0.08972   0.00000  Uiso   1.00
H652   H     0.23693   0.85002   0.41071   0.00000  Uiso   1.00
H653   H     0.20398   0.96014   0.29625   0.00000  Uiso   1.00
H654   H     0.12900   0.70615   0.20336   0.00000  Uiso   1.00
H655   H     0.06400   0.78661   0.19757   0.00000  Uiso   1.00
H656   H     0.26933   0.88007   0.30242   0.00000  Uiso   1.00
N657   N     0.04759   0.83334   0.25001   0.00000  Uiso   1.00
N658   N     0.28574   0.83332   0.24999   0.00000  Uiso   1.00
O659   O     0.12846   0.89442   0.25001   0.00000  Uiso   1.00
O660   O     0.20488   0.77225   0.25000   0.00000  Uiso   1.00
O661   O     0.20490   0.89441   0.25000   0.00000  Uiso   1.00
O662   O     0.12843   0.77226   0.25000   0.00000  Uiso   1.00
O663   O     0.10661   0.83334   0.31613   0.00000  Uiso   1.00
O664   O     0.22672   0.83333   0.18388   0.00000  Uiso   1.00
O665   O     0.18305   0.83333   0.31612   0.00000  Uiso   1.00
O666   O     0.15028   0.83334   0.18388   0.00000  Uiso   1.00
Zn667  Zn    0.11562   0.83334   0.25000   0.00000  Uiso   1.00
Zn668  Zn    0.21771   0.83333   0.25000   0.00000  Uiso   1.00
O669   O     0.02795   0.80093   0.06047   0.00000  Uiso   1.00
C670   C     0.02620   0.76007   0.07842   0.00000  Uiso   1.00
H671   H     0.04485   0.75889   0.10333   0.00000  Uiso   1.00
H672   H     0.04401   0.73718   0.04955   0.00000  Uiso   1.00
C673   C     0.30563   0.74764   0.10462   0.00000  Uiso   1.00
H674   H     0.28721   0.77061   0.13295   0.00000  Uiso   1.00
H675   H     0.28652   0.74822   0.08014   0.00000  Uiso   1.00
C676   C     0.30097   0.70407   0.12609   0.00000  Uiso   1.00
H677   H     0.31687   0.68020   0.09818   0.00000  Uiso   1.00
H678   H     0.26150   0.69677   0.14622   0.00000  Uiso   1.00
H679   H     0.32040   0.70266   0.15025   0.00000  Uiso   1.00
O680   O     0.30490   0.86696   0.43997   0.00000  Uiso   1.00
C681   C     0.30699   0.90780   0.42194   0.00000  Uiso   1.00
H682   H     0.28938   0.93080   0.45075   0.00000  Uiso   1.00
H683   H     0.28838   0.90910   0.39701   0.00000  Uiso   1.00
C684   C     0.02767   0.91981   0.39576   0.00000  Uiso   1.00
H685   H     0.04653   0.91973   0.42046   0.00000  Uiso   1.00
H686   H     0.04607   0.89636   0.36797   0.00000  Uiso   1.00
C687   C     0.03269   0.96294   0.37330   0.00000  Uiso   1.00
H688   H     0.01414   0.96346   0.34842   0.00000  Uiso   1.00
H689   H     0.07228   0.97029   0.35381   0.00000  Uiso   1.00
H690   H     0.01599   0.98724   0.40055   0.00000  Uiso   1.00
O691   O     0.21254   0.70717   0.30125   0.00000  Uiso   1.00
C692   C     0.26385   0.71236   0.27549   0.00000  Uiso   1.00
H693   H     0.27436   0.74233   0.28703   0.00000  Uiso   1.00
H694   H     0.27431   0.71517   0.23695   0.00000  Uiso   1.00
C695   C     0.29352   0.67706   0.28564   0.00000  Uiso   1.00
H696   H     0.28207   0.67364   0.32406   0.00000  Uiso   1.00
H697   H     0.28659   0.98043   0.27132   0.00000  Uiso   1.00
C698   C     0.01534   0.68604   0.26316   0.00000  Uiso   1.00
H699   H     0.02745   0.69008   0.22475   0.00000  Uiso   1.00
H700   H     0.03606   0.99275   0.26964   0.00000  Uiso   1.00
H701   H     0.02410   0.71484   0.27831   0.00000  Uiso   1.00
O702   O     0.12619   0.95897   0.19377   0.00000  Uiso   1.00
C703   C     0.16330   0.94455   0.15144   0.00000  Uiso   1.00
H704   H     0.14890   0.91625   0.14042   0.00000  Uiso   1.00
H705   H     0.19791   0.93466   0.15510   0.00000  Uiso   1.00
C706   C     0.17468   0.97772   0.11303   0.00000  Uiso   1.00
H707   H     0.14005   0.98704   0.10940   0.00000  Uiso   1.00
H708   H     0.19053   0.67253   0.12271   0.00000  Uiso   1.00
C709   C     0.21127   0.96118   0.06615   0.00000  Uiso   1.00
H710   H     0.24635   0.95198   0.06890   0.00000  Uiso   1.00
H711   H     0.21917   0.98597   0.03914   0.00000  Uiso   1.00
H712   H     0.19568   0.93370   0.05498   0.00000  Uiso   1.00
H713   H     0.31325   0.78683   0.19738   0.00000  Uiso   1.00
H714   H     0.02025   0.88015   0.30229   0.00000  Uiso   1.00
C715   C     0.50014   0.91325   0.24948   0.00000  Uiso   1.00
C716   C     0.50004   0.75332   0.25045   0.00000  Uiso   1.00
C717   C     0.44340   0.81958   0.05210   0.00000  Uiso   1.00
C718   C     0.55603   0.84877   0.44832   0.00000  Uiso   1.00
C719   C     0.40948   0.81100   0.03224   0.00000  Uiso   1.00
C720   C     0.58997   0.85720   0.46819   0.00000  Uiso   1.00
C721   C     0.52279   0.97760   0.27455   0.00000  Uiso   1.00
C722   C     0.47941   0.68874   0.22302   0.00000  Uiso   1.00
C723   C     0.52520   0.68713   0.27388   0.00000  Uiso   1.00
C724   C     0.48079   0.97912   0.22057   0.00000  Uiso   1.00
C725   C     0.50131   0.70912   0.24955   0.00000  Uiso   1.00
C726   C     0.50091   0.95728   0.24812   0.00000  Uiso   1.00
C727   C     0.65495   0.80755   0.22069   0.00000  Uiso   1.00
C728   C     0.34515   0.85932   0.27910   0.00000  Uiso   1.00
C729   C     0.36949   0.80742   0.22083   0.00000  Uiso   1.00
C730   C     0.63053   0.85928   0.27913   0.00000  Uiso   1.00
C731   C     0.46908   0.83351   0.33809   0.00000  Uiso   1.00
C732   C     0.53090   0.83323   0.16194   0.00000  Uiso   1.00
C733   C     0.44943   0.83188   0.38891   0.00000  Uiso   1.00
C734   C     0.55041   0.83534   0.11119   0.00000  Uiso   1.00
C735   C     0.38948   0.80902   0.46335   0.00000  Uiso   1.00
C736   C     0.61005   0.85895   0.03701   0.00000  Uiso   1.00
C737   C     0.40327   0.81504   0.41546   0.00000  Uiso   1.00
C738   C     0.59638   0.85255   0.08480   0.00000  Uiso   1.00
C739   C     0.48086   0.84346   0.41026   0.00000  Uiso   1.00
C740   C     0.51885   0.82411   0.08985   0.00000  Uiso   1.00
C741   C     0.47057   0.83314   0.45674   0.00000  Uiso   1.00
C742   C     0.52894   0.83493   0.04357   0.00000  Uiso   1.00
C743   C     0.42293   0.81759   0.48434   0.00000  Uiso   1.00
C744   C     0.57656   0.85050   0.01603   0.00000  Uiso   1.00
C745   C     0.50652   0.83791   0.47607   0.00000  Uiso   1.00
C746   C     0.49291   0.83040   0.02432   0.00000  Uiso   1.00
H747   H     0.48591   0.80736   0.11067   0.00000  Uiso   1.00
H748   H     0.51387   0.86004   0.38926   0.00000  Uiso   1.00
H749   H     0.62115   0.86164   0.10116   0.00000  Uiso   1.00
H750   H     0.37847   0.80590   0.39916   0.00000  Uiso   1.00
H751   H     0.35338   0.79625   0.48346   0.00000  Uiso   1.00
H752   H     0.64606   0.87192   0.01698   0.00000  Uiso   1.00
H753   H     0.42923   0.81839   0.08972   0.00000  Uiso   1.00
H754   H     0.57026   0.85002   0.41071   0.00000  Uiso   1.00
H755   H     0.53731   0.96014   0.29625   0.00000  Uiso   1.00
H756   H     0.46234   0.70615   0.20336   0.00000  Uiso   1.00
H757   H     0.39733   0.78661   0.19757   0.00000  Uiso   1.00
H758   H     0.60267   0.88007   0.30242   0.00000  Uiso   1.00
N759   N     0.38093   0.83334   0.25001   0.00000  Uiso   1.00
N760   N     0.61907   0.83332   0.24999   0.00000  Uiso   1.00
O761   O     0.46179   0.89442   0.25001   0.00000  Uiso   1.00
O762   O     0.53821   0.77225   0.25000   0.00000  Uiso   1.00
O763   O     0.53823   0.89441   0.25000   0.00000  Uiso   1.00
O764   O     0.46177   0.77226   0.25000   0.00000  Uiso   1.00
O765   O     0.43994   0.83334   0.31613   0.00000  Uiso   1.00
O766   O     0.56006   0.83333   0.18388   0.00000  Uiso   1.00
O767   O     0.51639   0.83333   0.31612   0.00000  Uiso   1.00
O768   O     0.48361   0.83334   0.18388   0.00000  Uiso   1.00
Zn769  Zn    0.44896   0.83334   0.25000   0.00000  Uiso   1.00
Zn770  Zn    0.55104   0.83333   0.25000   0.00000  Uiso   1.00
O771   O     0.36128   0.80093   0.06047   0.00000  Uiso   1.00
C772   C     0.35953   0.76007   0.07842   0.00000  Uiso   1.00
H773   H     0.37818   0.75889   0.10333   0.00000  Uiso   1.00
H774   H     0.37734   0.73718   0.04955   0.00000  Uiso   1.00
C775   C     0.63896   0.74764   0.10462   0.00000  Uiso   1.00
H776   H     0.62054   0.77061   0.13295   0.00000  Uiso   1.00
H777   H     0.61985   0.74822   0.08014   0.00000  Uiso   1.00
C778   C     0.63431   0.70407   0.12609   0.00000  Uiso   1.00
H779   H     0.65020   0.68020   0.09818   0.00000  Uiso   1.00
H780   H     0.59483   0.69677   0.14622   0.00000  Uiso   1.00
H781   H     0.65373   0.70266   0.15025   0.00000  Uiso   1.00
O782   O     0.63824   0.86696   0.43997   0.00000  Uiso   1.00
C783   C     0.64033   0.90780   0.42194   0.00000  Uiso   1.00
H784   H     0.62271   0.93080   0.45075   0.00000  Uiso   1.00
H785   H     0.62171   0.90910   0.39701   0.00000  Uiso   1.00
C786   C     0.36100   0.91981   0.39576   0.00000  Uiso   1.00
H787   H     0.37987   0.91973   0.42046   0.00000  Uiso   1.00
H788   H     0.37941   0.89636   0.36797   0.00000  Uiso   1.00
C789   C     0.36602   0.96294   0.37330   0.00000  Uiso   1.00
H790   H     0.34747   0.96346   0.34842   0.00000  Uiso   1.00
H791   H     0.40561   0.97029   0.35381   0.00000  Uiso   1.00
H792   H     0.34932   0.98724   0.40055   0.00000  Uiso   1.00
O793   O     0.54587   0.70717   0.30125   0.00000  Uiso   1.00
C794   C     0.59719   0.71236   0.27549   0.00000  Uiso   1.00
H795   H     0.60769   0.74233   0.28703   0.00000  Uiso   1.00
H796   H     0.60764   0.71517   0.23695   0.00000  Uiso   1.00
C797   C     0.62685   0.67706   0.28564   0.00000  Uiso   1.00
H798   H     0.61540   0.67364   0.32406   0.00000  Uiso   1.00
H799   H     0.61992   0.98043   0.27132   0.00000  Uiso   1.00
C800   C     0.34867   0.68604   0.26316   0.00000  Uiso   1.00
H801   H     0.36078   0.69008   0.22475   0.00000  Uiso   1.00
H802   H     0.36939   0.99275   0.26964   0.00000  Uiso   1.00
H803   H     0.35743   0.71484   0.27831   0.00000  Uiso   1.00
O804   O     0.45952   0.95897   0.19377   0.00000  Uiso   1.00
C805   C     0.49663   0.94455   0.15144   0.00000  Uiso   1.00
H806   H     0.48224   0.91625   0.14042   0.00000  Uiso   1.00
H807   H     0.53125   0.93466   0.15510   0.00000  Uiso   1.00
C808   C     0.50801   0.97772   0.11303   0.00000  Uiso   1.00
H809   H     0.47338   0.98704   0.10940   0.00000  Uiso   1.00
H810   H     0.52387   0.67253   0.12271   0.00000  Uiso   1.00
C811   C     0.54460   0.96118   0.06615   0.00000  Uiso   1.00
H812   H     0.57968   0.95198   0.06890   0.00000  Uiso   1.00
H813   H     0.55250   0.98597   0.03914   0.00000  Uiso   1.00
H814   H     0.52902   0.93370   0.05498   0.00000  Uiso   1.00
H815   H     0.64658   0.78683   0.19738   0.00000  Uiso   1.00
H816   H     0.35359   0.88015   0.30229   0.00000  Uiso   1.00
C817   C     0.83347   0.91325   0.24948   0.00000  Uiso   1.00
C818   C     0.83338   0.75332   0.25045   0.00000  Uiso   1.00
C819   C     0.77673   0.81958   0.05210   0.00000  Uiso   1.00
C820   C     0.88937   0.84877   0.44832   0.00000  Uiso   1.00
C821   C     0.74282   0.81100   0.03224   0.00000  Uiso   1.00
C822   C     0.92330   0.85720   0.46819   0.00000  Uiso   1.00
C823   C     0.85612   0.97760   0.27455   0.00000  Uiso   1.00
C824   C     0.81275   0.68874   0.22302   0.00000  Uiso   1.00
C825   C     0.85853   0.68713   0.27388   0.00000  Uiso   1.00
C826   C     0.81412   0.97912   0.22057   0.00000  Uiso   1.00
C827   C     0.83464   0.70912   0.24955   0.00000  Uiso   1.00
C828   C     0.83425   0.95728   0.24812   0.00000  Uiso   1.00
C829   C     0.98829   0.80755   0.22069   0.00000  Uiso   1.00
C830   C     0.67848   0.85932   0.27910   0.00000  Uiso   1.00
C831   C     0.70283   0.80742   0.22083   0.00000  Uiso   1.00
C832   C     0.96386   0.85928   0.27913   0.00000  Uiso   1.00
C833   C     0.80241   0.83351   0.33809   0.00000  Uiso   1.00
C834   C     0.86423   0.83323   0.16194   0.00000  Uiso   1.00
C835   C     0.78277   0.83188   0.38891   0.00000  Uiso   1.00
C836   C     0.88374   0.83534   0.11119   0.00000  Uiso   1.00
C837   C     0.72282   0.80902   0.46335   0.00000  Uiso   1.00
C838   C     0.94338   0.85895   0.03701   0.00000  Uiso   1.00
C839   C     0.73661   0.81504   0.41546   0.00000  Uiso   1.00
C840   C     0.92972   0.85255   0.08480   0.00000  Uiso   1.00
C841   C     0.81420   0.84346   0.41026   0.00000  Uiso   1.00
C842   C     0.85218   0.82411   0.08985   0.00000  Uiso   1.00
C843   C     0.80390   0.83314   0.45674   0.00000  Uiso   1.00
C844   C     0.86228   0.83493   0.04357   0.00000  Uiso   1.00
C845   C     0.75626   0.81759   0.48434   0.00000  Uiso   1.00
C846   C     0.90989   0.85050   0.01603   0.00000  Uiso   1.00
C847   C     0.83986   0.83791   0.47607   0.00000  Uiso   1.00
C848   C     0.82625   0.83040   0.02432   0.00000  Uiso   1.00
H849   H     0.81924   0.80736   0.11067   0.00000  Uiso   1.00
H850   H     0.84720   0.86004   0.38926   0.00000  Uiso   1.00
H851   H     0.95449   0.86164   0.10116   0.00000  Uiso   1.00
H852   H     0.71180   0.80590   0.39916   0.00000  Uiso   1.00
H853   H     0.68671   0.79625   0.48346   0.00000  Uiso   1.00
H854   H     0.97939   0.87192   0.01698   0.00000  Uiso   1.00
H855   H     0.76257   0.81839   0.08972   0.00000  Uiso   1.00
H856   H     0.90359   0.85002   0.41071   0.00000  Uiso   1.00
H857   H     0.87065   0.96014   0.29625   0.00000  Uiso   1.00
H858   H     0.79567   0.70615   0.20336   0.00000  Uiso   1.00
H859   H     0.73067   0.78661   0.19757   0.00000  Uiso   1.00
H860   H     0.93600   0.88007   0.30242   0.00000  Uiso   1.00
N861   N     0.71426   0.83334   0.25001   0.00000  Uiso   1.00
N862   N     0.95241   0.83332   0.24999   0.00000  Uiso   1.00
O863   O     0.79512   0.89442   0.25001   0.00000  Uiso   1.00
O864   O     0.87154   0.77225   0.25000   0.00000  Uiso   1.00
O865   O     0.87157   0.89441   0.25000   0.00000  Uiso   1.00
O866   O     0.79510   0.77226   0.25000   0.00000  Uiso   1.00
O867   O     0.77328   0.83334   0.31613   0.00000  Uiso   1.00
O868   O     0.89339   0.83333   0.18388   0.00000  Uiso   1.00
O869   O     0.84972   0.83333   0.31612   0.00000  Uiso   1.00
O870   O     0.81695   0.83334   0.18388   0.00000  Uiso   1.00
Zn871  Zn    0.78229   0.83334   0.25000   0.00000  Uiso   1.00
Zn872  Zn    0.88438   0.83333   0.25000   0.00000  Uiso   1.00
O873   O     0.69462   0.80093   0.06047   0.00000  Uiso   1.00
C874   C     0.69286   0.76007   0.07842   0.00000  Uiso   1.00
H875   H     0.71152   0.75889   0.10333   0.00000  Uiso   1.00
H876   H     0.71067   0.73718   0.04955   0.00000  Uiso   1.00
C877   C     0.97229   0.74764   0.10462   0.00000  Uiso   1.00
H878   H     0.95388   0.77061   0.13295   0.00000  Uiso   1.00
H879   H     0.95318   0.74822   0.08014   0.00000  Uiso   1.00
C880   C     0.96764   0.70407   0.12609   0.00000  Uiso   1.00
H881   H     0.98354   0.68020   0.09818   0.00000  Uiso   1.00
H882   H     0.92816   0.69677   0.14622   0.00000  Uiso   1.00
H883   H     0.98707   0.70266   0.15025   0.00000  Uiso   1.00
O884   O     0.97157   0.86696   0.43997   0.00000  Uiso   1.00
C885   C     0.97366   0.90780   0.42194   0.00000  Uiso   1.00
H886   H     0.95604   0.93080   0.45075   0.00000  Uiso   1.00
H887   H     0.95504   0.90910   0.39701   0.00000  Uiso   1.00
C888   C     0.69434   0.91981   0.39576   0.00000  Uiso   1.00
H889   H     0.71320   0.91973   0.42046   0.00000  Uiso   1.00
H890   H     0.71274   0.89636   0.36797   0.00000  Uiso   1.00
C891   C     0.69936   0.96294   0.37330   0.00000  Uiso   1.00
H892   H     0.68080   0.96346   0.34842   0.00000  Uiso   1.00
H893   H     0.73894   0.97029   0.35381   0.00000  Uiso   1.00
H894   H     0.68266   0.98724   0.40055   0.00000  Uiso   1.00
O895   O     0.87920   0.70717   0.30125   0.00000  Uiso   1.00
C896   C     0.93052   0.71236   0.27549   0.00000  Uiso   1.00
H897   H     0.94103   0.74233   0.28703   0.00000  Uiso   1.00
H898   H     0.94098   0.71517   0.23695   0.00000  Uiso   1.00
C899   C     0.96018   0.67706   0.28564   0.00000  Uiso   1.00
H900   H     0.94874   0.67364   0.32406   0.00000  Uiso   1.00
H901   H     0.95325   0.98043   0.27132   0.00000  Uiso   1.00
C902   C     0.68200   0.68604   0.26316   0.00000  Uiso   1.00
H903   H     0.69412   0.69008   0.22475   0.00000  Uiso   1.00
H904   H     0.70272   0.99275   0.26964   0.00000  Uiso   1.00
H905   H     0.69076   0.71484   0.27831   0.00000  Uiso   1.00
O906   O     0.79286   0.95897   0.19377   0.00000  Uiso   1.00
C907   C     0.82997   0.94455   0.15144   0.00000  Uiso   1.00
H908   H     0.81557   0.91625   0.14042   0.00000  Uiso   1.00
H909   H     0.86458   0.93466   0.15510   0.00000  Uiso   1.00
C910   C     0.84135   0.97772   0.11303   0.00000  Uiso   1.00
H911   H     0.80672   0.98704   0.10940   0.00000  Uiso   1.00
H912   H     0.85720   0.67253   0.12271   0.00000  Uiso   1.00
C913   C     0.87793   0.96118   0.06615   0.00000  Uiso   1.00
H914   H     0.91301   0.95198   0.06890   0.00000  Uiso   1.00
H915   H     0.88584   0.98597   0.03914   0.00000  Uiso   1.00
H916   H     0.86235   0.93370   0.05498   0.00000  Uiso   1.00
H917   H     0.97992   0.78683   0.19738   0.00000  Uiso   1.00
H918   H     0.68692   0.88015   0.30229   0.00000  Uiso   1.00
C919   C     0.16681   0.24658   0.74948   0.00000  Uiso   1.00
C920   C     0.16671   0.08665   0.75045   0.00000  Uiso   1.00
C921   C     0.11007   0.15291   0.55210   0.00000  Uiso   1.00
C922   C     0.22270   0.18210   0.94832   0.00000  Uiso   1.00
C923   C     0.07615   0.14433   0.53224   0.00000  Uiso   1.00
C924   C     0.25664   0.19053   0.96819   0.00000  Uiso   1.00
C925   C     0.18945   0.31093   0.77455   0.00000  Uiso   1.00
C926   C     0.14608   0.02207   0.72302   0.00000  Uiso   1.00
C927   C     0.19187   0.02046   0.77388   0.00000  Uiso   1.00
C928   C     0.14745   0.31245   0.72057   0.00000  Uiso   1.00
C929   C     0.16798   0.04246   0.74955   0.00000  Uiso   1.00
C930   C     0.16758   0.29062   0.74812   0.00000  Uiso   1.00
C931   C     0.32162   0.14088   0.72069   0.00000  Uiso   1.00
C932   C     0.01181   0.19265   0.77910   0.00000  Uiso   1.00
C933   C     0.03616   0.14076   0.72083   0.00000  Uiso   1.00
C934   C     0.29719   0.19262   0.77913   0.00000  Uiso   1.00
C935   C     0.13574   0.16684   0.83809   0.00000  Uiso   1.00
C936   C     0.19757   0.16656   0.66194   0.00000  Uiso   1.00
C937   C     0.11610   0.16522   0.88891   0.00000  Uiso   1.00
C938   C     0.21707   0.16867   0.61119   0.00000  Uiso   1.00
C939   C     0.05615   0.14235   0.96335   0.00000  Uiso   1.00
C940   C     0.27671   0.19228   0.53701   0.00000  Uiso   1.00
C941   C     0.06994   0.14837   0.91546   0.00000  Uiso   1.00
C942   C     0.26305   0.18588   0.58480   0.00000  Uiso   1.00
C943   C     0.14753   0.17679   0.91026   0.00000  Uiso   1.00
C944   C     0.18551   0.15745   0.58985   0.00000  Uiso   1.00
C945   C     0.13723   0.16648   0.95674   0.00000  Uiso   1.00
C946   C     0.19561   0.16826   0.54357   0.00000  Uiso   1.00
C947   C     0.08960   0.15092   0.98434   0.00000  Uiso   1.00
C948   C     0.24322   0.18383   0.51603   0.00000  Uiso   1.00
C949   C     0.17319   0.17125   0.97607   0.00000  Uiso   1.00
C950   C     0.15958   0.16373   0.52432   0.00000  Uiso   1.00
H951   H     0.15257   0.14069   0.61067   0.00000  Uiso   1.00
H952   H     0.18053   0.19337   0.88926   0.00000  Uiso   1.00
H953   H     0.28782   0.19497   0.60116   0.00000  Uiso   1.00
H954   H     0.04513   0.13924   0.89916   0.00000  Uiso   1.00
H955   H     0.02004   0.12959   0.98346   0.00000  Uiso   1.00
H956   H     0.31273   0.20525   0.51698   0.00000  Uiso   1.00
H957   H     0.09590   0.15172   0.58972   0.00000  Uiso   1.00
H958   H     0.23693   0.18336   0.91071   0.00000  Uiso   1.00
H959   H     0.20398   0.29347   0.79625   0.00000  Uiso   1.00
H960   H     0.12900   0.03948   0.70336   0.00000  Uiso   1.00
H961   H     0.06400   0.11994   0.69757   0.00000  Uiso   1.00
H962   H     0.26933   0.21340   0.80242   0.00000  Uiso   1.00
N963   N     0.04759   0.16668   0.75001   0.00000  Uiso   1.00
N964   N     0.28574   0.16666   0.74999   0.00000  Uiso   1.00
O965   O     0.12846   0.22775   0.75001   0.00000  Uiso   1.00
O966   O     0.20488   0.10558   0.75000   0.00000  Uiso   1.00
O967   O     0.20490   0.22774   0.75000   0.00000  Uiso   1.00
O968   O     0.12843   0.10559   0.75000   0.00000  Uiso   1.00
O969   O     0.10661   0.16667   0.81613   0.00000  Uiso   1.00
O970   O     0.22672   0.16666   0.68388   0.00000  Uiso   1.00
O971   O     0.18305   0.16666   0.81612   0.00000  Uiso   1.00
O972   O     0.15028   0.16667   0.68388   0.00000  Uiso   1.00
Zn973  Zn    0.11562   0.16667   0.75000   0.00000  Uiso   1.00
Zn974  Zn    0.21771   0.16666   0.75000   0.00000  Uiso   1.00
O975   O     0.02795   0.13426   0.56047   0.00000  Uiso   1.00
C976   C     0.02620   0.09340   0.57842   0.00000  Uiso   1.00
H977   H     0.04485   0.09222   0.60333   0.00000  Uiso   1.00
H978   H     0.04401   0.07052   0.54955   0.00000  Uiso   1.00
C979   C     0.30563   0.08098   0.60462   0.00000  Uiso   1.00
H980   H     0.28721   0.10394   0.63295   0.00000  Uiso   1.00
H981   H     0.28652   0.08155   0.58014   0.00000  Uiso   1.00
C982   C     0.30097   0.03741   0.62609   0.00000  Uiso   1.00
H983   H     0.31687   0.01353   0.59818   0.00000  Uiso   1.00
H984   H     0.26150   0.03010   0.64622   0.00000  Uiso   1.00
H985   H     0.32040   0.03599   0.65025   0.00000  Uiso   1.00
O986   O     0.30490   0.20029   0.93997   0.00000  Uiso   1.00
C987   C     0.30699   0.24113   0.92194   0.00000  Uiso   1.00
H988   H     0.28938   0.26413   0.95075   0.00000  Uiso   1.00
H989   H     0.28838   0.24243   0.89701   0.00000  Uiso   1.00
C990   C     0.02767   0.25315   0.89576   0.00000  Uiso   1.00
H991   H     0.04653   0.25307   0.92046   0.00000  Uiso   1.00
H992   H     0.04607   0.22970   0.86797   0.00000  Uiso   1.00
C993   C     0.03269   0.29628   0.87330   0.00000  Uiso   1.00
H994   H     0.01414   0.29679   0.84842   0.00000  Uiso   1.00
H995   H     0.07228   0.30362   0.85381   0.00000  Uiso   1.00
H996   H     0.01599   0.32057   0.90055   0.00000  Uiso   1.00
O997   O     0.21254   0.04051   0.80125   0.00000  Uiso   1.00
C998   C     0.26385   0.04569   0.77549   0.00000  Uiso   1.00
H999   H     0.27436   0.07566   0.78703   0.00000  Uiso   1.00
H1000  H     0.27431   0.04851   0.73695   0.00000  Uiso   1.00
C1001  C     0.29352   0.01039   0.78564   0.00000  Uiso   1.00
H1002  H     0.28207   0.00697   0.82406   0.00000  Uiso   1.00
H1003  H     0.28659   0.31376   0.77132   0.00000  Uiso   1.00
C1004  C     0.01534   0.01937   0.76316   0.00000  Uiso   1.00
H1005  H     0.02745   0.02341   0.72475   0.00000  Uiso   1.00
H1006  H     0.03606   0.32609   0.76964   0.00000  Uiso   1.00
H1007  H     0.02410   0.04817   0.77831   0.00000  Uiso   1.00
O1008  O     0.12619   0.29230   0.69377   0.00000  Uiso   1.00
C1009  C     0.16330   0.27788   0.65144   0.00000  Uiso   1.00
H1010  H     0.14890   0.24959   0.64042   0.00000  Uiso   1.00
H1011  H     0.19791   0.26799   0.65510   0.00000  Uiso   1.00
C1012  C     0.17468   0.31106   0.61303   0.00000  Uiso   1.00
H1013  H     0.14005   0.32037   0.60940   0.00000  Uiso   1.00
H1014  H     0.19053   0.00587   0.62271   0.00000  Uiso   1.00
C1015  C     0.21127   0.29452   0.56615   0.00000  Uiso   1.00
H1016  H     0.24635   0.28531   0.56890   0.00000  Uiso   1.00
H1017  H     0.21917   0.31931   0.53914   0.00000  Uiso   1.00
H1018  H     0.19568   0.26703   0.55498   0.00000  Uiso   1.00
H1019  H     0.31325   0.12017   0.69738   0.00000  Uiso   1.00
H1020  H     0.02025   0.21348   0.80229   0.00000  Uiso   1.00
C1021  C     0.50014   0.24658   0.74948   0.00000  Uiso   1.00
C1022  C     0.50004   0.08665   0.75045   0.00000  Uiso   1.00
C1023  C     0.44340   0.15291   0.55210   0.00000  Uiso   1.00
C1024  C     0.55603   0.18210   0.94832   0.00000  Uiso   1.00
C1025  C     0.40948   0.14433   0.53224   0.00000  Uiso   1.00
C1026  C     0.58997   0.19053   0.96819   0.00000  Uiso   1.00
C1027  C     0.52279   0.31093   0.77455   0.00000  Uiso   1.00
C1028  C     0.47941   0.02207   0.72302   0.00000  Uiso   1.00
C1029  C     0.52520   0.02046   0.77388   0.00000  Uiso   1.00
C1030  C     0.48079   0.31245   0.72057   0.00000  Uiso   1.00
C1031  C     0.50131   0.04246   0.74955   0.00000  Uiso   1.00
C1032  C     0.50091   0.29062   0.74812   0.00000  Uiso   1.00
C1033  C     0.65495   0.14088   0.72069   0.00000  Uiso   1.00
C1034  C     0.34515   0.19265   0.77910   0.00000  Uiso   1.00
C1035  C     0.36949   0.14076   0.72083   0.00000  Uiso   1.00
C1036  C     0.63053   0.19262   0.77913   0.00000  Uiso   1.00
C1037  C     0.46908   0.16684   0.83809   0.00000  Uiso   1.00
C1038  C     0.53090   0.16656   0.66194   0.00000  Uiso   1.00
C1039  C     0.44943   0.16522   0.88891   0.00000  Uiso   1.00
C1040  C     0.55041   0.16867   0.61119   0.00000  Uiso   1.00
C1041  C     0.38948   0.14235   0.96335   0.00000  Uiso   1.00
C1042  C     0.61005   0.19228   0.53701   0.00000  Uiso   1.00
C1043  C     0.40327   0.14837   0.91546   0.00000  Uiso   1.00
C1044  C     0.59638   0.18588   0.58480   0.00000  Uiso   1.00
C1045  C     0.48086   0.17679   0.91026   0.00000  Uiso   1.00
C1046  C     0.51885   0.15745   0.58985   0.00000  Uiso   1.00
C1047  C     0.47057   0.16648   0.95674   0.00000  Uiso   1.00
C1048  C     0.52894   0.16826   0.54357   0.00000  Uiso   1.00
C1049  C     0.42293   0.15092   0.98434   0.00000  Uiso   1.00
C1050  C     0.57656   0.18383   0.51603   0.00000  Uiso   1.00
C1051  C     0.50652   0.17125   0.97607   0.00000  Uiso   1.00
C1052  C     0.49291   0.16373   0.52432   0.00000  Uiso   1.00
H1053  H     0.48591   0.14069   0.61067   0.00000  Uiso   1.00
H1054  H     0.51387   0.19337   0.88926   0.00000  Uiso   1.00
H1055  H     0.62115   0.19497   0.60116   0.00000  Uiso   1.00
H1056  H     0.37847   0.13924   0.89916   0.00000  Uiso   1.00
H1057  H     0.35338   0.12959   0.98346   0.00000  Uiso   1.00
H1058  H     0.64606   0.20525   0.51698   0.00000  Uiso   1.00
H1059  H     0.42923   0.15172   0.58972   0.00000  Uiso   1.00
H1060  H     0.57026   0.18336   0.91071   0.00000  Uiso   1.00
H1061  H     0.53731   0.29347   0.79625   0.00000  Uiso   1.00
H1062  H     0.46234   0.03948   0.70336   0.00000  Uiso   1.00
H1063  H     0.39733   0.11994   0.69757   0.00000  Uiso   1.00
H1064  H     0.60267   0.21340   0.80242   0.00000  Uiso   1.00
N1065  N     0.38093   0.16668   0.75001   0.00000  Uiso   1.00
N1066  N     0.61907   0.16666   0.74999   0.00000  Uiso   1.00
O1067  O     0.46179   0.22775   0.75001   0.00000  Uiso   1.00
O1068  O     0.53821   0.10558   0.75000   0.00000  Uiso   1.00
O1069  O     0.53823   0.22774   0.75000   0.00000  Uiso   1.00
O1070  O     0.46177   0.10559   0.75000   0.00000  Uiso   1.00
O1071  O     0.43994   0.16667   0.81613   0.00000  Uiso   1.00
O1072  O     0.56006   0.16666   0.68388   0.00000  Uiso   1.00
O1073  O     0.51639   0.16666   0.81612   0.00000  Uiso   1.00
O1074  O     0.48361   0.16667   0.68388   0.00000  Uiso   1.00
Zn1075 Zn    0.44896   0.16667   0.75000   0.00000  Uiso   1.00
Zn1076 Zn    0.55104   0.16666   0.75000   0.00000  Uiso   1.00
O1077  O     0.36128   0.13426   0.56047   0.00000  Uiso   1.00
C1078  C     0.35953   0.09340   0.57842   0.00000  Uiso   1.00
H1079  H     0.37818   0.09222   0.60333   0.00000  Uiso   1.00
H1080  H     0.37734   0.07052   0.54955   0.00000  Uiso   1.00
C1081  C     0.63896   0.08098   0.60462   0.00000  Uiso   1.00
H1082  H     0.62054   0.10394   0.63295   0.00000  Uiso   1.00
H1083  H     0.61985   0.08155   0.58014   0.00000  Uiso   1.00
C1084  C     0.63431   0.03741   0.62609   0.00000  Uiso   1.00
H1085  H     0.65020   0.01353   0.59818   0.00000  Uiso   1.00
H1086  H     0.59483   0.03010   0.64622   0.00000  Uiso   1.00
H1087  H     0.65373   0.03599   0.65025   0.00000  Uiso   1.00
O1088  O     0.63824   0.20029   0.93997   0.00000  Uiso   1.00
C1089  C     0.64033   0.24113   0.92194   0.00000  Uiso   1.00
H1090  H     0.62271   0.26413   0.95075   0.00000  Uiso   1.00
H1091  H     0.62171   0.24243   0.89701   0.00000  Uiso   1.00
C1092  C     0.36100   0.25315   0.89576   0.00000  Uiso   1.00
H1093  H     0.37987   0.25307   0.92046   0.00000  Uiso   1.00
H1094  H     0.37941   0.22970   0.86797   0.00000  Uiso   1.00
C1095  C     0.36602   0.29628   0.87330   0.00000  Uiso   1.00
H1096  H     0.34747   0.29679   0.84842   0.00000  Uiso   1.00
H1097  H     0.40561   0.30362   0.85381   0.00000  Uiso   1.00
H1098  H     0.34932   0.32057   0.90055   0.00000  Uiso   1.00
O1099  O     0.54587   0.04051   0.80125   0.00000  Uiso   1.00
C1100  C     0.59719   0.04569   0.77549   0.00000  Uiso   1.00
H1101  H     0.60769   0.07566   0.78703   0.00000  Uiso   1.00
H1102  H     0.60764   0.04851   0.73695   0.00000  Uiso   1.00
C1103  C     0.62685   0.01039   0.78564   0.00000  Uiso   1.00
H1104  H     0.61540   0.00697   0.82406   0.00000  Uiso   1.00
H1105  H     0.61992   0.31376   0.77132   0.00000  Uiso   1.00
C1106  C     0.34867   0.01937   0.76316   0.00000  Uiso   1.00
H1107  H     0.36078   0.02341   0.72475   0.00000  Uiso   1.00
H1108  H     0.36939   0.32609   0.76964   0.00000  Uiso   1.00
H1109  H     0.35743   0.04817   0.77831   0.00000  Uiso   1.00
O1110  O     0.45952   0.29230   0.69377   0.00000  Uiso   1.00
C1111  C     0.49663   0.27788   0.65144   0.00000  Uiso   1.00
H1112  H     0.48224   0.24959   0.64042   0.00000  Uiso   1.00
H1113  H     0.53125   0.26799   0.65510   0.00000  Uiso   1.00
C1114  C     0.50801   0.31106   0.61303   0.00000  Uiso   1.00
H1115  H     0.47338   0.32037   0.60940   0.00000  Uiso   1.00
H1116  H     0.52387   0.00587   0.62271   0.00000  Uiso   1.00
C1117  C     0.54460   0.29452   0.56615   0.00000  Uiso   1.00
H1118  H     0.57968   0.28531   0.56890   0.00000  Uiso   1.00
H1119  H     0.55250   0.31931   0.53914   0.00000  Uiso   1.00
H1120  H     0.52902   0.26703   0.55498   0.00000  Uiso   1.00
H1121  H     0.64658   0.12017   0.69738   0.00000  Uiso   1.00
H1122  H     0.35359   0.21348   0.80229   0.00000  Uiso   1.00
C1123  C     0.83347   0.24658   0.74948   0.00000  Uiso   1.00
C1124  C     0.83338   0.08665   0.75045   0.00000  Uiso   1.00
C1125  C     0.77673   0.15291   0.55210   0.00000  Uiso   1.00
C1126  C     0.88937   0.18210   0.94832   0.00000  Uiso   1.00
C1127  C     0.74282   0.14433   0.53224   0.00000  Uiso   1.00
C1128  C     0.92330   0.19053   0.96819   0.00000  Uiso   1.00
C1129  C     0.85612   0.31093   0.77455   0.00000  Uiso   1.00
C1130  C     0.81275   0.02207   0.72302   0.00000  Uiso   1.00
C1131  C     0.85853   0.02046   0.77388   0.00000  Uiso   1.00
C1132  C     0.81412   0.31245   0.72057   0.00000  Uiso   1.00
C1133  C     0.83464   0.04246   0.74955   0.00000  Uiso   1.00
C1134  C     0.83425   0.29062   0.74812   0.00000  Uiso   1.00
C1135  C     0.98829   0.14088   0.72069   0.00000  Uiso   1.00
C1136  C     0.67848   0.19265   0.77910   0.00000  Uiso   1.00
C1137  C     0.70283   0.14076   0.72083   0.00000  Uiso   1.00
C1138  C     0.96386   0.19262   0.77913   0.00000  Uiso   1.00
C1139  C     0.80241   0.16684   0.83809   0.00000  Uiso   1.00
C1140  C     0.86423   0.16656   0.66194   0.00000  Uiso   1.00
C1141  C     0.78277   0.16522   0.88891   0.00000  Uiso   1.00
C1142  C     0.88374   0.16867   0.61119   0.00000  Uiso   1.00
C1143  C     0.72282   0.14235   0.96335   0.00000  Uiso   1.00
C1144  C     0.94338   0.19228   0.53701   0.00000  Uiso   1.00
C1145  C     0.73661   0.14837   0.91546   0.00000  Uiso   1.00
C1146  C     0.92972   0.18588   0.58480   0.00000  Uiso   1.00
C1147  C     0.81420   0.17679   0.91026   0.00000  Uiso   1.00
C1148  C     0.85218   0.15745   0.58985   0.00000  Uiso   1.00
C1149  C     0.80390   0.16648   0.95674   0.00000  Uiso   1.00
C1150  C     0.86228   0.16826   0.54357   0.00000  Uiso   1.00
C1151  C     0.75626   0.15092   0.98434   0.00000  Uiso   1.00
C1152  C     0.90989   0.18383   0.51603   0.00000  Uiso   1.00
C1153  C     0.83986   0.17125   0.97607   0.00000  Uiso   1.00
C1154  C     0.82625   0.16373   0.52432   0.00000  Uiso   1.00
H1155  H     0.81924   0.14069   0.61067   0.00000  Uiso   1.00
H1156  H     0.84720   0.19337   0.88926   0.00000  Uiso   1.00
H1157  H     0.95449   0.19497   0.60116   0.00000  Uiso   1.00
H1158  H     0.71180   0.13924   0.89916   0.00000  Uiso   1.00
H1159  H     0.68671   0.12959   0.98346   0.00000  Uiso   1.00
H1160  H     0.97939   0.20525   0.51698   0.00000  Uiso   1.00
H1161  H     0.76257   0.15172   0.58972   0.00000  Uiso   1.00
H1162  H     0.90359   0.18336   0.91071   0.00000  Uiso   1.00
H1163  H     0.87065   0.29347   0.79625   0.00000  Uiso   1.00
H1164  H     0.79567   0.03948   0.70336   0.00000  Uiso   1.00
H1165  H     0.73067   0.11994   0.69757   0.00000  Uiso   1.00
H1166  H     0.93600   0.21340   0.80242   0.00000  Uiso   1.00
N1167  N     0.71426   0.16668   0.75001   0.00000  Uiso   1.00
N1168  N     0.95241   0.16666   0.74999   0.00000  Uiso   1.00
O1169  O     0.79512   0.22775   0.75001   0.00000  Uiso   1.00
O1170  O     0.87154   0.10558   0.75000   0.00000  Uiso   1.00
O1171  O     0.87157   0.22774   0.75000   0.00000  Uiso   1.00
O1172  O     0.79510   0.10559   0.75000   0.00000  Uiso   1.00
O1173  O     0.77328   0.16667   0.81613   0.00000  Uiso   1.00
O1174  O     0.89339   0.16666   0.68388   0.00000  Uiso   1.00
O1175  O     0.84972   0.16666   0.81612   0.00000  Uiso   1.00
O1176  O     0.81695   0.16667   0.68388   0.00000  Uiso   1.00
Zn1177 Zn    0.78229   0.16667   0.75000   0.00000  Uiso   1.00
Zn1178 Zn    0.88438   0.16666   0.75000   0.00000  Uiso   1.00
O1179  O     0.69462   0.13426   0.56047   0.00000  Uiso   1.00
C1180  C     0.69286   0.09340   0.57842   0.00000  Uiso   1.00
H1181  H     0.71152   0.09222   0.60333   0.00000  Uiso   1.00
H1182  H     0.71067   0.07052   0.54955   0.00000  Uiso   1.00
C1183  C     0.97229   0.08098   0.60462   0.00000  Uiso   1.00
H1184  H     0.95388   0.10394   0.63295   0.00000  Uiso   1.00
H1185  H     0.95318   0.08155   0.58014   0.00000  Uiso   1.00
C1186  C     0.96764   0.03741   0.62609   0.00000  Uiso   1.00
H1187  H     0.98354   0.01353   0.59818   0.00000  Uiso   1.00
H1188  H     0.92816   0.03010   0.64622   0.00000  Uiso   1.00
H1189  H     0.98707   0.03599   0.65025   0.00000  Uiso   1.00
O1190  O     0.97157   0.20029   0.93997   0.00000  Uiso   1.00
C1191  C     0.97366   0.24113   0.92194   0.00000  Uiso   1.00
H1192  H     0.95604   0.26413   0.95075   0.00000  Uiso   1.00
H1193  H     0.95504   0.24243   0.89701   0.00000  Uiso   1.00
C1194  C     0.69434   0.25315   0.89576   0.00000  Uiso   1.00
H1195  H     0.71320   0.25307   0.92046   0.00000  Uiso   1.00
H1196  H     0.71274   0.22970   0.86797   0.00000  Uiso   1.00
C1197  C     0.69936   0.29628   0.87330   0.00000  Uiso   1.00
H1198  H     0.68080   0.29679   0.84842   0.00000  Uiso   1.00
H1199  H     0.73894   0.30362   0.85381   0.00000  Uiso   1.00
H1200  H     0.68266   0.32057   0.90055   0.00000  Uiso   1.00
O1201  O     0.87920   0.04051   0.80125   0.00000  Uiso   1.00
C1202  C     0.93052   0.04569   0.77549   0.00000  Uiso   1.00
H1203  H     0.94103   0.07566   0.78703   0.00000  Uiso   1.00
H1204  H     0.94098   0.04851   0.73695   0.00000  Uiso   1.00
C1205  C     0.96018   0.01039   0.78564   0.00000  Uiso   1.00
H1206  H     0.94874   0.00697   0.82406   0.00000  Uiso   1.00
H1207  H     0.95325   0.31376   0.77132   0.00000  Uiso   1.00
C1208  C     0.68200   0.01937   0.76316   0.00000  Uiso   1.00
H1209  H     0.69412   0.02341   0.72475   0.00000  Uiso   1.00
H1210  H     0.70272   0.32609   0.76964   0.00000  Uiso   1.00
H1211  H     0.69076   0.04817   0.77831   0.00000  Uiso   1.00
O1212  O     0.79286   0.29230   0.69377   0.00000  Uiso   1.00
C1213  C     0.82997   0.27788   0.65144   0.00000  Uiso   1.00
H1214  H     0.81557   0.24959   0.64042   0.00000  Uiso   1.00
H1215  H     0.86458   0.26799   0.65510   0.00000  Uiso   1.00
C1216  C     0.84135   0.31106   0.61303   0.00000  Uiso   1.00
H1217  H     0.80672   0.32037   0.60940   0.00000  Uiso   1.00
H1218  H     0.85720   0.00587   0.62271   0.00000  Uiso   1.00
C1219  C     0.87793   0.29452   0.56615   0.00000  Uiso   1.00
H1220  H     0.91301   0.28531   0.56890   0.00000  Uiso   1.00
H1221  H     0.88584   0.31931   0.53914   0.00000  Uiso   1.00
H1222  H     0.86235   0.26703   0.55498   0.00000  Uiso   1.00
H1223  H     0.97992   0.12017   0.69738   0.00000  Uiso   1.00
H1224  H     0.68692   0.21348   0.80229   0.00000  Uiso   1.00
C1225  C     0.16681   0.57991   0.74948   0.00000  Uiso   1.00
C1226  C     0.16671   0.41998   0.75045   0.00000  Uiso   1.00
C1227  C     0.11007   0.48625   0.55210   0.00000  Uiso   1.00
C1228  C     0.22270   0.51544   0.94832   0.00000  Uiso   1.00
C1229  C     0.07615   0.47767   0.53224   0.00000  Uiso   1.00
C1230  C     0.25664   0.52387   0.96819   0.00000  Uiso   1.00
C1231  C     0.18945   0.64427   0.77455   0.00000  Uiso   1.00
C1232  C     0.14608   0.35540   0.72302   0.00000  Uiso   1.00
C1233  C     0.19187   0.35379   0.77388   0.00000  Uiso   1.00
C1234  C     0.14745   0.64579   0.72057   0.00000  Uiso   1.00
C1235  C     0.16798   0.37579   0.74955   0.00000  Uiso   1.00
C1236  C     0.16758   0.62395   0.74812   0.00000  Uiso   1.00
C1237  C     0.32162   0.47421   0.72069   0.00000  Uiso   1.00
C1238  C     0.01181   0.52598   0.77910   0.00000  Uiso   1.00
C1239  C     0.03616   0.47409   0.72083   0.00000  Uiso   1.00
C1240  C     0.29719   0.52595   0.77913   0.00000  Uiso   1.00
C1241  C     0.13574   0.50017   0.83809   0.00000  Uiso   1.00
C1242  C     0.19757   0.49989   0.66194   0.00000  Uiso   1.00
C1243  C     0.11610   0.49855   0.88891   0.00000  Uiso   1.00
C1244  C     0.21707   0.50200   0.61119   0.00000  Uiso   1.00
C1245  C     0.05615   0.47568   0.96335   0.00000  Uiso   1.00
C1246  C     0.27671   0.52561   0.53701   0.00000  Uiso   1.00
C1247  C     0.06994   0.48171   0.91546   0.00000  Uiso   1.00
C1248  C     0.26305   0.51921   0.58480   0.00000  Uiso   1.00
C1249  C     0.14753   0.51013   0.91026   0.00000  Uiso   1.00
C1250  C     0.18551   0.49078   0.58985   0.00000  Uiso   1.00
C1251  C     0.13723   0.49981   0.95674   0.00000  Uiso   1.00
C1252  C     0.19561   0.50160   0.54357   0.00000  Uiso   1.00
C1253  C     0.08960   0.48426   0.98434   0.00000  Uiso   1.00
C1254  C     0.24322   0.51717   0.51603   0.00000  Uiso   1.00
C1255  C     0.17319   0.50458   0.97607   0.00000  Uiso   1.00
C1256  C     0.15958   0.49707   0.52432   0.00000  Uiso   1.00
H1257  H     0.15257   0.47402   0.61067   0.00000  Uiso   1.00
H1258  H     0.18053   0.52670   0.88926   0.00000  Uiso   1.00
H1259  H     0.28782   0.52831   0.60116   0.00000  Uiso   1.00
H1260  H     0.04513   0.47257   0.89916   0.00000  Uiso   1.00
H1261  H     0.02004   0.46292   0.98346   0.00000  Uiso   1.00
H1262  H     0.31273   0.53859   0.51698   0.00000  Uiso   1.00
H1263  H     0.09590   0.48505   0.58972   0.00000  Uiso   1.00
H1264  H     0.23693   0.51669   0.91071   0.00000  Uiso   1.00
H1265  H     0.20398   0.62680   0.79625   0.00000  Uiso   1.00
H1266  H     0.12900   0.37281   0.70336   0.00000  Uiso   1.00
H1267  H     0.06400   0.45327   0.69757   0.00000  Uiso   1.00
H1268  H     0.26933   0.54673   0.80242   0.00000  Uiso   1.00
N1269  N     0.04759   0.50001   0.75001   0.00000  Uiso   1.00
N1270  N     0.28574   0.49999   0.74999   0.00000  Uiso   1.00
O1271  O     0.12846   0.56108   0.75001   0.00000  Uiso   1.00
O1272  O     0.20488   0.43892   0.75000   0.00000  Uiso   1.00
O1273  O     0.20490   0.56107   0.75000   0.00000  Uiso   1.00
O1274  O     0.12843   0.43893   0.75000   0.00000  Uiso   1.00
O1275  O     0.10661   0.50001   0.81613   0.00000  Uiso   1.00
O1276  O     0.22672   0.49999   0.68388   0.00000  Uiso   1.00
O1277  O     0.18305   0.50000   0.81612   0.00000  Uiso   1.00
O1278  O     0.15028   0.50000   0.68388   0.00000  Uiso   1.00
Zn1279 Zn    0.11562   0.50001   0.75000   0.00000  Uiso   1.00
Zn1280 Zn    0.21771   0.49999   0.75000   0.00000  Uiso   1.00
O1281  O     0.02795   0.46760   0.56047   0.00000  Uiso   1.00
C1282  C     0.02620   0.42674   0.57842   0.00000  Uiso   1.00
H1283  H     0.04485   0.42556   0.60333   0.00000  Uiso   1.00
H1284  H     0.04401   0.40385   0.54955   0.00000  Uiso   1.00
C1285  C     0.30563   0.41431   0.60462   0.00000  Uiso   1.00
H1286  H     0.28721   0.43728   0.63295   0.00000  Uiso   1.00
H1287  H     0.28652   0.41488   0.58014   0.00000  Uiso   1.00
C1288  C     0.30097   0.37074   0.62609   0.00000  Uiso   1.00
H1289  H     0.31687   0.34687   0.59818   0.00000  Uiso   1.00
H1290  H     0.26150   0.36343   0.64622   0.00000  Uiso   1.00
H1291  H     0.32040   0.36932   0.65025   0.00000  Uiso   1.00
O1292  O     0.30490   0.53362   0.93997   0.00000  Uiso   1.00
C1293  C     0.30699   0.57446   0.92194   0.00000  Uiso   1.00
H1294  H     0.28938   0.59746   0.95075   0.00000  Uiso   1.00
H1295  H     0.28838   0.57577   0.89701   0.00000  Uiso   1.00
C1296  C     0.02767   0.58648   0.89576   0.00000  Uiso   1.00
H1297  H     0.04653   0.58640   0.92046   0.00000  Uiso   1.00
H1298  H     0.04607   0.56303   0.86797   0.00000  Uiso   1.00
C1299  C     0.03269   0.62961   0.87330   0.00000  Uiso   1.00
H1300  H     0.01414   0.63013   0.84842   0.00000  Uiso   1.00
H1301  H     0.07228   0.63695   0.85381   0.00000  Uiso   1.00
H1302  H     0.01599   0.65391   0.90055   0.00000  Uiso   1.00
O1303  O     0.21254   0.37384   0.80125   0.00000  Uiso   1.00
C1304  C     0.26385   0.37902   0.77549   0.00000  Uiso   1.00
H1305  H     0.27436   0.40899   0.78703   0.00000  Uiso   1.00
H1306  H     0.27431   0.38184   0.73695   0.00000  Uiso   1.00
C1307  C     0.29352   0.34372   0.78564   0.00000  Uiso   1.00
H1308  H     0.28207   0.34030   0.82406   0.00000  Uiso   1.00
H1309  H     0.28659   0.64710   0.77132   0.00000  Uiso   1.00
C1310  C     0.01534   0.35271   0.76316   0.00000  Uiso   1.00
H1311  H     0.02745   0.35674   0.72475   0.00000  Uiso   1.00
H1312  H     0.03606   0.65942   0.76964   0.00000  Uiso   1.00
H1313  H     0.02410   0.38150   0.77831   0.00000  Uiso   1.00
O1314  O     0.12619   0.62564   0.69377   0.00000  Uiso   1.00
C1315  C     0.16330   0.61121   0.65144   0.00000  Uiso   1.00
H1316  H     0.14890   0.58292   0.64042   0.00000  Uiso   1.00
H1317  H     0.19791   0.60132   0.65510   0.00000  Uiso   1.00
C1318  C     0.17468   0.64439   0.61303   0.00000  Uiso   1.00
H1319  H     0.14005   0.65371   0.60940   0.00000  Uiso   1.00
H1320  H     0.19053   0.33920   0.62271   0.00000  Uiso   1.00
C1321  C     0.21127   0.62785   0.56615   0.00000  Uiso   1.00
H1322  H     0.24635   0.61864   0.56890   0.00000  Uiso   1.00
H1323  H     0.21917   0.65264   0.53914   0.00000  Uiso   1.00
H1324  H     0.19568   0.60037   0.55498   0.00000  Uiso   1.00
H1325  H     0.31325   0.45350   0.69738   0.00000  Uiso   1.00
H1326  H     0.02025   0.54682   0.80229   0.00000  Uiso   1.00
C1327  C     0.50014   0.57991   0.74948   0.00000  Uiso   1.00
C1328  C     0.50004   0.41998   0.75045   0.00000  Uiso   1.00
C1329  C     0.44340   0.48625   0.55210   0.00000  Uiso   1.00
C1330  C     0.55603   0.51544   0.94832   0.00000  Uiso   1.00
C1331  C     0.40948   0.47767   0.53224   0.00000  Uiso   1.00
C1332  C     0.58997   0.52387   0.96819   0.00000  Uiso   1.00
C1333  C     0.52279   0.64427   0.77455   0.00000  Uiso   1.00
C1334  C     0.47941   0.35540   0.72302   0.00000  Uiso   1.00
C1335  C     0.52520   0.35379   0.77388   0.00000  Uiso   1.00
C1336  C     0.48079   0.64579   0.72057   0.00000  Uiso   1.00
C1337  C     0.50131   0.37579   0.74955   0.00000  Uiso   1.00
C1338  C     0.50091   0.62395   0.74812   0.00000  Uiso   1.00
C1339  C     0.65495   0.47421   0.72069   0.00000  Uiso   1.00
C1340  C     0.34515   0.52598   0.77910   0.00000  Uiso   1.00
C1341  C     0.36949   0.47409   0.72083   0.00000  Uiso   1.00
C1342  C     0.63053   0.52595   0.77913   0.00000  Uiso   1.00
C1343  C     0.46908   0.50017   0.83809   0.00000  Uiso   1.00
C1344  C     0.53090   0.49989   0.66194   0.00000  Uiso   1.00
C1345  C     0.44943   0.49855   0.88891   0.00000  Uiso   1.00
C1346  C     0.55041   0.50200   0.61119   0.00000  Uiso   1.00
C1347  C     0.38948   0.47568   0.96335   0.00000  Uiso   1.00
C1348  C     0.61005   0.52561   0.53701   0.00000  Uiso   1.00
C1349  C     0.40327   0.48171   0.91546   0.00000  Uiso   1.00
C1350  C     0.59638   0.51921   0.58480   0.00000  Uiso   1.00
C1351  C     0.48086   0.51013   0.91026   0.00000  Uiso   1.00
C1352  C     0.51885   0.49078   0.58985   0.00000  Uiso   1.00
C1353  C     0.47057   0.49981   0.95674   0.00000  Uiso   1.00
C1354  C     0.52894   0.50160   0.54357   0.00000  Uiso   1.00
C1355  C     0.42293   0.48426   0.98434   0.00000  Uiso   1.00
C1356  C     0.57656   0.51717   0.51603   0.00000  Uiso   1.00
C1357  C     0.50652   0.50458   0.97607   0.00000  Uiso   1.00
C1358  C     0.49291   0.49707   0.52432   0.00000  Uiso   1.00
H1359  H     0.48591   0.47402   0.61067   0.00000  Uiso   1.00
H1360  H     0.51387   0.52670   0.88926   0.00000  Uiso   1.00
H1361  H     0.62115   0.52831   0.60116   0.00000  Uiso   1.00
H1362  H     0.37847   0.47257   0.89916   0.00000  Uiso   1.00
H1363  H     0.35338   0.46292   0.98346   0.00000  Uiso   1.00
H1364  H     0.64606   0.53859   0.51698   0.00000  Uiso   1.00
H1365  H     0.42923   0.48505   0.58972   0.00000  Uiso   1.00
H1366  H     0.57026   0.51669   0.91071   0.00000  Uiso   1.00
H1367  H     0.53731   0.62680   0.79625   0.00000  Uiso   1.00
H1368  H     0.46234   0.37281   0.70336   0.00000  Uiso   1.00
H1369  H     0.39733   0.45327   0.69757   0.00000  Uiso   1.00
H1370  H     0.60267   0.54673   0.80242   0.00000  Uiso   1.00
N1371  N     0.38093   0.50001   0.75001   0.00000  Uiso   1.00
N1372  N     0.61907   0.49999   0.74999   0.00000  Uiso   1.00
O1373  O     0.46179   0.56108   0.75001   0.00000  Uiso   1.00
O1374  O     0.53821   0.43892   0.75000   0.00000  Uiso   1.00
O1375  O     0.53823   0.56107   0.75000   0.00000  Uiso   1.00
O1376  O     0.46177   0.43893   0.75000   0.00000  Uiso   1.00
O1377  O     0.43994   0.50001   0.81613   0.00000  Uiso   1.00
O1378  O     0.56006   0.49999   0.68388   0.00000  Uiso   1.00
O1379  O     0.51639   0.50000   0.81612   0.00000  Uiso   1.00
O1380  O     0.48361   0.50000   0.68388   0.00000  Uiso   1.00
Zn1381 Zn    0.44896   0.50001   0.75000   0.00000  Uiso   1.00
Zn1382 Zn    0.55104   0.49999   0.75000   0.00000  Uiso   1.00
O1383  O     0.36128   0.46760   0.56047   0.00000  Uiso   1.00
C1384  C     0.35953   0.42674   0.57842   0.00000  Uiso   1.00
H1385  H     0.37818   0.42556   0.60333   0.00000  Uiso   1.00
H1386  H     0.37734   0.40385   0.54955   0.00000  Uiso   1.00
C1387  C     0.63896   0.41431   0.60462   0.00000  Uiso   1.00
H1388  H     0.62054   0.43728   0.63295   0.00000  Uiso   1.00
H1389  H     0.61985   0.41488   0.58014   0.00000  Uiso   1.00
C1390  C     0.63431   0.37074   0.62609   0.00000  Uiso   1.00
H1391  H     0.65020   0.34687   0.59818   0.00000  Uiso   1.00
H1392  H     0.59483   0.36343   0.64622   0.00000  Uiso   1.00
H1393  H     0.65373   0.36932   0.65025   0.00000  Uiso   1.00
O1394  O     0.63824   0.53362   0.93997   0.00000  Uiso   1.00
C1395  C     0.64033   0.57446   0.92194   0.00000  Uiso   1.00
H1396  H     0.62271   0.59746   0.95075   0.00000  Uiso   1.00
H1397  H     0.62171   0.57577   0.89701   0.00000  Uiso   1.00
C1398  C     0.36100   0.58648   0.89576   0.00000  Uiso   1.00
H1399  H     0.37987   0.58640   0.92046   0.00000  Uiso   1.00
H1400  H     0.37941   0.56303   0.86797   0.00000  Uiso   1.00
C1401  C     0.36602   0.62961   0.87330   0.00000  Uiso   1.00
H1402  H     0.34747   0.63013   0.84842   0.00000  Uiso   1.00
H1403  H     0.40561   0.63695   0.85381   0.00000  Uiso   1.00
H1404  H     0.34932   0.65391   0.90055   0.00000  Uiso   1.00
O1405  O     0.54587   0.37384   0.80125   0.00000  Uiso   1.00
C1406  C     0.59719   0.37902   0.77549   0.00000  Uiso   1.00
H1407  H     0.60769   0.40899   0.78703   0.00000  Uiso   1.00
H1408  H     0.60764   0.38184   0.73695   0.00000  Uiso   1.00
C1409  C     0.62685   0.34372   0.78564   0.00000  Uiso   1.00
H1410  H     0.61540   0.34030   0.82406   0.00000  Uiso   1.00
H1411  H     0.61992   0.64710   0.77132   0.00000  Uiso   1.00
C1412  C     0.34867   0.35271   0.76316   0.00000  Uiso   1.00
H1413  H     0.36078   0.35674   0.72475   0.00000  Uiso   1.00
H1414  H     0.36939   0.65942   0.76964   0.00000  Uiso   1.00
H1415  H     0.35743   0.38150   0.77831   0.00000  Uiso   1.00
O1416  O     0.45952   0.62564   0.69377   0.00000  Uiso   1.00
C1417  C     0.49663   0.61121   0.65144   0.00000  Uiso   1.00
H1418  H     0.48224   0.58292   0.64042   0.00000  Uiso   1.00
H1419  H     0.53125   0.60132   0.65510   0.00000  Uiso   1.00
C1420  C     0.50801   0.64439   0.61303   0.00000  Uiso   1.00
H1421  H     0.47338   0.65371   0.60940   0.00000  Uiso   1.00
H1422  H     0.52387   0.33920   0.62271   0.00000  Uiso   1.00
C1423  C     0.54460   0.62785   0.56615   0.00000  Uiso   1.00
H1424  H     0.57968   0.61864   0.56890   0.00000  Uiso   1.00
H1425  H     0.55250   0.65264   0.53914   0.00000  Uiso   1.00
H1426  H     0.52902   0.60037   0.55498   0.00000  Uiso   1.00
H1427  H     0.64658   0.45350   0.69738   0.00000  Uiso   1.00
H1428  H     0.35359   0.54682   0.80229   0.00000  Uiso   1.00
C1429  C     0.83347   0.57991   0.74948   0.00000  Uiso   1.00
C1430  C     0.83338   0.41998   0.75045   0.00000  Uiso   1.00
C1431  C     0.77673   0.48625   0.55210   0.00000  Uiso   1.00
C1432  C     0.88937   0.51544   0.94832   0.00000  Uiso   1.00
C1433  C     0.74282   0.47767   0.53224   0.00000  Uiso   1.00
C1434  C     0.92330   0.52387   0.96819   0.00000  Uiso   1.00
C1435  C     0.85612   0.64427   0.77455   0.00000  Uiso   1.00
C1436  C     0.81275   0.35540   0.72302   0.00000  Uiso   1.00
C1437  C     0.85853   0.35379   0.77388   0.00000  Uiso   1.00
C1438  C     0.81412   0.64579   0.72057   0.00000  Uiso   1.00
C1439  C     0.83464   0.37579   0.74955   0.00000  Uiso   1.00
C1440  C     0.83425   0.62395   0.74812   0.00000  Uiso   1.00
C1441  C     0.98829   0.47421   0.72069   0.00000  Uiso   1.00
C1442  C     0.67848   0.52598   0.77910   0.00000  Uiso   1.00
C1443  C     0.70283   0.47409   0.72083   0.00000  Uiso   1.00
C1444  C     0.96386   0.52595   0.77913   0.00000  Uiso   1.00
C1445  C     0.80241   0.50017   0.83809   0.00000  Uiso   1.00
C1446  C     0.86423   0.49989   0.66194   0.00000  Uiso   1.00
C1447  C     0.78277   0.49855   0.88891   0.00000  Uiso   1.00
C1448  C     0.88374   0.50200   0.61119   0.00000  Uiso   1.00
C1449  C     0.72282   0.47568   0.96335   0.00000  Uiso   1.00
C1450  C     0.94338   0.52561   0.53701   0.00000  Uiso   1.00
C1451  C     0.73661   0.48171   0.91546   0.00000  Uiso   1.00
C1452  C     0.92972   0.51921   0.58480   0.00000  Uiso   1.00
C1453  C     0.81420   0.51013   0.91026   0.00000  Uiso   1.00
C1454  C     0.85218   0.49078   0.58985   0.00000  Uiso   1.00
C1455  C     0.80390   0.49981   0.95674   0.00000  Uiso   1.00
C1456  C     0.86228   0.50160   0.54357   0.00000  Uiso   1.00
C1457  C     0.75626   0.48426   0.98434   0.00000  Uiso   1.00
C1458  C     0.90989   0.51717   0.51603   0.00000  Uiso   1.00
C1459  C     0.83986   0.50458   0.97607   0.00000  Uiso   1.00
C1460  C     0.82625   0.49707   0.52432   0.00000  Uiso   1.00
H1461  H     0.81924   0.47402   0.61067   0.00000  Uiso   1.00
H1462  H     0.84720   0.52670   0.88926   0.00000  Uiso   1.00
H1463  H     0.95449   0.52831   0.60116   0.00000  Uiso   1.00
H1464  H     0.71180   0.47257   0.89916   0.00000  Uiso   1.00
H1465  H     0.68671   0.46292   0.98346   0.00000  Uiso   1.00
H1466  H     0.97939   0.53859   0.51698   0.00000  Uiso   1.00
H1467  H     0.76257   0.48505   0.58972   0.00000  Uiso   1.00
H1468  H     0.90359   0.51669   0.91071   0.00000  Uiso   1.00
H1469  H     0.87065   0.62680   0.79625   0.00000  Uiso   1.00
H1470  H     0.79567   0.37281   0.70336   0.00000  Uiso   1.00
H1471  H     0.73067   0.45327   0.69757   0.00000  Uiso   1.00
H1472  H     0.93600   0.54673   0.80242   0.00000  Uiso   1.00
N1473  N     0.71426   0.50001   0.75001   0.00000  Uiso   1.00
N1474  N     0.95241   0.49999   0.74999   0.00000  Uiso   1.00
O1475  O     0.79512   0.56108   0.75001   0.00000  Uiso   1.00
O1476  O     0.87154   0.43892   0.75000   0.00000  Uiso   1.00
O1477  O     0.87157   0.56107   0.75000   0.00000  Uiso   1.00
O1478  O     0.79510   0.43893   0.75000   0.00000  Uiso   1.00
O1479  O     0.77328   0.50001   0.81613   0.00000  Uiso   1.00
O1480  O     0.89339   0.49999   0.68388   0.00000  Uiso   1.00
O1481  O     0.84972   0.50000   0.81612   0.00000  Uiso   1.00
O1482  O     0.81695   0.50000   0.68388   0.00000  Uiso   1.00
Zn1483 Zn    0.78229   0.50001   0.75000   0.00000  Uiso   1.00
Zn1484 Zn    0.88438   0.49999   0.75000   0.00000  Uiso   1.00
O1485  O     0.69462   0.46760   0.56047   0.00000  Uiso   1.00
C1486  C     0.69286   0.42674   0.57842   0.00000  Uiso   1.00
H1487  H     0.71152   0.42556   0.60333   0.00000  Uiso   1.00
H1488  H     0.71067   0.40385   0.54955   0.00000  Uiso   1.00
C1489  C     0.97229   0.41431   0.60462   0.00000  Uiso   1.00
H1490  H     0.95388   0.43728   0.63295   0.00000  Uiso   1.00
H1491  H     0.95318   0.41488   0.58014   0.00000  Uiso   1.00
C1492  C     0.96764   0.37074   0.62609   0.00000  Uiso   1.00
H1493  H     0.98354   0.34687   0.59818   0.00000  Uiso   1.00
H1494  H     0.92816   0.36343   0.64622   0.00000  Uiso   1.00
H1495  H     0.98707   0.36932   0.65025   0.00000  Uiso   1.00
O1496  O     0.97157   0.53362   0.93997   0.00000  Uiso   1.00
C1497  C     0.97366   0.57446   0.92194   0.00000  Uiso   1.00
H1498  H     0.95604   0.59746   0.95075   0.00000  Uiso   1.00
H1499  H     0.95504   0.57577   0.89701   0.00000  Uiso   1.00
C1500  C     0.69434   0.58648   0.89576   0.00000  Uiso   1.00
H1501  H     0.71320   0.58640   0.92046   0.00000  Uiso   1.00
H1502  H     0.71274   0.56303   0.86797   0.00000  Uiso   1.00
C1503  C     0.69936   0.62961   0.87330   0.00000  Uiso   1.00
H1504  H     0.68080   0.63013   0.84842   0.00000  Uiso   1.00
H1505  H     0.73894   0.63695   0.85381   0.00000  Uiso   1.00
H1506  H     0.68266   0.65391   0.90055   0.00000  Uiso   1.00
O1507  O     0.87920   0.37384   0.80125   0.00000  Uiso   1.00
C1508  C     0.93052   0.37902   0.77549   0.00000  Uiso   1.00
H1509  H     0.94103   0.40899   0.78703   0.00000  Uiso   1.00
H1510  H     0.94098   0.38184   0.73695   0.00000  Uiso   1.00
C1511  C     0.96018   0.34372   0.78564   0.00000  Uiso   1.00
H1512  H     0.94874   0.34030   0.82406   0.00000  Uiso   1.00
H1513  H     0.95325   0.64710   0.77132   0.00000  Uiso   1.00
C1514  C     0.68200   0.35271   0.76316   0.00000  Uiso   1.00
H1515  H     0.69412   0.35674   0.72475   0.00000  Uiso   1.00
H1516  H     0.70272   0.65942   0.76964   0.00000  Uiso   1.00
H1517  H     0.69076   0.38150   0.77831   0.00000  Uiso   1.00
O1518  O     0.79286   0.62564   0.69377   0.00000  Uiso   1.00
C1519  C     0.82997   0.61121   0.65144   0.00000  Uiso   1.00
H1520  H     0.81557   0.58292   0.64042   0.00000  Uiso   1.00
H1521  H     0.86458   0.60132   0.65510   0.00000  Uiso   1.00
C1522  C     0.84135   0.64439   0.61303   0.00000  Uiso   1.00
H1523  H     0.80672   0.65371   0.60940   0.00000  Uiso   1.00
H1524  H     0.85720   0.33920   0.62271   0.00000  Uiso   1.00
C1525  C     0.87793   0.62785   0.56615   0.00000  Uiso   1.00
H1526  H     0.91301   0.61864   0.56890   0.00000  Uiso   1.00
H1527  H     0.88584   0.65264   0.53914   0.00000  Uiso   1.00
H1528  H     0.86235   0.60037   0.55498   0.00000  Uiso   1.00
H1529  H     0.97992   0.45350   0.69738   0.00000  Uiso   1.00
H1530  H     0.68692   0.54682   0.80229   0.00000  Uiso   1.00
C1531  C     0.16681   0.91325   0.74948   0.00000  Uiso   1.00
C1532  C     0.16671   0.75332   0.75045   0.00000  Uiso   1.00
C1533  C     0.11007   0.81958   0.55210   0.00000  Uiso   1.00
C1534  C     0.22270   0.84877   0.94832   0.00000  Uiso   1.00
C1535  C     0.07615   0.81100   0.53224   0.00000  Uiso   1.00
C1536  C     0.25664   0.85720   0.96819   0.00000  Uiso   1.00
C1537  C     0.18945   0.97760   0.77455   0.00000  Uiso   1.00
C1538  C     0.14608   0.68874   0.72302   0.00000  Uiso   1.00
C1539  C     0.19187   0.68713   0.77388   0.00000  Uiso   1.00
C1540  C     0.14745   0.97912   0.72057   0.00000  Uiso   1.00
C1541  C     0.16798   0.70912   0.74955   0.00000  Uiso   1.00
C1542  C     0.16758   0.95728   0.74812   0.00000  Uiso   1.00
C1543  C     0.32162   0.80755   0.72069   0.00000  Uiso   1.00
C1544  C     0.01181   0.85932   0.77910   0.00000  Uiso   1.00
C1545  C     0.03616   0.80742   0.72083   0.00000  Uiso   1.00
C1546  C     0.29719   0.85928   0.77913   0.00000  Uiso   1.00
C1547  C     0.13574   0.83351   0.83809   0.00000  Uiso   1.00
C1548  C     0.19757   0.83323   0.66194   0.00000  Uiso   1.00
C1549  C     0.11610   0.83188   0.88891   0.00000  Uiso   1.00
C1550  C     0.21707   0.83534   0.61119   0.00000  Uiso   1.00
C1551  C     0.05615   0.80902   0.96335   0.00000  Uiso   1.00
C1552  C     0.27671   0.85895   0.53701   0.00000  Uiso   1.00
C1553  C     0.06994   0.81504   0.91546   0.00000  Uiso   1.00
C1554  C     0.26305   0.85255   0.58480   0.00000  Uiso   1.00
C1555  C     0.14753   0.84346   0.91026   0.00000  Uiso   1.00
C1556  C     0.18551   0.82411   0.58985   0.00000  Uiso   1.00
C1557  C     0.13723   0.83314   0.95674   0.00000  Uiso   1.00
C1558  C     0.19561   0.83493   0.54357   0.00000  Uiso   1.00
C1559  C     0.08960   0.81759   0.98434   0.00000  Uiso   1.00
C1560  C     0.24322   0.85050   0.51603   0.00000  Uiso   1.00
C1561  C     0.17319   0.83791   0.97607   0.00000  Uiso   1.00
C1562  C     0.15958   0.83040   0.52432   0.00000  Uiso   1.00
H1563  H     0.15257   0.80736   0.61067   0.00000  Uiso   1.00
H1564  H     0.18053   0.86004   0.88926   0.00000  Uiso   1.00
H1565  H     0.28782   0.86164   0.60116   0.00000  Uiso   1.00
H1566  H     0.04513   0.80590   0.89916   0.00000  Uiso   1.00
H1567  H     0.02004   0.79625   0.98346   0.00000  Uiso   1.00
H1568  H     0.31273   0.87192   0.51698   0.00000  Uiso   1.00
H1569  H     0.09590   0.81839   0.58972   0.00000  Uiso   1.00
H1570  H     0.23693   0.85002   0.91071   0.00000  Uiso   1.00
H1571  H     0.20398   0.96014   0.79625   0.00000  Uiso   1.00
H1572  H     0.12900   0.70615   0.70336   0.00000  Uiso   1.00
H1573  H     0.06400   0.78661   0.69757   0.00000  Uiso   1.00
H1574  H     0.26933   0.88007   0.80242   0.00000  Uiso   1.00
N1575  N     0.04759   0.83334   0.75001   0.00000  Uiso   1.00
N1576  N     0.28574   0.83332   0.74999   0.00000  Uiso   1.00
O1577  O     0.12846   0.89442   0.75001   0.00000  Uiso   1.00
O1578  O     0.20488   0.77225   0.75000   0.00000  Uiso   1.00
O1579  O     0.20490   0.89441   0.75000   0.00000  Uiso   1.00
O1580  O     0.12843   0.77226   0.75000   0.00000  Uiso   1.00
O1581  O     0.10661   0.83334   0.81613   0.00000  Uiso   1.00
O1582  O     0.22672   0.83333   0.68388   0.00000  Uiso   1.00
O1583  O     0.18305   0.83333   0.81612   0.00000  Uiso   1.00
O1584  O     0.15028   0.83334   0.68388   0.00000  Uiso   1.00
Zn1585 Zn    0.11562   0.83334   0.75000   0.00000  Uiso   1.00
Zn1586 Zn    0.21771   0.83333   0.75000   0.00000  Uiso   1.00
O1587  O     0.02795   0.80093   0.56047   0.00000  Uiso   1.00
C1588  C     0.02620   0.76007   0.57842   0.00000  Uiso   1.00
H1589  H     0.04485   0.75889   0.60333   0.00000  Uiso   1.00
H1590  H     0.04401   0.73718   0.54955   0.00000  Uiso   1.00
C1591  C     0.30563   0.74764   0.60462   0.00000  Uiso   1.00
H1592  H     0.28721   0.77061   0.63295   0.00000  Uiso   1.00
H1593  H     0.28652   0.74822   0.58014   0.00000  Uiso   1.00
C1594  C     0.30097   0.70407   0.62609   0.00000  Uiso   1.00
H1595  H     0.31687   0.68020   0.59818   0.00000  Uiso   1.00
H1596  H     0.26150   0.69677   0.64622   0.00000  Uiso   1.00
H1597  H     0.32040   0.70266   0.65025   0.00000  Uiso   1.00
O1598  O     0.30490   0.86696   0.93997   0.00000  Uiso   1.00
C1599  C     0.30699   0.90780   0.92194   0.00000  Uiso   1.00
H1600  H     0.28938   0.93080   0.95075   0.00000  Uiso   1.00
H1601  H     0.28838   0.90910   0.89701   0.00000  Uiso   1.00
C1602  C     0.02767   0.91981   0.89576   0.00000  Uiso   1.00
H1603  H     0.04653   0.91973   0.92046   0.00000  Uiso   1.00
H1604  H     0.04607   0.89636   0.86797   0.00000  Uiso   1.00
C1605  C     0.03269   0.96294   0.87330   0.00000  Uiso   1.00
H1606  H     0.01414   0.96346   0.84842   0.00000  Uiso   1.00
H1607  H     0.07228   0.97029   0.85381   0.00000  Uiso   1.00
H1608  H     0.01599   0.98724   0.90055   0.00000  Uiso   1.00
O1609  O     0.21254   0.70717   0.80125   0.00000  Uiso   1.00
C1610  C     0.26385   0.71236   0.77549   0.00000  Uiso   1.00
H1611  H     0.27436   0.74233   0.78703   0.00000  Uiso   1.00
H1612  H     0.27431   0.71517   0.73695   0.00000  Uiso   1.00
C1613  C     0.29352   0.67706   0.78564   0.00000  Uiso   1.00
H1614  H     0.28207   0.67364   0.82406   0.00000  Uiso   1.00
H1615  H     0.28659   0.98043   0.77132   0.00000  Uiso   1.00
C1616  C     0.01534   0.68604   0.76316   0.00000  Uiso   1.00
H1617  H     0.02745   0.69008   0.72475   0.00000  Uiso   1.00
H1618  H     0.03606   0.99275   0.76964   0.00000  Uiso   1.00
H1619  H     0.02410   0.71484   0.77831   0.00000  Uiso   1.00
O1620  O     0.12619   0.95897   0.69377   0.00000  Uiso   1.00
C1621  C     0.16330   0.94455   0.65144   0.00000  Uiso   1.00
H1622  H     0.14890   0.91625   0.64042   0.00000  Uiso   1.00
H1623  H     0.19791   0.93466   0.65510   0.00000  Uiso   1.00
C1624  C     0.17468   0.97772   0.61303   0.00000  Uiso   1.00
H1625  H     0.14005   0.98704   0.60940   0.00000  Uiso   1.00
H1626  H     0.19053   0.67253   0.62271   0.00000  Uiso   1.00
C1627  C     0.21127   0.96118   0.56615   0.00000  Uiso   1.00
H1628  H     0.24635   0.95198   0.56890   0.00000  Uiso   1.00
H1629  H     0.21917   0.98597   0.53914   0.00000  Uiso   1.00
H1630  H     0.19568   0.93370   0.55498   0.00000  Uiso   1.00
H1631  H     0.31325   0.78683   0.69738   0.00000  Uiso   1.00
H1632  H     0.02025   0.88015   0.80229   0.00000  Uiso   1.00
C1633  C     0.50014   0.91325   0.74948   0.00000  Uiso   1.00
C1634  C     0.50004   0.75332   0.75045   0.00000  Uiso   1.00
C1635  C     0.44340   0.81958   0.55210   0.00000  Uiso   1.00
C1636  C     0.55603   0.84877   0.94832   0.00000  Uiso   1.00
C1637  C     0.40948   0.81100   0.53224   0.00000  Uiso   1.00
C1638  C     0.58997   0.85720   0.96819   0.00000  Uiso   1.00
C1639  C     0.52279   0.97760   0.77455   0.00000  Uiso   1.00
C1640  C     0.47941   0.68874   0.72302   0.00000  Uiso   1.00
C1641  C     0.52520   0.68713   0.77388   0.00000  Uiso   1.00
C1642  C     0.48079   0.97912   0.72057   0.00000  Uiso   1.00
C1643  C     0.50131   0.70912   0.74955   0.00000  Uiso   1.00
C1644  C     0.50091   0.95728   0.74812   0.00000  Uiso   1.00
C1645  C     0.65495   0.80755   0.72069   0.00000  Uiso   1.00
C1646  C     0.34515   0.85932   0.77910   0.00000  Uiso   1.00
C1647  C     0.36949   0.80742   0.72083   0.00000  Uiso   1.00
C1648  C     0.63053   0.85928   0.77913   0.00000  Uiso   1.00
C1649  C     0.46908   0.83351   0.83809   0.00000  Uiso   1.00
C1650  C     0.53090   0.83323   0.66194   0.00000  Uiso   1.00
C1651  C     0.44943   0.83188   0.88891   0.00000  Uiso   1.00
C1652  C     0.55041   0.83534   0.61119   0.00000  Uiso   1.00
C1653  C     0.38948   0.80902   0.96335   0.00000  Uiso   1.00
C1654  C     0.61005   0.85895   0.53701   0.00000  Uiso   1.00
C1655  C     0.40327   0.81504   0.91546   0.00000  Uiso   1.00
C1656  C     0.59638   0.85255   0.58480   0.00000  Uiso   1.00
C1657  C     0.48086   0.84346   0.91026   0.00000  Uiso   1.00
C1658  C     0.51885   0.82411   0.58985   0.00000  Uiso   1.00
C1659  C     0.47057   0.83314   0.95674   0.00000  Uiso   1.00
C1660  C     0.52894   0.83493   0.54357   0.00000  Uiso   1.00
C1661  C     0.42293   0.81759   0.98434   0.00000  Uiso   1.00
C1662  C     0.57656   0.85050   0.51603   0.00000  Uiso   1.00
C1663  C     0.50652   0.83791   0.97607   0.00000  Uiso   1.00
C1664  C     0.49291   0.83040   0.52432   0.00000  Uiso   1.00
H1665  H     0.48591   0.80736   0.61067   0.00000  Uiso   1.00
H1666  H     0.51387   0.86004   0.88926   0.00000  Uiso   1.00
H1667  H     0.62115   0.86164   0.60116   0.00000  Uiso   1.00
H1668  H     0.37847   0.80590   0.89916   0.00000  Uiso   1.00
H1669  H     0.35338   0.79625   0.98346   0.00000  Uiso   1.00
H1670  H     0.64606   0.87192   0.51698   0.00000  Uiso   1.00
H1671  H     0.42923   0.81839   0.58972   0.00000  Uiso   1.00
H1672  H     0.57026   0.85002   0.91071   0.00000  Uiso   1.00
H1673  H     0.53731   0.96014   0.79625   0.00000  Uiso   1.00
H1674  H     0.46234   0.70615   0.70336   0.00000  Uiso   1.00
H1675  H     0.39733   0.78661   0.69757   0.00000  Uiso   1.00
H1676  H     0.60267   0.88007   0.80242   0.00000  Uiso   1.00
N1677  N     0.38093   0.83334   0.75001   0.00000  Uiso   1.00
N1678  N     0.61907   0.83332   0.74999   0.00000  Uiso   1.00
O1679  O     0.46179   0.89442   0.75001   0.00000  Uiso   1.00
O1680  O     0.53821   0.77225   0.75000   0.00000  Uiso   1.00
O1681  O     0.53823   0.89441   0.75000   0.00000  Uiso   1.00
O1682  O     0.46177   0.77226   0.75000   0.00000  Uiso   1.00
O1683  O     0.43994   0.83334   0.81613   0.00000  Uiso   1.00
O1684  O     0.56006   0.83333   0.68388   0.00000  Uiso   1.00
O1685  O     0.51639   0.83333   0.81612   0.00000  Uiso   1.00
O1686  O     0.48361   0.83334   0.68388   0.00000  Uiso   1.00
Zn1687 Zn    0.44896   0.83334   0.75000   0.00000  Uiso   1.00
Zn1688 Zn    0.55104   0.83333   0.75000   0.00000  Uiso   1.00
O1689  O     0.36128   0.80093   0.56047   0.00000  Uiso   1.00
C1690  C     0.35953   0.76007   0.57842   0.00000  Uiso   1.00
H1691  H     0.37818   0.75889   0.60333   0.00000  Uiso   1.00
H1692  H     0.37734   0.73718   0.54955   0.00000  Uiso   1.00
C1693  C     0.63896   0.74764   0.60462   0.00000  Uiso   1.00
H1694  H     0.62054   0.77061   0.63295   0.00000  Uiso   1.00
H1695  H     0.61985   0.74822   0.58014   0.00000  Uiso   1.00
C1696  C     0.63431   0.70407   0.62609   0.00000  Uiso   1.00
H1697  H     0.65020   0.68020   0.59818   0.00000  Uiso   1.00
H1698  H     0.59483   0.69677   0.64622   0.00000  Uiso   1.00
H1699  H     0.65373   0.70266   0.65025   0.00000  Uiso   1.00
O1700  O     0.63824   0.86696   0.93997   0.00000  Uiso   1.00
C1701  C     0.64033   0.90780   0.92194   0.00000  Uiso   1.00
H1702  H     0.62271   0.93080   0.95075   0.00000  Uiso   1.00
H1703  H     0.62171   0.90910   0.89701   0.00000  Uiso   1.00
C1704  C     0.36100   0.91981   0.89576   0.00000  Uiso   1.00
H1705  H     0.37987   0.91973   0.92046   0.00000  Uiso   1.00
H1706  H     0.37941   0.89636   0.86797   0.00000  Uiso   1.00
C1707  C     0.36602   0.96294   0.87330   0.00000  Uiso   1.00
H1708  H     0.34747   0.96346   0.84842   0.00000  Uiso   1.00
H1709  H     0.40561   0.97029   0.85381   0.00000  Uiso   1.00
H1710  H     0.34932   0.98724   0.90055   0.00000  Uiso   1.00
O1711  O     0.54587   0.70717   0.80125   0.00000  Uiso   1.00
C1712  C     0.59719   0.71236   0.77549   0.00000  Uiso   1.00
H1713  H     0.60769   0.74233   0.78703   0.00000  Uiso   1.00
H1714  H     0.60764   0.71517   0.73695   0.00000  Uiso   1.00
C1715  C     0.62685   0.67706   0.78564   0.00000  Uiso   1.00
H1716  H     0.61540   0.67364   0.82406   0.00000  Uiso   1.00
H1717  H     0.61992   0.98043   0.77132   0.00000  Uiso   1.00
C1718  C     0.34867   0.68604   0.76316   0.00000  Uiso   1.00
H1719  H     0.36078   0.69008   0.72475   0.00000  Uiso   1.00
H1720  H     0.36939   0.99275   0.76964   0.00000  Uiso   1.00
H1721  H     0.35743   0.71484   0.77831   0.00000  Uiso   1.00
O1722  O     0.45952   0.95897   0.69377   0.00000  Uiso   1.00
C1723  C     0.49663   0.94455   0.65144   0.00000  Uiso   1.00
H1724  H     0.48224   0.91625   0.64042   0.00000  Uiso   1.00
H1725  H     0.53125   0.93466   0.65510   0.00000  Uiso   1.00
C1726  C     0.50801   0.97772   0.61303   0.00000  Uiso   1.00
H1727  H     0.47338   0.98704   0.60940   0.00000  Uiso   1.00
H1728  H     0.52387   0.67253   0.62271   0.00000  Uiso   1.00
C1729  C     0.54460   0.96118   0.56615   0.00000  Uiso   1.00
H1730  H     0.57968   0.95198   0.56890   0.00000  Uiso   1.00
H1731  H     0.55250   0.98597   0.53914   0.00000  Uiso   1.00
H1732  H     0.52902   0.93370   0.55498   0.00000  Uiso   1.00
H1733  H     0.64658   0.78683   0.69738   0.00000  Uiso   1.00
H1734  H     0.35359   0.88015   0.80229   0.00000  Uiso   1.00
C1735  C     0.83347   0.91325   0.74948   0.00000  Uiso   1.00
C1736  C     0.83338   0.75332   0.75045   0.00000  Uiso   1.00
C1737  C     0.77673   0.81958   0.55210   0.00000  Uiso   1.00
C1738  C     0.88937   0.84877   0.94832   0.00000  Uiso   1.00
C1739  C     0.74282   0.81100   0.53224   0.00000  Uiso   1.00
C1740  C     0.92330   0.85720   0.96819   0.00000  Uiso   1.00
C1741  C     0.85612   0.97760   0.77455   0.00000  Uiso   1.00
C1742  C     0.81275   0.68874   0.72302   0.00000  Uiso   1.00
C1743  C     0.85853   0.68713   0.77388   0.00000  Uiso   1.00
C1744  C     0.81412   0.97912   0.72057   0.00000  Uiso   1.00
C1745  C     0.83464   0.70912   0.74955   0.00000  Uiso   1.00
C1746  C     0.83425   0.95728   0.74812   0.00000  Uiso   1.00
C1747  C     0.98829   0.80755   0.72069   0.00000  Uiso   1.00
C1748  C     0.67848   0.85932   0.77910   0.00000  Uiso   1.00
C1749  C     0.70283   0.80742   0.72083   0.00000  Uiso   1.00
C1750  C     0.96386   0.85928   0.77913   0.00000  Uiso   1.00
C1751  C     0.80241   0.83351   0.83809   0.00000  Uiso   1.00
C1752  C     0.86423   0.83323   0.66194   0.00000  Uiso   1.00
C1753  C     0.78277   0.83188   0.88891   0.00000  Uiso   1.00
C1754  C     0.88374   0.83534   0.61119   0.00000  Uiso   1.00
C1755  C     0.72282   0.80902   0.96335   0.00000  Uiso   1.00
C1756  C     0.94338   0.85895   0.53701   0.00000  Uiso   1.00
C1757  C     0.73661   0.81504   0.91546   0.00000  Uiso   1.00
C1758  C     0.92972   0.85255   0.58480   0.00000  Uiso   1.00
C1759  C     0.81420   0.84346   0.91026   0.00000  Uiso   1.00
C1760  C     0.85218   0.82411   0.58985   0.00000  Uiso   1.00
C1761  C     0.80390   0.83314   0.95674   0.00000  Uiso   1.00
C1762  C     0.86228   0.83493   0.54357   0.00000  Uiso   1.00
C1763  C     0.75626   0.81759   0.98434   0.00000  Uiso   1.00
C1764  C     0.90989   0.85050   0.51603   0.00000  Uiso   1.00
C1765  C     0.83986   0.83791   0.97607   0.00000  Uiso   1.00
C1766  C     0.82625   0.83040   0.52432   0.00000  Uiso   1.00
H1767  H     0.81924   0.80736   0.61067   0.00000  Uiso   1.00
H1768  H     0.84720   0.86004   0.88926   0.00000  Uiso   1.00
H1769  H     0.95449   0.86164   0.60116   0.00000  Uiso   1.00
H1770  H     0.71180   0.80590   0.89916   0.00000  Uiso   1.00
H1771  H     0.68671   0.79625   0.98346   0.00000  Uiso   1.00
H1772  H     0.97939   0.87192   0.51698   0.00000  Uiso   1.00
H1773  H     0.76257   0.81839   0.58972   0.00000  Uiso   1.00
H1774  H     0.90359   0.85002   0.91071   0.00000  Uiso   1.00
H1775  H     0.87065   0.96014   0.79625   0.00000  Uiso   1.00
H1776  H     0.79567   0.70615   0.70336   0.00000  Uiso   1.00
H1777  H     0.73067   0.78661   0.69757   0.00000  Uiso   1.00
H1778  H     0.93600   0.88007   0.80242   0.00000  Uiso   1.00
N1779  N     0.71426   0.83334   0.75001   0.00000  Uiso   1.00
N1780  N     0.95241   0.83332   0.74999   0.00000  Uiso   1.00
O1781  O     0.79512   0.89442   0.75001   0.00000  Uiso   1.00
O1782  O     0.87154   0.77225   0.75000   0.00000  Uiso   1.00
O1783  O     0.87157   0.89441   0.75000   0.00000  Uiso   1.00
O1784  O     0.79510   0.77226   0.75000   0.00000  Uiso   1.00
O1785  O     0.77328   0.83334   0.81613   0.00000  Uiso   1.00
O1786  O     0.89339   0.83333   0.68388   0.00000  Uiso   1.00
O1787  O     0.84972   0.83333   0.81612   0.00000  Uiso   1.00
O1788  O     0.81695   0.83334   0.68388   0.00000  Uiso   1.00
Zn1789 Zn    0.78229   0.83334   0.75000   0.00000  Uiso   1.00
Zn1790 Zn    0.88438   0.83333   0.75000   0.00000  Uiso   1.00
O1791  O     0.69462   0.80093   0.56047   0.00000  Uiso   1.00
C1792  C     0.69286   0.76007   0.57842   0.00000  Uiso   1.00
H1793  H     0.71152   0.75889   0.60333   0.00000  Uiso   1.00
H1794  H     0.71067   0.73718   0.54955   0.00000  Uiso   1.00
C1795  C     0.97229   0.74764   0.60462   0.00000  Uiso   1.00
H1796  H     0.95388   0.77061   0.63295   0.00000  Uiso   1.00
H1797  H     0.95318   0.74822   0.58014   0.00000  Uiso   1.00
C1798  C     0.96764   0.70407   0.62609   0.00000  Uiso   1.00
H1799  H     0.98354   0.68020   0.59818   0.00000  Uiso   1.00
H1800  H     0.92816   0.69677   0.64622   0.00000  Uiso   1.00
H1801  H     0.98707   0.70266   0.65025   0.00000  Uiso   1.00
O1802  O     0.97157   0.86696   0.93997   0.00000  Uiso   1.00
C1803  C     0.97366   0.90780   0.92194   0.00000  Uiso   1.00
H1804  H     0.95604   0.93080   0.95075   0.00000  Uiso   1.00
H1805  H     0.95504   0.90910   0.89701   0.00000  Uiso   1.00
C1806  C     0.69434   0.91981   0.89576   0.00000  Uiso   1.00
H1807  H     0.71320   0.91973   0.92046   0.00000  Uiso   1.00
H1808  H     0.71274   0.89636   0.86797   0.00000  Uiso   1.00
C1809  C     0.69936   0.96294   0.87330   0.00000  Uiso   1.00
H1810  H     0.68080   0.96346   0.84842   0.00000  Uiso   1.00
H1811  H     0.73894   0.97029   0.85381   0.00000  Uiso   1.00
H1812  H     0.68266   0.98724   0.90055   0.00000  Uiso   1.00
O1813  O     0.87920   0.70717   0.80125   0.00000  Uiso   1.00
C1814  C     0.93052   0.71236   0.77549   0.00000  Uiso   1.00
H1815  H     0.94103   0.74233   0.78703   0.00000  Uiso   1.00
H1816  H     0.94098   0.71517   0.73695   0.00000  Uiso   1.00
C1817  C     0.96018   0.67706   0.78564   0.00000  Uiso   1.00
H1818  H     0.94874   0.67364   0.82406   0.00000  Uiso   1.00
H1819  H     0.95325   0.98043   0.77132   0.00000  Uiso   1.00
C1820  C     0.68200   0.68604   0.76316   0.00000  Uiso   1.00
H1821  H     0.69412   0.69008   0.72475   0.00000  Uiso   1.00
H1822  H     0.70272   0.99275   0.76964   0.00000  Uiso   1.00
H1823  H     0.69076   0.71484   0.77831   0.00000  Uiso   1.00
O1824  O     0.79286   0.95897   0.69377   0.00000  Uiso   1.00
C1825  C     0.82997   0.94455   0.65144   0.00000  Uiso   1.00
H1826  H     0.81557   0.91625   0.64042   0.00000  Uiso   1.00
H1827  H     0.86458   0.93466   0.65510   0.00000  Uiso   1.00
C1828  C     0.84135   0.97772   0.61303   0.00000  Uiso   1.00
H1829  H     0.80672   0.98704   0.60940   0.00000  Uiso   1.00
H1830  H     0.85720   0.67253   0.62271   0.00000  Uiso   1.00
C1831  C     0.87793   0.96118   0.56615   0.00000  Uiso   1.00
H1832  H     0.91301   0.95198   0.56890   0.00000  Uiso   1.00
H1833  H     0.88584   0.98597   0.53914   0.00000  Uiso   1.00
H1834  H     0.86235   0.93370   0.55498   0.00000  Uiso   1.00
H1835  H     0.97992   0.78683   0.69738   0.00000  Uiso   1.00
H1836  H     0.68692   0.88015   0.80229   0.00000  Uiso   1.00
loop_
_geom_bond_atom_site_label_1
_geom_bond_atom_site_label_2
_geom_bond_distance
_geom_bond_site_symmetry_2
_ccdc_geom_bond_type
C1     C12     1.408   .     S
C1     O47     1.279   .     A
C1     O49     1.280   .     A
C2     O50     1.285   .     A
C2     C11     1.413   .     S
C2     O48     1.277   .     A
C3     H39     1.077   .     S
C3     C32     1.419   .     A
C3     C5      1.396   .     A
C4     H40     1.077   .     S
C4     C6      1.396   .     A
C4     C31     1.419   .     A
C5     O57     1.386   .     S
C5     C947    1.398   1_554 S
C6     O68     1.385   .     S
C6     C948    1.397   .     S
C7     C12     1.392   .     A
C7     H41     1.084   .     S
C7     C315    1.372   .     S
C8     H42     1.085   .     S
C8     C11     1.396   .     A
C8     C622    1.374   1_545 S
C9     O79     1.386   .     S
C9     C11     1.407   .     A
C9     C619    1.372   1_545 S
C10    O90     1.385   .     S
C10    C12     1.403   .     A
C10    C314    1.374   .     S
C13    N46     1.366   .     A
C13    H101    1.081   .     S
C13    C117    1.416   .     S
C14    H102    1.081   .     S
C14    N45     1.366   .     A
C14    C220    1.416   1_455 S
C15    N45     1.367   .     A
C15    H43     1.082   .     S
C15    C217    1.416   1_455 S
C16    H44     1.082   .     S
C16    N46     1.367   .     A
C16    C116    1.416   .     S
C17    O51     1.292   .     A
C17    O53     1.292   .     A
C17    C19     1.454   .     S
C18    O52     1.292   .     A
C18    C20     1.453   .     S
C18    O54     1.291   .     A
C19    C23     1.396   .     A
C19    C25     1.388   .     A
C20    C24     1.396   .     A
C20    C26     1.388   .     A
C21    C29     1.410   .     A
C21    C23     1.394   .     A
C21    H37     1.083   .     S
C22    C24     1.393   .     A
C22    H38     1.083   .     S
C22    C30     1.409   .     A
C23    H36     1.083   .     S
C24    H35     1.083   .     S
C25    H34     1.077   .     S
C25    C27     1.394   .     A
C26    H33     1.077   .     S
C26    C28     1.393   .     A
C27    C29     1.420   .     A
C27    C31     1.420   .     A
C28    C32     1.419   .     A
C28    C30     1.420   .     A
C29    C923    1.398   .     S
C30    C924    1.397   1_554 S
C31    C950    1.412   .     S
C32    C949    1.412   1_554 S
N45    Zn55    2.009   .     S
N46    Zn56    2.009   .     S
O47    Zn55    1.990   .     S
O48    Zn56    1.990   .     S
O49    Zn56    1.987   .     S
O50    Zn55    1.987   .     S
O51    Zn55    1.966   .     S
O52    Zn56    1.966   .     S
O53    Zn56    1.902   .     S
O54    Zn55    1.902   .     S
O57    C58     1.413   .     S
C58    H60     1.116   .     S
C58    H59     1.114   .     S
C58    C265    1.530   1_455 S
C61    H63     1.112   .     S
C61    H62     1.110   .     S
C61    C64     1.526   .     S
C61    C160    1.530   .     S
C64    H67     1.111   .     S
C64    H66     1.111   .     S
C64    H65     1.111   .     S
O68    C69     1.412   .     S
C69    H71     1.114   .     S
C69    H70     1.116   .     S
C69    C174    1.529   .     S
C72    C75     1.526   .     S
C72    H74     1.110   .     S
C72    H73     1.112   .     S
C72    C273    1.529   1_455 S
C75    H76     1.110   .     S
C75    H77     1.111   .     S
C75    H78     1.111   .     S
O79    C80     1.419   .     S
C80    C83     1.532   .     S
C80    H81     1.111   .     S
C80    H82     1.117   .     S
C83    H84     1.111   .     S
C83    H697    1.110   1_545 S
C83    C188    1.527   .     S
H85    C389    1.110   .     S
C86    H87     1.111   .     S
C86    H89     1.111   .     S
C86    C287    1.527   1_455 S
C86    H700    1.110   1_545 S
H88    C392    1.110   .     S
O90    C91     1.417   .     S
C91    H92     1.111   .     S
C91    H93     1.116   .     S
C91    C94     1.532   .     S
C94    C97     1.526   .     S
C94    H95     1.112   .     S
C94    H402    1.111   .     S
H96    C706    1.111   1_545 S
C97    H98     1.111   .     S
C97    H99     1.110   .     S
C97    H100    1.111   .     S
C103   C114    1.408   .     S
C103   O149    1.279   .     A
C103   O151    1.280   .     A
C104   O152    1.285   .     A
C104   C113    1.413   .     S
C104   O150    1.277   .     A
C105   H141    1.077   .     S
C105   C134    1.419   .     A
C105   C107    1.396   .     A
C106   H142    1.077   .     S
C106   C108    1.396   .     A
C106   C133    1.419   .     A
C107   O159    1.386   .     S
C107   C1049   1.398   1_554 S
C108   O170    1.385   .     S
C108   C1050   1.397   .     S
C109   C114    1.392   .     A
C109   H143    1.084   .     S
C109   C417    1.372   .     S
C110   H144    1.085   .     S
C110   C113    1.396   .     A
C110   C724    1.374   1_545 S
C111   O181    1.386   .     S
C111   C113    1.407   .     A
C111   C721    1.372   1_545 S
C112   O192    1.385   .     S
C112   C114    1.403   .     A
C112   C416    1.374   .     S
C115   N148    1.366   .     A
C115   H203    1.081   .     S
C115   C219    1.416   .     S
C116   H204    1.081   .     S
C116   N147    1.366   .     A
C117   N147    1.367   .     A
C117   H145    1.082   .     S
C118   H146    1.082   .     S
C118   N148    1.367   .     A
C118   C218    1.416   .     S
C119   O153    1.292   .     A
C119   O155    1.292   .     A
C119   C121    1.454   .     S
C120   O154    1.292   .     A
C120   C122    1.453   .     S
C120   O156    1.291   .     A
C121   C125    1.396   .     A
C121   C127    1.388   .     A
C122   C126    1.396   .     A
C122   C128    1.388   .     A
C123   C131    1.410   .     A
C123   C125    1.394   .     A
C123   H139    1.083   .     S
C124   C126    1.393   .     A
C124   H140    1.083   .     S
C124   C132    1.409   .     A
C125   H138    1.083   .     S
C126   H137    1.083   .     S
C127   H136    1.077   .     S
C127   C129    1.394   .     A
C128   H135    1.077   .     S
C128   C130    1.393   .     A
C129   C131    1.420   .     A
C129   C133    1.420   .     A
C130   C134    1.419   .     A
C130   C132    1.420   .     A
C131   C1025   1.398   .     S
C132   C1026   1.397   1_554 S
C133   C1052   1.412   .     S
C134   C1051   1.412   1_554 S
N147   Zn157   2.009   .     S
N148   Zn158   2.009   .     S
O149   Zn157   1.990   .     S
O150   Zn158   1.990   .     S
O151   Zn158   1.987   .     S
O152   Zn157   1.987   .     S
O153   Zn157   1.966   .     S
O154   Zn158   1.966   .     S
O155   Zn158   1.902   .     S
O156   Zn157   1.902   .     S
O159   C160    1.413   .     S
C160   H162    1.116   .     S
C160   H161    1.114   .     S
C163   H165    1.112   .     S
C163   H164    1.110   .     S
C163   C166    1.526   .     S
C163   C262    1.530   .     S
C166   H169    1.111   .     S
C166   H168    1.111   .     S
C166   H167    1.111   .     S
O170   C171    1.412   .     S
C171   H173    1.114   .     S
C171   H172    1.116   .     S
C171   C276    1.529   .     S
C174   C177    1.526   .     S
C174   H176    1.110   .     S
C174   H175    1.112   .     S
C177   H178    1.110   .     S
C177   H179    1.111   .     S
C177   H180    1.111   .     S
O181   C182    1.419   .     S
C182   C185    1.532   .     S
C182   H183    1.111   .     S
C182   H184    1.117   .     S
C185   H186    1.111   .     S
C185   H799    1.110   1_545 S
C185   C290    1.527   .     S
H187   C491    1.110   .     S
C188   H189    1.111   .     S
C188   H191    1.111   .     S
C188   H802    1.110   1_545 S
H190   C494    1.110   .     S
O192   C193    1.417   .     S
C193   H194    1.111   .     S
C193   H195    1.116   .     S
C193   C196    1.532   .     S
C196   C199    1.526   .     S
C196   H197    1.112   .     S
C196   H504    1.111   .     S
H198   C808    1.111   1_545 S
C199   H200    1.111   .     S
C199   H201    1.110   .     S
C199   H202    1.111   .     S
C205   C216    1.408   .     S
C205   O251    1.279   .     A
C205   O253    1.280   .     A
C206   O254    1.285   .     A
C206   C215    1.413   .     S
C206   O252    1.277   .     A
C207   H243    1.077   .     S
C207   C236    1.419   .     A
C207   C209    1.396   .     A
C208   H244    1.077   .     S
C208   C210    1.396   .     A
C208   C235    1.419   .     A
C209   O261    1.386   .     S
C209   C1151   1.398   1_554 S
C210   O272    1.385   .     S
C210   C1152   1.397   .     S
C211   C216    1.392   .     A
C211   H245    1.084   .     S
C211   C519    1.372   .     S
C212   H246    1.085   .     S
C212   C215    1.396   .     A
C212   C826    1.374   1_545 S
C213   O283    1.386   .     S
C213   C215    1.407   .     A
C213   C823    1.372   1_545 S
C214   O294    1.385   .     S
C214   C216    1.403   .     A
C214   C518    1.374   .     S
C217   N250    1.366   .     A
C217   H305    1.081   .     S
C217   C15     1.416   1_655 S
C218   H306    1.081   .     S
C218   N249    1.366   .     A
C219   N249    1.367   .     A
C219   H247    1.082   .     S
C220   H248    1.082   .     S
C220   N250    1.367   .     A
C220   C14     1.416   1_655 S
C221   O255    1.292   .     A
C221   O257    1.292   .     A
C221   C223    1.454   .     S
C222   O256    1.292   .     A
C222   C224    1.453   .     S
C222   O258    1.291   .     A
C223   C227    1.396   .     A
C223   C229    1.388   .     A
C224   C228    1.396   .     A
C224   C230    1.388   .     A
C225   C233    1.410   .     A
C225   C227    1.394   .     A
C225   H241    1.083   .     S
C226   C228    1.393   .     A
C226   H242    1.083   .     S
C226   C234    1.409   .     A
C227   H240    1.083   .     S
C228   H239    1.083   .     S
C229   H238    1.077   .     S
C229   C231    1.394   .     A
C230   H237    1.077   .     S
C230   C232    1.393   .     A
C231   C233    1.420   .     A
C231   C235    1.420   .     A
C232   C236    1.419   .     A
C232   C234    1.420   .     A
C233   C1127   1.398   .     S
C234   C1128   1.397   1_554 S
C235   C1154   1.412   .     S
C236   C1153   1.412   1_554 S
N249   Zn259   2.009   .     S
N250   Zn260   2.009   .     S
O251   Zn259   1.990   .     S
O252   Zn260   1.990   .     S
O253   Zn260   1.987   .     S
O254   Zn259   1.987   .     S
O255   Zn259   1.966   .     S
O256   Zn260   1.966   .     S
O257   Zn260   1.902   .     S
O258   Zn259   1.902   .     S
O261   C262    1.413   .     S
C262   H264    1.116   .     S
C262   H263    1.114   .     S
C265   H267    1.112   .     S
C265   H266    1.110   .     S
C265   C268    1.526   .     S
C265   C58     1.530   1_655 S
C268   H271    1.111   .     S
C268   H270    1.111   .     S
C268   H269    1.111   .     S
O272   C273    1.412   .     S
C273   H275    1.114   .     S
C273   H274    1.116   .     S
C273   C72     1.529   1_655 S
C276   C279    1.526   .     S
C276   H278    1.110   .     S
C276   H277    1.112   .     S
C279   H280    1.110   .     S
C279   H281    1.111   .     S
C279   H282    1.111   .     S
O283   C284    1.419   .     S
C284   C287    1.532   .     S
C284   H285    1.111   .     S
C284   H286    1.117   .     S
C287   H288    1.111   .     S
C287   H901    1.110   1_545 S
C287   C86     1.527   1_655 S
H289   C593    1.110   .     S
C290   H291    1.111   .     S
C290   H293    1.111   .     S
C290   H904    1.110   1_545 S
H292   C596    1.110   .     S
O294   C295    1.417   .     S
C295   H296    1.111   .     S
C295   H297    1.116   .     S
C295   C298    1.532   .     S
C298   C301    1.526   .     S
C298   H299    1.112   .     S
C298   H606    1.111   .     S
H300   C910    1.111   1_545 S
C301   H302    1.111   .     S
C301   H303    1.110   .     S
C301   H304    1.111   .     S
C307   C318    1.408   .     S
C307   O353    1.279   .     A
C307   O355    1.280   .     A
C308   O356    1.285   .     A
C308   C317    1.413   .     S
C308   O354    1.277   .     A
C309   H345    1.077   .     S
C309   C338    1.419   .     A
C309   C311    1.396   .     A
C310   H346    1.077   .     S
C310   C312    1.396   .     A
C310   C337    1.419   .     A
C311   O363    1.386   .     S
C311   C1253   1.398   1_554 S
C312   O374    1.385   .     S
C312   C1254   1.397   .     S
C313   C318    1.392   .     A
C313   H347    1.084   .     S
C313   C621    1.372   .     S
C314   H348    1.085   .     S
C314   C317    1.396   .     A
C315   O385    1.386   .     S
C315   C317    1.407   .     A
C316   O396    1.385   .     S
C316   C318    1.403   .     A
C316   C620    1.374   .     S
C319   N352    1.366   .     A
C319   H407    1.081   .     S
C319   C423    1.416   .     S
C320   H408    1.081   .     S
C320   N351    1.366   .     A
C320   C526    1.416   1_455 S
C321   N351    1.367   .     A
C321   H349    1.082   .     S
C321   C523    1.416   1_455 S
C322   H350    1.082   .     S
C322   N352    1.367   .     A
C322   C422    1.416   .     S
C323   O357    1.292   .     A
C323   O359    1.292   .     A
C323   C325    1.454   .     S
C324   O358    1.292   .     A
C324   C326    1.453   .     S
C324   O360    1.291   .     A
C325   C329    1.396   .     A
C325   C331    1.388   .     A
C326   C330    1.396   .     A
C326   C332    1.388   .     A
C327   C335    1.410   .     A
C327   C329    1.394   .     A
C327   H343    1.083   .     S
C328   C330    1.393   .     A
C328   H344    1.083   .     S
C328   C336    1.409   .     A
C329   H342    1.083   .     S
C330   H341    1.083   .     S
C331   H340    1.077   .     S
C331   C333    1.394   .     A
C332   H339    1.077   .     S
C332   C334    1.393   .     A
C333   C335    1.420   .     A
C333   C337    1.420   .     A
C334   C338    1.419   .     A
C334   C336    1.420   .     A
C335   C1229   1.398   .     S
C336   C1230   1.397   1_554 S
C337   C1256   1.412   .     S
C338   C1255   1.412   1_554 S
N351   Zn361   2.009   .     S
N352   Zn362   2.009   .     S
O353   Zn361   1.990   .     S
O354   Zn362   1.990   .     S
O355   Zn362   1.987   .     S
O356   Zn361   1.987   .     S
O357   Zn361   1.966   .     S
O358   Zn362   1.966   .     S
O359   Zn362   1.902   .     S
O360   Zn361   1.902   .     S
O363   C364    1.413   .     S
C364   H366    1.116   .     S
C364   H365    1.114   .     S
C364   C571    1.530   1_455 S
C367   H369    1.112   .     S
C367   H368    1.110   .     S
C367   C370    1.526   .     S
C367   C466    1.530   .     S
C370   H373    1.111   .     S
C370   H372    1.111   .     S
C370   H371    1.111   .     S
O374   C375    1.412   .     S
C375   H377    1.114   .     S
C375   H376    1.116   .     S
C375   C480    1.529   .     S
C378   C381    1.526   .     S
C378   H380    1.110   .     S
C378   H379    1.112   .     S
C378   C579    1.529   1_455 S
C381   H382    1.110   .     S
C381   H383    1.111   .     S
C381   H384    1.111   .     S
O385   C386    1.419   .     S
C386   C389    1.532   .     S
C386   H387    1.111   .     S
C386   H388    1.117   .     S
C389   H390    1.111   .     S
C389   C494    1.527   .     S
H391   C695    1.110   .     S
C392   H393    1.111   .     S
C392   H395    1.111   .     S
C392   C593    1.527   1_455 S
H394   C698    1.110   .     S
O396   C397    1.417   .     S
C397   H398    1.111   .     S
C397   H399    1.116   .     S
C397   C400    1.532   .     S
C400   C403    1.526   .     S
C400   H401    1.112   .     S
C400   H708    1.111   .     S
C403   H404    1.111   .     S
C403   H405    1.110   .     S
C403   H406    1.111   .     S
C409   C420    1.408   .     S
C409   O455    1.279   .     A
C409   O457    1.280   .     A
C410   O458    1.285   .     A
C410   C419    1.413   .     S
C410   O456    1.277   .     A
C411   H447    1.077   .     S
C411   C440    1.419   .     A
C411   C413    1.396   .     A
C412   H448    1.077   .     S
C412   C414    1.396   .     A
C412   C439    1.419   .     A
C413   O465    1.386   .     S
C413   C1355   1.398   1_554 S
C414   O476    1.385   .     S
C414   C1356   1.397   .     S
C415   C420    1.392   .     A
C415   H449    1.084   .     S
C415   C723    1.372   .     S
C416   H450    1.085   .     S
C416   C419    1.396   .     A
C417   O487    1.386   .     S
C417   C419    1.407   .     A
C418   O498    1.385   .     S
C418   C420    1.403   .     A
C418   C722    1.374   .     S
C421   N454    1.366   .     A
C421   H509    1.081   .     S
C421   C525    1.416   .     S
C422   H510    1.081   .     S
C422   N453    1.366   .     A
C423   N453    1.367   .     A
C423   H451    1.082   .     S
C424   H452    1.082   .     S
C424   N454    1.367   .     A
C424   C524    1.416   .     S
C425   O459    1.292   .     A
C425   O461    1.292   .     A
C425   C427    1.454   .     S
C426   O460    1.292   .     A
C426   C428    1.453   .     S
C426   O462    1.291   .     A
C427   C431    1.396   .     A
C427   C433    1.388   .     A
C428   C432    1.396   .     A
C428   C434    1.388   .     A
C429   C437    1.410   .     A
C429   C431    1.394   .     A
C429   H445    1.083   .     S
C430   C432    1.393   .     A
C430   H446    1.083   .     S
C430   C438    1.409   .     A
C431   H444    1.083   .     S
C432   H443    1.083   .     S
C433   H442    1.077   .     S
C433   C435    1.394   .     A
C434   H441    1.077   .     S
C434   C436    1.393   .     A
C435   C437    1.420   .     A
C435   C439    1.420   .     A
C436   C440    1.419   .     A
C436   C438    1.420   .     A
C437   C1331   1.398   .     S
C438   C1332   1.397   1_554 S
C439   C1358   1.412   .     S
C440   C1357   1.412   1_554 S
N453   Zn463   2.009   .     S
N454   Zn464   2.009   .     S
O455   Zn463   1.990   .     S
O456   Zn464   1.990   .     S
O457   Zn464   1.987   .     S
O458   Zn463   1.987   .     S
O459   Zn463   1.966   .     S
O460   Zn464   1.966   .     S
O461   Zn464   1.902   .     S
O462   Zn463   1.902   .     S
O465   C466    1.413   .     S
C466   H468    1.116   .     S
C466   H467    1.114   .     S
C469   H471    1.112   .     S
C469   H470    1.110   .     S
C469   C472    1.526   .     S
C469   C568    1.530   .     S
C472   H475    1.111   .     S
C472   H474    1.111   .     S
C472   H473    1.111   .     S
O476   C477    1.412   .     S
C477   H479    1.114   .     S
C477   H478    1.116   .     S
C477   C582    1.529   .     S
C480   C483    1.526   .     S
C480   H482    1.110   .     S
C480   H481    1.112   .     S
C483   H484    1.110   .     S
C483   H485    1.111   .     S
C483   H486    1.111   .     S
O487   C488    1.419   .     S
C488   C491    1.532   .     S
C488   H489    1.111   .     S
C488   H490    1.117   .     S
C491   H492    1.111   .     S
C491   C596    1.527   .     S
H493   C797    1.110   .     S
C494   H495    1.111   .     S
C494   H497    1.111   .     S
H496   C800    1.110   .     S
O498   C499    1.417   .     S
C499   H500    1.111   .     S
C499   H501    1.116   .     S
C499   C502    1.532   .     S
C502   C505    1.526   .     S
C502   H503    1.112   .     S
C502   H810    1.111   .     S
C505   H506    1.111   .     S
C505   H507    1.110   .     S
C505   H508    1.111   .     S
C511   C522    1.408   .     S
C511   O557    1.279   .     A
C511   O559    1.280   .     A
C512   O560    1.285   .     A
C512   C521    1.413   .     S
C512   O558    1.277   .     A
C513   H549    1.077   .     S
C513   C542    1.419   .     A
C513   C515    1.396   .     A
C514   H550    1.077   .     S
C514   C516    1.396   .     A
C514   C541    1.419   .     A
C515   O567    1.386   .     S
C515   C1457   1.398   1_554 S
C516   O578    1.385   .     S
C516   C1458   1.397   .     S
C517   C522    1.392   .     A
C517   H551    1.084   .     S
C517   C825    1.372   .     S
C518   H552    1.085   .     S
C518   C521    1.396   .     A
C519   O589    1.386   .     S
C519   C521    1.407   .     A
C520   O600    1.385   .     S
C520   C522    1.403   .     A
C520   C824    1.374   .     S
C523   N556    1.366   .     A
C523   H611    1.081   .     S
C523   C321    1.416   1_655 S
C524   H612    1.081   .     S
C524   N555    1.366   .     A
C525   N555    1.367   .     A
C525   H553    1.082   .     S
C526   H554    1.082   .     S
C526   N556    1.367   .     A
C526   C320    1.416   1_655 S
C527   O561    1.292   .     A
C527   O563    1.292   .     A
C527   C529    1.454   .     S
C528   O562    1.292   .     A
C528   C530    1.453   .     S
C528   O564    1.291   .     A
C529   C533    1.396   .     A
C529   C535    1.388   .     A
C530   C534    1.396   .     A
C530   C536    1.388   .     A
C531   C539    1.410   .     A
C531   C533    1.394   .     A
C531   H547    1.083   .     S
C532   C534    1.393   .     A
C532   H548    1.083   .     S
C532   C540    1.409   .     A
C533   H546    1.083   .     S
C534   H545    1.083   .     S
C535   H544    1.077   .     S
C535   C537    1.394   .     A
C536   H543    1.077   .     S
C536   C538    1.393   .     A
C537   C539    1.420   .     A
C537   C541    1.420   .     A
C538   C542    1.419   .     A
C538   C540    1.420   .     A
C539   C1433   1.398   .     S
C540   C1434   1.397   1_554 S
C541   C1460   1.412   .     S
C542   C1459   1.412   1_554 S
N555   Zn565   2.009   .     S
N556   Zn566   2.009   .     S
O557   Zn565   1.990   .     S
O558   Zn566   1.990   .     S
O559   Zn566   1.987   .     S
O560   Zn565   1.987   .     S
O561   Zn565   1.966   .     S
O562   Zn566   1.966   .     S
O563   Zn566   1.902   .     S
O564   Zn565   1.902   .     S
O567   C568    1.413   .     S
C568   H570    1.116   .     S
C568   H569    1.114   .     S
C571   H573    1.112   .     S
C571   H572    1.110   .     S
C571   C574    1.526   .     S
C571   C364    1.530   1_655 S
C574   H577    1.111   .     S
C574   H576    1.111   .     S
C574   H575    1.111   .     S
O578   C579    1.412   .     S
C579   H581    1.114   .     S
C579   H580    1.116   .     S
C579   C378    1.529   1_655 S
C582   C585    1.526   .     S
C582   H584    1.110   .     S
C582   H583    1.112   .     S
C585   H586    1.110   .     S
C585   H587    1.111   .     S
C585   H588    1.111   .     S
O589   C590    1.419   .     S
C590   C593    1.532   .     S
C590   H591    1.111   .     S
C590   H592    1.117   .     S
C593   H594    1.111   .     S
C593   C392    1.527   1_655 S
H595   C899    1.110   .     S
C596   H597    1.111   .     S
C596   H599    1.111   .     S
H598   C902    1.110   .     S
O600   C601    1.417   .     S
C601   H602    1.111   .     S
C601   H603    1.116   .     S
C601   C604    1.532   .     S
C604   C607    1.526   .     S
C604   H605    1.112   .     S
C604   H912    1.111   .     S
C607   H608    1.111   .     S
C607   H609    1.110   .     S
C607   H610    1.111   .     S
C613   C624    1.408   .     S
C613   O659    1.279   .     A
C613   O661    1.280   .     A
C614   O662    1.285   .     A
C614   C623    1.413   .     S
C614   O660    1.277   .     A
C615   H651    1.077   .     S
C615   C644    1.419   .     A
C615   C617    1.396   .     A
C616   H652    1.077   .     S
C616   C618    1.396   .     A
C616   C643    1.419   .     A
C617   O669    1.386   .     S
C617   C1559   1.398   1_554 S
C618   O680    1.385   .     S
C618   C1560   1.397   .     S
C619   C624    1.392   .     A
C619   H653    1.084   .     S
C619   C9      1.372   1_565 S
C620   H654    1.085   .     S
C620   C623    1.396   .     A
C621   O691    1.386   .     S
C621   C623    1.407   .     A
C622   O702    1.385   .     S
C622   C624    1.403   .     A
C622   C8      1.374   1_565 S
C625   N658    1.366   .     A
C625   H713    1.081   .     S
C625   C729    1.416   .     S
C626   H714    1.081   .     S
C626   N657    1.366   .     A
C626   C832    1.416   1_455 S
C627   N657    1.367   .     A
C627   H655    1.082   .     S
C627   C829    1.416   1_455 S
C628   H656    1.082   .     S
C628   N658    1.367   .     A
C628   C728    1.416   .     S
C629   O663    1.292   .     A
C629   O665    1.292   .     A
C629   C631    1.454   .     S
C630   O664    1.292   .     A
C630   C632    1.453   .     S
C630   O666    1.291   .     A
C631   C635    1.396   .     A
C631   C637    1.388   .     A
C632   C636    1.396   .     A
C632   C638    1.388   .     A
C633   C641    1.410   .     A
C633   C635    1.394   .     A
C633   H649    1.083   .     S
C634   C636    1.393   .     A
C634   H650    1.083   .     S
C634   C642    1.409   .     A
C635   H648    1.083   .     S
C636   H647    1.083   .     S
C637   H646    1.077   .     S
C637   C639    1.394   .     A
C638   H645    1.077   .     S
C638   C640    1.393   .     A
C639   C641    1.420   .     A
C639   C643    1.420   .     A
C640   C644    1.419   .     A
C640   C642    1.420   .     A
C641   C1535   1.398   .     S
C642   C1536   1.397   1_554 S
C643   C1562   1.412   .     S
C644   C1561   1.412   1_554 S
N657   Zn667   2.009   .     S
N658   Zn668   2.009   .     S
O659   Zn667   1.990   .     S
O660   Zn668   1.990   .     S
O661   Zn668   1.987   .     S
O662   Zn667   1.987   .     S
O663   Zn667   1.966   .     S
O664   Zn668   1.966   .     S
O665   Zn668   1.902   .     S
O666   Zn667   1.902   .     S
O669   C670    1.413   .     S
C670   H672    1.116   .     S
C670   H671    1.114   .     S
C670   C877    1.530   1_455 S
C673   H675    1.112   .     S
C673   H674    1.110   .     S
C673   C676    1.526   .     S
C673   C772    1.530   .     S
C676   H679    1.111   .     S
C676   H678    1.111   .     S
C676   H677    1.111   .     S
O680   C681    1.412   .     S
C681   H683    1.114   .     S
C681   H682    1.116   .     S
C681   C786    1.529   .     S
C684   C687    1.526   .     S
C684   H686    1.110   .     S
C684   H685    1.112   .     S
C684   C885    1.529   1_455 S
C687   H688    1.110   .     S
C687   H689    1.111   .     S
C687   H690    1.111   .     S
O691   C692    1.419   .     S
C692   C695    1.532   .     S
C692   H693    1.111   .     S
C692   H694    1.117   .     S
C695   H696    1.111   .     S
C695   C800    1.527   .     S
H697   C83     1.110   1_565 S
C698   H699    1.111   .     S
C698   H701    1.111   .     S
C698   C899    1.527   1_455 S
H700   C86     1.110   1_565 S
O702   C703    1.417   .     S
C703   H704    1.111   .     S
C703   H705    1.116   .     S
C703   C706    1.532   .     S
C706   C709    1.526   .     S
C706   H707    1.112   .     S
C706   H96     1.111   1_565 S
C709   H710    1.111   .     S
C709   H711    1.110   .     S
C709   H712    1.111   .     S
C715   C726    1.408   .     S
C715   O761    1.279   .     A
C715   O763    1.280   .     A
C716   O764    1.285   .     A
C716   C725    1.413   .     S
C716   O762    1.277   .     A
C717   H753    1.077   .     S
C717   C746    1.419   .     A
C717   C719    1.396   .     A
C718   H754    1.077   .     S
C718   C720    1.396   .     A
C718   C745    1.419   .     A
C719   O771    1.386   .     S
C719   C1661   1.398   1_554 S
C720   O782    1.385   .     S
C720   C1662   1.397   .     S
C721   C726    1.392   .     A
C721   H755    1.084   .     S
C721   C111    1.372   1_565 S
C722   H756    1.085   .     S
C722   C725    1.396   .     A
C723   O793    1.386   .     S
C723   C725    1.407   .     A
C724   O804    1.385   .     S
C724   C726    1.403   .     A
C724   C110    1.374   1_565 S
C727   N760    1.366   .     A
C727   H815    1.081   .     S
C727   C831    1.416   .     S
C728   H816    1.081   .     S
C728   N759    1.366   .     A
C729   N759    1.367   .     A
C729   H757    1.082   .     S
C730   H758    1.082   .     S
C730   N760    1.367   .     A
C730   C830    1.416   .     S
C731   O765    1.292   .     A
C731   O767    1.292   .     A
C731   C733    1.454   .     S
C732   O766    1.292   .     A
C732   C734    1.453   .     S
C732   O768    1.291   .     A
C733   C737    1.396   .     A
C733   C739    1.388   .     A
C734   C738    1.396   .     A
C734   C740    1.388   .     A
C735   C743    1.410   .     A
C735   C737    1.394   .     A
C735   H751    1.083   .     S
C736   C738    1.393   .     A
C736   H752    1.083   .     S
C736   C744    1.409   .     A
C737   H750    1.083   .     S
C738   H749    1.083   .     S
C739   H748    1.077   .     S
C739   C741    1.394   .     A
C740   H747    1.077   .     S
C740   C742    1.393   .     A
C741   C743    1.420   .     A
C741   C745    1.420   .     A
C742   C746    1.419   .     A
C742   C744    1.420   .     A
C743   C1637   1.398   .     S
C744   C1638   1.397   1_554 S
C745   C1664   1.412   .     S
C746   C1663   1.412   1_554 S
N759   Zn769   2.009   .     S
N760   Zn770   2.009   .     S
O761   Zn769   1.990   .     S
O762   Zn770   1.990   .     S
O763   Zn770   1.987   .     S
O764   Zn769   1.987   .     S
O765   Zn769   1.966   .     S
O766   Zn770   1.966   .     S
O767   Zn770   1.902   .     S
O768   Zn769   1.902   .     S
O771   C772    1.413   .     S
C772   H774    1.116   .     S
C772   H773    1.114   .     S
C775   H777    1.112   .     S
C775   H776    1.110   .     S
C775   C778    1.526   .     S
C775   C874    1.530   .     S
C778   H781    1.111   .     S
C778   H780    1.111   .     S
C778   H779    1.111   .     S
O782   C783    1.412   .     S
C783   H785    1.114   .     S
C783   H784    1.116   .     S
C783   C888    1.529   .     S
C786   C789    1.526   .     S
C786   H788    1.110   .     S
C786   H787    1.112   .     S
C789   H790    1.110   .     S
C789   H791    1.111   .     S
C789   H792    1.111   .     S
O793   C794    1.419   .     S
C794   C797    1.532   .     S
C794   H795    1.111   .     S
C794   H796    1.117   .     S
C797   H798    1.111   .     S
C797   C902    1.527   .     S
H799   C185    1.110   1_565 S
C800   H801    1.111   .     S
C800   H803    1.111   .     S
H802   C188    1.110   1_565 S
O804   C805    1.417   .     S
C805   H806    1.111   .     S
C805   H807    1.116   .     S
C805   C808    1.532   .     S
C808   C811    1.526   .     S
C808   H809    1.112   .     S
C808   H198    1.111   1_565 S
C811   H812    1.111   .     S
C811   H813    1.110   .     S
C811   H814    1.111   .     S
C817   C828    1.408   .     S
C817   O863    1.279   .     A
C817   O865    1.280   .     A
C818   O866    1.285   .     A
C818   C827    1.413   .     S
C818   O864    1.277   .     A
C819   H855    1.077   .     S
C819   C848    1.419   .     A
C819   C821    1.396   .     A
C820   H856    1.077   .     S
C820   C822    1.396   .     A
C820   C847    1.419   .     A
C821   O873    1.386   .     S
C821   C1763   1.398   1_554 S
C822   O884    1.385   .     S
C822   C1764   1.397   .     S
C823   C828    1.392   .     A
C823   H857    1.084   .     S
C823   C213    1.372   1_565 S
C824   H858    1.085   .     S
C824   C827    1.396   .     A
C825   O895    1.386   .     S
C825   C827    1.407   .     A
C826   O906    1.385   .     S
C826   C828    1.403   .     A
C826   C212    1.374   1_565 S
C829   N862    1.366   .     A
C829   H917    1.081   .     S
C829   C627    1.416   1_655 S
C830   H918    1.081   .     S
C830   N861    1.366   .     A
C831   N861    1.367   .     A
C831   H859    1.082   .     S
C832   H860    1.082   .     S
C832   N862    1.367   .     A
C832   C626    1.416   1_655 S
C833   O867    1.292   .     A
C833   O869    1.292   .     A
C833   C835    1.454   .     S
C834   O868    1.292   .     A
C834   C836    1.453   .     S
C834   O870    1.291   .     A
C835   C839    1.396   .     A
C835   C841    1.388   .     A
C836   C840    1.396   .     A
C836   C842    1.388   .     A
C837   C845    1.410   .     A
C837   C839    1.394   .     A
C837   H853    1.083   .     S
C838   C840    1.393   .     A
C838   H854    1.083   .     S
C838   C846    1.409   .     A
C839   H852    1.083   .     S
C840   H851    1.083   .     S
C841   H850    1.077   .     S
C841   C843    1.394   .     A
C842   H849    1.077   .     S
C842   C844    1.393   .     A
C843   C845    1.420   .     A
C843   C847    1.420   .     A
C844   C848    1.419   .     A
C844   C846    1.420   .     A
C845   C1739   1.398   .     S
C846   C1740   1.397   1_554 S
C847   C1766   1.412   .     S
C848   C1765   1.412   1_554 S
N861   Zn871   2.009   .     S
N862   Zn872   2.009   .     S
O863   Zn871   1.990   .     S
O864   Zn872   1.990   .     S
O865   Zn872   1.987   .     S
O866   Zn871   1.987   .     S
O867   Zn871   1.966   .     S
O868   Zn872   1.966   .     S
O869   Zn872   1.902   .     S
O870   Zn871   1.902   .     S
O873   C874    1.413   .     S
C874   H876    1.116   .     S
C874   H875    1.114   .     S
C877   H879    1.112   .     S
C877   H878    1.110   .     S
C877   C880    1.526   .     S
C877   C670    1.530   1_655 S
C880   H883    1.111   .     S
C880   H882    1.111   .     S
C880   H881    1.111   .     S
O884   C885    1.412   .     S
C885   H887    1.114   .     S
C885   H886    1.116   .     S
C885   C684    1.529   1_655 S
C888   C891    1.526   .     S
C888   H890    1.110   .     S
C888   H889    1.112   .     S
C891   H892    1.110   .     S
C891   H893    1.111   .     S
C891   H894    1.111   .     S
O895   C896    1.419   .     S
C896   C899    1.532   .     S
C896   H897    1.111   .     S
C896   H898    1.117   .     S
C899   H900    1.111   .     S
C899   C698    1.527   1_655 S
H901   C287    1.110   1_565 S
C902   H903    1.111   .     S
C902   H905    1.111   .     S
H904   C290    1.110   1_565 S
O906   C907    1.417   .     S
C907   H908    1.111   .     S
C907   H909    1.116   .     S
C907   C910    1.532   .     S
C910   C913    1.526   .     S
C910   H911    1.112   .     S
C910   H300    1.111   1_565 S
C913   H914    1.111   .     S
C913   H915    1.110   .     S
C913   H916    1.111   .     S
C919   C930    1.408   .     S
C919   O965    1.279   .     A
C919   O967    1.280   .     A
C920   O968    1.285   .     A
C920   C929    1.413   .     S
C920   O966    1.277   .     A
C921   H957    1.077   .     S
C921   C950    1.419   .     A
C921   C923    1.396   .     A
C922   H958    1.077   .     S
C922   C924    1.396   .     A
C922   C949    1.419   .     A
C923   O975    1.386   .     S
C924   O986    1.385   .     S
C924   C30     1.397   1_556 S
C925   C930    1.392   .     A
C925   H959    1.084   .     S
C925   C1233   1.372   .     S
C926   H960    1.085   .     S
C926   C929    1.396   .     A
C926   C1540   1.374   1_545 S
C927   O997    1.386   .     S
C927   C929    1.407   .     A
C927   C1537   1.372   1_545 S
C928   O1008   1.385   .     S
C928   C930    1.403   .     A
C928   C1232   1.374   .     S
C931   N964    1.366   .     A
C931   H1019   1.081   .     S
C931   C1035   1.416   .     S
C932   H1020   1.081   .     S
C932   N963    1.366   .     A
C932   C1138   1.416   1_455 S
C933   N963    1.367   .     A
C933   H961    1.082   .     S
C933   C1135   1.416   1_455 S
C934   H962    1.082   .     S
C934   N964    1.367   .     A
C934   C1034   1.416   .     S
C935   O969    1.292   .     A
C935   O971    1.292   .     A
C935   C937    1.454   .     S
C936   O970    1.292   .     A
C936   C938    1.453   .     S
C936   O972    1.291   .     A
C937   C941    1.396   .     A
C937   C943    1.388   .     A
C938   C942    1.396   .     A
C938   C944    1.388   .     A
C939   C947    1.410   .     A
C939   C941    1.394   .     A
C939   H955    1.083   .     S
C940   C942    1.393   .     A
C940   H956    1.083   .     S
C940   C948    1.409   .     A
C941   H954    1.083   .     S
C942   H953    1.083   .     S
C943   H952    1.077   .     S
C943   C945    1.394   .     A
C944   H951    1.077   .     S
C944   C946    1.393   .     A
C945   C947    1.420   .     A
C945   C949    1.420   .     A
C946   C950    1.419   .     A
C946   C948    1.420   .     A
C947   C5      1.398   1_556 S
C949   C32     1.412   1_556 S
N963   Zn973   2.009   .     S
N964   Zn974   2.009   .     S
O965   Zn973   1.990   .     S
O966   Zn974   1.990   .     S
O967   Zn974   1.987   .     S
O968   Zn973   1.987   .     S
O969   Zn973   1.966   .     S
O970   Zn974   1.966   .     S
O971   Zn974   1.902   .     S
O972   Zn973   1.902   .     S
O975   C976    1.413   .     S
C976   H978    1.116   .     S
C976   H977    1.114   .     S
C976   C1183   1.530   1_455 S
C979   H981    1.112   .     S
C979   H980    1.110   .     S
C979   C982    1.526   .     S
C979   C1078   1.530   .     S
C982   H985    1.111   .     S
C982   H984    1.111   .     S
C982   H983    1.111   .     S
O986   C987    1.412   .     S
C987   H989    1.114   .     S
C987   H988    1.116   .     S
C987   C1092   1.529   .     S
C990   C993    1.526   .     S
C990   H992    1.110   .     S
C990   H991    1.112   .     S
C990   C1191   1.529   1_455 S
C993   H994    1.110   .     S
C993   H995    1.111   .     S
C993   H996    1.111   .     S
O997   C998    1.419   .     S
C998   C1001   1.532   .     S
C998   H999    1.111   .     S
C998   H1000   1.117   .     S
C1001  H1002   1.111   .     S
C1001  H1615   1.110   1_545 S
C1001  C1106   1.527   .     S
H1003  C1307   1.110   .     S
C1004  H1005   1.111   .     S
C1004  H1007   1.111   .     S
C1004  C1205   1.527   1_455 S
C1004  H1618   1.110   1_545 S
H1006  C1310   1.110   .     S
O1008  C1009   1.417   .     S
C1009  H1010   1.111   .     S
C1009  H1011   1.116   .     S
C1009  C1012   1.532   .     S
C1012  C1015   1.526   .     S
C1012  H1013   1.112   .     S
C1012  H1320   1.111   .     S
H1014  C1624   1.111   1_545 S
C1015  H1016   1.111   .     S
C1015  H1017   1.110   .     S
C1015  H1018   1.111   .     S
C1021  C1032   1.408   .     S
C1021  O1067   1.279   .     A
C1021  O1069   1.280   .     A
C1022  O1070   1.285   .     A
C1022  C1031   1.413   .     S
C1022  O1068   1.277   .     A
C1023  H1059   1.077   .     S
C1023  C1052   1.419   .     A
C1023  C1025   1.396   .     A
C1024  H1060   1.077   .     S
C1024  C1026   1.396   .     A
C1024  C1051   1.419   .     A
C1025  O1077   1.386   .     S
C1026  O1088   1.385   .     S
C1026  C132    1.397   1_556 S
C1027  C1032   1.392   .     A
C1027  H1061   1.084   .     S
C1027  C1335   1.372   .     S
C1028  H1062   1.085   .     S
C1028  C1031   1.396   .     A
C1028  C1642   1.374   1_545 S
C1029  O1099   1.386   .     S
C1029  C1031   1.407   .     A
C1029  C1639   1.372   1_545 S
C1030  O1110   1.385   .     S
C1030  C1032   1.403   .     A
C1030  C1334   1.374   .     S
C1033  N1066   1.366   .     A
C1033  H1121   1.081   .     S
C1033  C1137   1.416   .     S
C1034  H1122   1.081   .     S
C1034  N1065   1.366   .     A
C1035  N1065   1.367   .     A
C1035  H1063   1.082   .     S
C1036  H1064   1.082   .     S
C1036  N1066   1.367   .     A
C1036  C1136   1.416   .     S
C1037  O1071   1.292   .     A
C1037  O1073   1.292   .     A
C1037  C1039   1.454   .     S
C1038  O1072   1.292   .     A
C1038  C1040   1.453   .     S
C1038  O1074   1.291   .     A
C1039  C1043   1.396   .     A
C1039  C1045   1.388   .     A
C1040  C1044   1.396   .     A
C1040  C1046   1.388   .     A
C1041  C1049   1.410   .     A
C1041  C1043   1.394   .     A
C1041  H1057   1.083   .     S
C1042  C1044   1.393   .     A
C1042  H1058   1.083   .     S
C1042  C1050   1.409   .     A
C1043  H1056   1.083   .     S
C1044  H1055   1.083   .     S
C1045  H1054   1.077   .     S
C1045  C1047   1.394   .     A
C1046  H1053   1.077   .     S
C1046  C1048   1.393   .     A
C1047  C1049   1.420   .     A
C1047  C1051   1.420   .     A
C1048  C1052   1.419   .     A
C1048  C1050   1.420   .     A
C1049  C107    1.398   1_556 S
C1051  C134    1.412   1_556 S
N1065  Zn1075  2.009   .     S
N1066  Zn1076  2.009   .     S
O1067  Zn1075  1.990   .     S
O1068  Zn1076  1.990   .     S
O1069  Zn1076  1.987   .     S
O1070  Zn1075  1.987   .     S
O1071  Zn1075  1.966   .     S
O1072  Zn1076  1.966   .     S
O1073  Zn1076  1.902   .     S
O1074  Zn1075  1.902   .     S
O1077  C1078   1.413   .     S
C1078  H1080   1.116   .     S
C1078  H1079   1.114   .     S
C1081  H1083   1.112   .     S
C1081  H1082   1.110   .     S
C1081  C1084   1.526   .     S
C1081  C1180   1.530   .     S
C1084  H1087   1.111   .     S
C1084  H1086   1.111   .     S
C1084  H1085   1.111   .     S
O1088  C1089   1.412   .     S
C1089  H1091   1.114   .     S
C1089  H1090   1.116   .     S
C1089  C1194   1.529   .     S
C1092  C1095   1.526   .     S
C1092  H1094   1.110   .     S
C1092  H1093   1.112   .     S
C1095  H1096   1.110   .     S
C1095  H1097   1.111   .     S
C1095  H1098   1.111   .     S
O1099  C1100   1.419   .     S
C1100  C1103   1.532   .     S
C1100  H1101   1.111   .     S
C1100  H1102   1.117   .     S
C1103  H1104   1.111   .     S
C1103  H1717   1.110   1_545 S
C1103  C1208   1.527   .     S
H1105  C1409   1.110   .     S
C1106  H1107   1.111   .     S
C1106  H1109   1.111   .     S
C1106  H1720   1.110   1_545 S
H1108  C1412   1.110   .     S
O1110  C1111   1.417   .     S
C1111  H1112   1.111   .     S
C1111  H1113   1.116   .     S
C1111  C1114   1.532   .     S
C1114  C1117   1.526   .     S
C1114  H1115   1.112   .     S
C1114  H1422   1.111   .     S
H1116  C1726   1.111   1_545 S
C1117  H1118   1.111   .     S
C1117  H1119   1.110   .     S
C1117  H1120   1.111   .     S
C1123  C1134   1.408   .     S
C1123  O1169   1.279   .     A
C1123  O1171   1.280   .     A
C1124  O1172   1.285   .     A
C1124  C1133   1.413   .     S
C1124  O1170   1.277   .     A
C1125  H1161   1.077   .     S
C1125  C1154   1.419   .     A
C1125  C1127   1.396   .     A
C1126  H1162   1.077   .     S
C1126  C1128   1.396   .     A
C1126  C1153   1.419   .     A
C1127  O1179   1.386   .     S
C1128  O1190   1.385   .     S
C1128  C234    1.397   1_556 S
C1129  C1134   1.392   .     A
C1129  H1163   1.084   .     S
C1129  C1437   1.372   .     S
C1130  H1164   1.085   .     S
C1130  C1133   1.396   .     A
C1130  C1744   1.374   1_545 S
C1131  O1201   1.386   .     S
C1131  C1133   1.407   .     A
C1131  C1741   1.372   1_545 S
C1132  O1212   1.385   .     S
C1132  C1134   1.403   .     A
C1132  C1436   1.374   .     S
C1135  N1168   1.366   .     A
C1135  H1223   1.081   .     S
C1135  C933    1.416   1_655 S
C1136  H1224   1.081   .     S
C1136  N1167   1.366   .     A
C1137  N1167   1.367   .     A
C1137  H1165   1.082   .     S
C1138  H1166   1.082   .     S
C1138  N1168   1.367   .     A
C1138  C932    1.416   1_655 S
C1139  O1173   1.292   .     A
C1139  O1175   1.292   .     A
C1139  C1141   1.454   .     S
C1140  O1174   1.292   .     A
C1140  C1142   1.453   .     S
C1140  O1176   1.291   .     A
C1141  C1145   1.396   .     A
C1141  C1147   1.388   .     A
C1142  C1146   1.396   .     A
C1142  C1148   1.388   .     A
C1143  C1151   1.410   .     A
C1143  C1145   1.394   .     A
C1143  H1159   1.083   .     S
C1144  C1146   1.393   .     A
C1144  H1160   1.083   .     S
C1144  C1152   1.409   .     A
C1145  H1158   1.083   .     S
C1146  H1157   1.083   .     S
C1147  H1156   1.077   .     S
C1147  C1149   1.394   .     A
C1148  H1155   1.077   .     S
C1148  C1150   1.393   .     A
C1149  C1151   1.420   .     A
C1149  C1153   1.420   .     A
C1150  C1154   1.419   .     A
C1150  C1152   1.420   .     A
C1151  C209    1.398   1_556 S
C1153  C236    1.412   1_556 S
N1167  Zn1177  2.009   .     S
N1168  Zn1178  2.009   .     S
O1169  Zn1177  1.990   .     S
O1170  Zn1178  1.990   .     S
O1171  Zn1178  1.987   .     S
O1172  Zn1177  1.987   .     S
O1173  Zn1177  1.966   .     S
O1174  Zn1178  1.966   .     S
O1175  Zn1178  1.902   .     S
O1176  Zn1177  1.902   .     S
O1179  C1180   1.413   .     S
C1180  H1182   1.116   .     S
C1180  H1181   1.114   .     S
C1183  H1185   1.112   .     S
C1183  H1184   1.110   .     S
C1183  C1186   1.526   .     S
C1183  C976    1.530   1_655 S
C1186  H1189   1.111   .     S
C1186  H1188   1.111   .     S
C1186  H1187   1.111   .     S
O1190  C1191   1.412   .     S
C1191  H1193   1.114   .     S
C1191  H1192   1.116   .     S
C1191  C990    1.529   1_655 S
C1194  C1197   1.526   .     S
C1194  H1196   1.110   .     S
C1194  H1195   1.112   .     S
C1197  H1198   1.110   .     S
C1197  H1199   1.111   .     S
C1197  H1200   1.111   .     S
O1201  C1202   1.419   .     S
C1202  C1205   1.532   .     S
C1202  H1203   1.111   .     S
C1202  H1204   1.117   .     S
C1205  H1206   1.111   .     S
C1205  H1819   1.110   1_545 S
C1205  C1004   1.527   1_655 S
H1207  C1511   1.110   .     S
C1208  H1209   1.111   .     S
C1208  H1211   1.111   .     S
C1208  H1822   1.110   1_545 S
H1210  C1514   1.110   .     S
O1212  C1213   1.417   .     S
C1213  H1214   1.111   .     S
C1213  H1215   1.116   .     S
C1213  C1216   1.532   .     S
C1216  C1219   1.526   .     S
C1216  H1217   1.112   .     S
C1216  H1524   1.111   .     S
H1218  C1828   1.111   1_545 S
C1219  H1220   1.111   .     S
C1219  H1221   1.110   .     S
C1219  H1222   1.111   .     S
C1225  C1236   1.408   .     S
C1225  O1271   1.279   .     A
C1225  O1273   1.280   .     A
C1226  O1274   1.285   .     A
C1226  C1235   1.413   .     S
C1226  O1272   1.277   .     A
C1227  H1263   1.077   .     S
C1227  C1256   1.419   .     A
C1227  C1229   1.396   .     A
C1228  H1264   1.077   .     S
C1228  C1230   1.396   .     A
C1228  C1255   1.419   .     A
C1229  O1281   1.386   .     S
C1230  O1292   1.385   .     S
C1230  C336    1.397   1_556 S
C1231  C1236   1.392   .     A
C1231  H1265   1.084   .     S
C1231  C1539   1.372   .     S
C1232  H1266   1.085   .     S
C1232  C1235   1.396   .     A
C1233  O1303   1.386   .     S
C1233  C1235   1.407   .     A
C1234  O1314   1.385   .     S
C1234  C1236   1.403   .     A
C1234  C1538   1.374   .     S
C1237  N1270   1.366   .     A
C1237  H1325   1.081   .     S
C1237  C1341   1.416   .     S
C1238  H1326   1.081   .     S
C1238  N1269   1.366   .     A
C1238  C1444   1.416   1_455 S
C1239  N1269   1.367   .     A
C1239  H1267   1.082   .     S
C1239  C1441   1.416   1_455 S
C1240  H1268   1.082   .     S
C1240  N1270   1.367   .     A
C1240  C1340   1.416   .     S
C1241  O1275   1.292   .     A
C1241  O1277   1.292   .     A
C1241  C1243   1.454   .     S
C1242  O1276   1.292   .     A
C1242  C1244   1.453   .     S
C1242  O1278   1.291   .     A
C1243  C1247   1.396   .     A
C1243  C1249   1.388   .     A
C1244  C1248   1.396   .     A
C1244  C1250   1.388   .     A
C1245  C1253   1.410   .     A
C1245  C1247   1.394   .     A
C1245  H1261   1.083   .     S
C1246  C1248   1.393   .     A
C1246  H1262   1.083   .     S
C1246  C1254   1.409   .     A
C1247  H1260   1.083   .     S
C1248  H1259   1.083   .     S
C1249  H1258   1.077   .     S
C1249  C1251   1.394   .     A
C1250  H1257   1.077   .     S
C1250  C1252   1.393   .     A
C1251  C1253   1.420   .     A
C1251  C1255   1.420   .     A
C1252  C1256   1.419   .     A
C1252  C1254   1.420   .     A
C1253  C311    1.398   1_556 S
C1255  C338    1.412   1_556 S
N1269  Zn1279  2.009   .     S
N1270  Zn1280  2.009   .     S
O1271  Zn1279  1.990   .     S
O1272  Zn1280  1.990   .     S
O1273  Zn1280  1.987   .     S
O1274  Zn1279  1.987   .     S
O1275  Zn1279  1.966   .     S
O1276  Zn1280  1.966   .     S
O1277  Zn1280  1.902   .     S
O1278  Zn1279  1.902   .     S
O1281  C1282   1.413   .     S
C1282  H1284   1.116   .     S
C1282  H1283   1.114   .     S
C1282  C1489   1.530   1_455 S
C1285  H1287   1.112   .     S
C1285  H1286   1.110   .     S
C1285  C1288   1.526   .     S
C1285  C1384   1.530   .     S
C1288  H1291   1.111   .     S
C1288  H1290   1.111   .     S
C1288  H1289   1.111   .     S
O1292  C1293   1.412   .     S
C1293  H1295   1.114   .     S
C1293  H1294   1.116   .     S
C1293  C1398   1.529   .     S
C1296  C1299   1.526   .     S
C1296  H1298   1.110   .     S
C1296  H1297   1.112   .     S
C1296  C1497   1.529   1_455 S
C1299  H1300   1.110   .     S
C1299  H1301   1.111   .     S
C1299  H1302   1.111   .     S
O1303  C1304   1.419   .     S
C1304  C1307   1.532   .     S
C1304  H1305   1.111   .     S
C1304  H1306   1.117   .     S
C1307  H1308   1.111   .     S
C1307  C1412   1.527   .     S
H1309  C1613   1.110   .     S
C1310  H1311   1.111   .     S
C1310  H1313   1.111   .     S
C1310  C1511   1.527   1_455 S
H1312  C1616   1.110   .     S
O1314  C1315   1.417   .     S
C1315  H1316   1.111   .     S
C1315  H1317   1.116   .     S
C1315  C1318   1.532   .     S
C1318  C1321   1.526   .     S
C1318  H1319   1.112   .     S
C1318  H1626   1.111   .     S
C1321  H1322   1.111   .     S
C1321  H1323   1.110   .     S
C1321  H1324   1.111   .     S
C1327  C1338   1.408   .     S
C1327  O1373   1.279   .     A
C1327  O1375   1.280   .     A
C1328  O1376   1.285   .     A
C1328  C1337   1.413   .     S
C1328  O1374   1.277   .     A
C1329  H1365   1.077   .     S
C1329  C1358   1.419   .     A
C1329  C1331   1.396   .     A
C1330  H1366   1.077   .     S
C1330  C1332   1.396   .     A
C1330  C1357   1.419   .     A
C1331  O1383   1.386   .     S
C1332  O1394   1.385   .     S
C1332  C438    1.397   1_556 S
C1333  C1338   1.392   .     A
C1333  H1367   1.084   .     S
C1333  C1641   1.372   .     S
C1334  H1368   1.085   .     S
C1334  C1337   1.396   .     A
C1335  O1405   1.386   .     S
C1335  C1337   1.407   .     A
C1336  O1416   1.385   .     S
C1336  C1338   1.403   .     A
C1336  C1640   1.374   .     S
C1339  N1372   1.366   .     A
C1339  H1427   1.081   .     S
C1339  C1443   1.416   .     S
C1340  H1428   1.081   .     S
C1340  N1371   1.366   .     A
C1341  N1371   1.367   .     A
C1341  H1369   1.082   .     S
C1342  H1370   1.082   .     S
C1342  N1372   1.367   .     A
C1342  C1442   1.416   .     S
C1343  O1377   1.292   .     A
C1343  O1379   1.292   .     A
C1343  C1345   1.454   .     S
C1344  O1378   1.292   .     A
C1344  C1346   1.453   .     S
C1344  O1380   1.291   .     A
C1345  C1349   1.396   .     A
C1345  C1351   1.388   .     A
C1346  C1350   1.396   .     A
C1346  C1352   1.388   .     A
C1347  C1355   1.410   .     A
C1347  C1349   1.394   .     A
C1347  H1363   1.083   .     S
C1348  C1350   1.393   .     A
C1348  H1364   1.083   .     S
C1348  C1356   1.409   .     A
C1349  H1362   1.083   .     S
C1350  H1361   1.083   .     S
C1351  H1360   1.077   .     S
C1351  C1353   1.394   .     A
C1352  H1359   1.077   .     S
C1352  C1354   1.393   .     A
C1353  C1355   1.420   .     A
C1353  C1357   1.420   .     A
C1354  C1358   1.419   .     A
C1354  C1356   1.420   .     A
C1355  C413    1.398   1_556 S
C1357  C440    1.412   1_556 S
N1371  Zn1381  2.009   .     S
N1372  Zn1382  2.009   .     S
O1373  Zn1381  1.990   .     S
O1374  Zn1382  1.990   .     S
O1375  Zn1382  1.987   .     S
O1376  Zn1381  1.987   .     S
O1377  Zn1381  1.966   .     S
O1378  Zn1382  1.966   .     S
O1379  Zn1382  1.902   .     S
O1380  Zn1381  1.902   .     S
O1383  C1384   1.413   .     S
C1384  H1386   1.116   .     S
C1384  H1385   1.114   .     S
C1387  H1389   1.112   .     S
C1387  H1388   1.110   .     S
C1387  C1390   1.526   .     S
C1387  C1486   1.530   .     S
C1390  H1393   1.111   .     S
C1390  H1392   1.111   .     S
C1390  H1391   1.111   .     S
O1394  C1395   1.412   .     S
C1395  H1397   1.114   .     S
C1395  H1396   1.116   .     S
C1395  C1500   1.529   .     S
C1398  C1401   1.526   .     S
C1398  H1400   1.110   .     S
C1398  H1399   1.112   .     S
C1401  H1402   1.110   .     S
C1401  H1403   1.111   .     S
C1401  H1404   1.111   .     S
O1405  C1406   1.419   .     S
C1406  C1409   1.532   .     S
C1406  H1407   1.111   .     S
C1406  H1408   1.117   .     S
C1409  H1410   1.111   .     S
C1409  C1514   1.527   .     S
H1411  C1715   1.110   .     S
C1412  H1413   1.111   .     S
C1412  H1415   1.111   .     S
H1414  C1718   1.110   .     S
O1416  C1417   1.417   .     S
C1417  H1418   1.111   .     S
C1417  H1419   1.116   .     S
C1417  C1420   1.532   .     S
C1420  C1423   1.526   .     S
C1420  H1421   1.112   .     S
C1420  H1728   1.111   .     S
C1423  H1424   1.111   .     S
C1423  H1425   1.110   .     S
C1423  H1426   1.111   .     S
C1429  C1440   1.408   .     S
C1429  O1475   1.279   .     A
C1429  O1477   1.280   .     A
C1430  O1478   1.285   .     A
C1430  C1439   1.413   .     S
C1430  O1476   1.277   .     A
C1431  H1467   1.077   .     S
C1431  C1460   1.419   .     A
C1431  C1433   1.396   .     A
C1432  H1468   1.077   .     S
C1432  C1434   1.396   .     A
C1432  C1459   1.419   .     A
C1433  O1485   1.386   .     S
C1434  O1496   1.385   .     S
C1434  C540    1.397   1_556 S
C1435  C1440   1.392   .     A
C1435  H1469   1.084   .     S
C1435  C1743   1.372   .     S
C1436  H1470   1.085   .     S
C1436  C1439   1.396   .     A
C1437  O1507   1.386   .     S
C1437  C1439   1.407   .     A
C1438  O1518   1.385   .     S
C1438  C1440   1.403   .     A
C1438  C1742   1.374   .     S
C1441  N1474   1.366   .     A
C1441  H1529   1.081   .     S
C1441  C1239   1.416   1_655 S
C1442  H1530   1.081   .     S
C1442  N1473   1.366   .     A
C1443  N1473   1.367   .     A
C1443  H1471   1.082   .     S
C1444  H1472   1.082   .     S
C1444  N1474   1.367   .     A
C1444  C1238   1.416   1_655 S
C1445  O1479   1.292   .     A
C1445  O1481   1.292   .     A
C1445  C1447   1.454   .     S
C1446  O1480   1.292   .     A
C1446  C1448   1.453   .     S
C1446  O1482   1.291   .     A
C1447  C1451   1.396   .     A
C1447  C1453   1.388   .     A
C1448  C1452   1.396   .     A
C1448  C1454   1.388   .     A
C1449  C1457   1.410   .     A
C1449  C1451   1.394   .     A
C1449  H1465   1.083   .     S
C1450  C1452   1.393   .     A
C1450  H1466   1.083   .     S
C1450  C1458   1.409   .     A
C1451  H1464   1.083   .     S
C1452  H1463   1.083   .     S
C1453  H1462   1.077   .     S
C1453  C1455   1.394   .     A
C1454  H1461   1.077   .     S
C1454  C1456   1.393   .     A
C1455  C1457   1.420   .     A
C1455  C1459   1.420   .     A
C1456  C1460   1.419   .     A
C1456  C1458   1.420   .     A
C1457  C515    1.398   1_556 S
C1459  C542    1.412   1_556 S
N1473  Zn1483  2.009   .     S
N1474  Zn1484  2.009   .     S
O1475  Zn1483  1.990   .     S
O1476  Zn1484  1.990   .     S
O1477  Zn1484  1.987   .     S
O1478  Zn1483  1.987   .     S
O1479  Zn1483  1.966   .     S
O1480  Zn1484  1.966   .     S
O1481  Zn1484  1.902   .     S
O1482  Zn1483  1.902   .     S
O1485  C1486   1.413   .     S
C1486  H1488   1.116   .     S
C1486  H1487   1.114   .     S
C1489  H1491   1.112   .     S
C1489  H1490   1.110   .     S
C1489  C1492   1.526   .     S
C1489  C1282   1.530   1_655 S
C1492  H1495   1.111   .     S
C1492  H1494   1.111   .     S
C1492  H1493   1.111   .     S
O1496  C1497   1.412   .     S
C1497  H1499   1.114   .     S
C1497  H1498   1.116   .     S
C1497  C1296   1.529   1_655 S
C1500  C1503   1.526   .     S
C1500  H1502   1.110   .     S
C1500  H1501   1.112   .     S
C1503  H1504   1.110   .     S
C1503  H1505   1.111   .     S
C1503  H1506   1.111   .     S
O1507  C1508   1.419   .     S
C1508  C1511   1.532   .     S
C1508  H1509   1.111   .     S
C1508  H1510   1.117   .     S
C1511  H1512   1.111   .     S
C1511  C1310   1.527   1_655 S
H1513  C1817   1.110   .     S
C1514  H1515   1.111   .     S
C1514  H1517   1.111   .     S
H1516  C1820   1.110   .     S
O1518  C1519   1.417   .     S
C1519  H1520   1.111   .     S
C1519  H1521   1.116   .     S
C1519  C1522   1.532   .     S
C1522  C1525   1.526   .     S
C1522  H1523   1.112   .     S
C1522  H1830   1.111   .     S
C1525  H1526   1.111   .     S
C1525  H1527   1.110   .     S
C1525  H1528   1.111   .     S
C1531  C1542   1.408   .     S
C1531  O1577   1.279   .     A
C1531  O1579   1.280   .     A
C1532  O1580   1.285   .     A
C1532  C1541   1.413   .     S
C1532  O1578   1.277   .     A
C1533  H1569   1.077   .     S
C1533  C1562   1.419   .     A
C1533  C1535   1.396   .     A
C1534  H1570   1.077   .     S
C1534  C1536   1.396   .     A
C1534  C1561   1.419   .     A
C1535  O1587   1.386   .     S
C1536  O1598   1.385   .     S
C1536  C642    1.397   1_556 S
C1537  C1542   1.392   .     A
C1537  H1571   1.084   .     S
C1537  C927    1.372   1_565 S
C1538  H1572   1.085   .     S
C1538  C1541   1.396   .     A
C1539  O1609   1.386   .     S
C1539  C1541   1.407   .     A
C1540  O1620   1.385   .     S
C1540  C1542   1.403   .     A
C1540  C926    1.374   1_565 S
C1543  N1576   1.366   .     A
C1543  H1631   1.081   .     S
C1543  C1647   1.416   .     S
C1544  H1632   1.081   .     S
C1544  N1575   1.366   .     A
C1544  C1750   1.416   1_455 S
C1545  N1575   1.367   .     A
C1545  H1573   1.082   .     S
C1545  C1747   1.416   1_455 S
C1546  H1574   1.082   .     S
C1546  N1576   1.367   .     A
C1546  C1646   1.416   .     S
C1547  O1581   1.292   .     A
C1547  O1583   1.292   .     A
C1547  C1549   1.454   .     S
C1548  O1582   1.292   .     A
C1548  C1550   1.453   .     S
C1548  O1584   1.291   .     A
C1549  C1553   1.396   .     A
C1549  C1555   1.388   .     A
C1550  C1554   1.396   .     A
C1550  C1556   1.388   .     A
C1551  C1559   1.410   .     A
C1551  C1553   1.394   .     A
C1551  H1567   1.083   .     S
C1552  C1554   1.393   .     A
C1552  H1568   1.083   .     S
C1552  C1560   1.409   .     A
C1553  H1566   1.083   .     S
C1554  H1565   1.083   .     S
C1555  H1564   1.077   .     S
C1555  C1557   1.394   .     A
C1556  H1563   1.077   .     S
C1556  C1558   1.393   .     A
C1557  C1559   1.420   .     A
C1557  C1561   1.420   .     A
C1558  C1562   1.419   .     A
C1558  C1560   1.420   .     A
C1559  C617    1.398   1_556 S
C1561  C644    1.412   1_556 S
N1575  Zn1585  2.009   .     S
N1576  Zn1586  2.009   .     S
O1577  Zn1585  1.990   .     S
O1578  Zn1586  1.990   .     S
O1579  Zn1586  1.987   .     S
O1580  Zn1585  1.987   .     S
O1581  Zn1585  1.966   .     S
O1582  Zn1586  1.966   .     S
O1583  Zn1586  1.902   .     S
O1584  Zn1585  1.902   .     S
O1587  C1588   1.413   .     S
C1588  H1590   1.116   .     S
C1588  H1589   1.114   .     S
C1588  C1795   1.530   1_455 S
C1591  H1593   1.112   .     S
C1591  H1592   1.110   .     S
C1591  C1594   1.526   .     S
C1591  C1690   1.530   .     S
C1594  H1597   1.111   .     S
C1594  H1596   1.111   .     S
C1594  H1595   1.111   .     S
O1598  C1599   1.412   .     S
C1599  H1601   1.114   .     S
C1599  H1600   1.116   .     S
C1599  C1704   1.529   .     S
C1602  C1605   1.526   .     S
C1602  H1604   1.110   .     S
C1602  H1603   1.112   .     S
C1602  C1803   1.529   1_455 S
C1605  H1606   1.110   .     S
C1605  H1607   1.111   .     S
C1605  H1608   1.111   .     S
O1609  C1610   1.419   .     S
C1610  C1613   1.532   .     S
C1610  H1611   1.111   .     S
C1610  H1612   1.117   .     S
C1613  H1614   1.111   .     S
C1613  C1718   1.527   .     S
H1615  C1001   1.110   1_565 S
C1616  H1617   1.111   .     S
C1616  H1619   1.111   .     S
C1616  C1817   1.527   1_455 S
H1618  C1004   1.110   1_565 S
O1620  C1621   1.417   .     S
C1621  H1622   1.111   .     S
C1621  H1623   1.116   .     S
C1621  C1624   1.532   .     S
C1624  C1627   1.526   .     S
C1624  H1625   1.112   .     S
C1624  H1014   1.111   1_565 S
C1627  H1628   1.111   .     S
C1627  H1629   1.110   .     S
C1627  H1630   1.111   .     S
C1633  C1644   1.408   .     S
C1633  O1679   1.279   .     A
C1633  O1681   1.280   .     A
C1634  O1682   1.285   .     A
C1634  C1643   1.413   .     S
C1634  O1680   1.277   .     A
C1635  H1671   1.077   .     S
C1635  C1664   1.419   .     A
C1635  C1637   1.396   .     A
C1636  H1672   1.077   .     S
C1636  C1638   1.396   .     A
C1636  C1663   1.419   .     A
C1637  O1689   1.386   .     S
C1638  O1700   1.385   .     S
C1638  C744    1.397   1_556 S
C1639  C1644   1.392   .     A
C1639  H1673   1.084   .     S
C1639  C1029   1.372   1_565 S
C1640  H1674   1.085   .     S
C1640  C1643   1.396   .     A
C1641  O1711   1.386   .     S
C1641  C1643   1.407   .     A
C1642  O1722   1.385   .     S
C1642  C1644   1.403   .     A
C1642  C1028   1.374   1_565 S
C1645  N1678   1.366   .     A
C1645  H1733   1.081   .     S
C1645  C1749   1.416   .     S
C1646  H1734   1.081   .     S
C1646  N1677   1.366   .     A
C1647  N1677   1.367   .     A
C1647  H1675   1.082   .     S
C1648  H1676   1.082   .     S
C1648  N1678   1.367   .     A
C1648  C1748   1.416   .     S
C1649  O1683   1.292   .     A
C1649  O1685   1.292   .     A
C1649  C1651   1.454   .     S
C1650  O1684   1.292   .     A
C1650  C1652   1.453   .     S
C1650  O1686   1.291   .     A
C1651  C1655   1.396   .     A
C1651  C1657   1.388   .     A
C1652  C1656   1.396   .     A
C1652  C1658   1.388   .     A
C1653  C1661   1.410   .     A
C1653  C1655   1.394   .     A
C1653  H1669   1.083   .     S
C1654  C1656   1.393   .     A
C1654  H1670   1.083   .     S
C1654  C1662   1.409   .     A
C1655  H1668   1.083   .     S
C1656  H1667   1.083   .     S
C1657  H1666   1.077   .     S
C1657  C1659   1.394   .     A
C1658  H1665   1.077   .     S
C1658  C1660   1.393   .     A
C1659  C1661   1.420   .     A
C1659  C1663   1.420   .     A
C1660  C1664   1.419   .     A
C1660  C1662   1.420   .     A
C1661  C719    1.398   1_556 S
C1663  C746    1.412   1_556 S
N1677  Zn1687  2.009   .     S
N1678  Zn1688  2.009   .     S
O1679  Zn1687  1.990   .     S
O1680  Zn1688  1.990   .     S
O1681  Zn1688  1.987   .     S
O1682  Zn1687  1.987   .     S
O1683  Zn1687  1.966   .     S
O1684  Zn1688  1.966   .     S
O1685  Zn1688  1.902   .     S
O1686  Zn1687  1.902   .     S
O1689  C1690   1.413   .     S
C1690  H1692   1.116   .     S
C1690  H1691   1.114   .     S
C1693  H1695   1.112   .     S
C1693  H1694   1.110   .     S
C1693  C1696   1.526   .     S
C1693  C1792   1.530   .     S
C1696  H1699   1.111   .     S
C1696  H1698   1.111   .     S
C1696  H1697   1.111   .     S
O1700  C1701   1.412   .     S
C1701  H1703   1.114   .     S
C1701  H1702   1.116   .     S
C1701  C1806   1.529   .     S
C1704  C1707   1.526   .     S
C1704  H1706   1.110   .     S
C1704  H1705   1.112   .     S
C1707  H1708   1.110   .     S
C1707  H1709   1.111   .     S
C1707  H1710   1.111   .     S
O1711  C1712   1.419   .     S
C1712  C1715   1.532   .     S
C1712  H1713   1.111   .     S
C1712  H1714   1.117   .     S
C1715  H1716   1.111   .     S
C1715  C1820   1.527   .     S
H1717  C1103   1.110   1_565 S
C1718  H1719   1.111   .     S
C1718  H1721   1.111   .     S
H1720  C1106   1.110   1_565 S
O1722  C1723   1.417   .     S
C1723  H1724   1.111   .     S
C1723  H1725   1.116   .     S
C1723  C1726   1.532   .     S
C1726  C1729   1.526   .     S
C1726  H1727   1.112   .     S
C1726  H1116   1.111   1_565 S
C1729  H1730   1.111   .     S
C1729  H1731   1.110   .     S
C1729  H1732   1.111   .     S
C1735  C1746   1.408   .     S
C1735  O1781   1.279   .     A
C1735  O1783   1.280   .     A
C1736  O1784   1.285   .     A
C1736  C1745   1.413   .     S
C1736  O1782   1.277   .     A
C1737  H1773   1.077   .     S
C1737  C1766   1.419   .     A
C1737  C1739   1.396   .     A
C1738  H1774   1.077   .     S
C1738  C1740   1.396   .     A
C1738  C1765   1.419   .     A
C1739  O1791   1.386   .     S
C1740  O1802   1.385   .     S
C1740  C846    1.397   1_556 S
C1741  C1746   1.392   .     A
C1741  H1775   1.084   .     S
C1741  C1131   1.372   1_565 S
C1742  H1776   1.085   .     S
C1742  C1745   1.396   .     A
C1743  O1813   1.386   .     S
C1743  C1745   1.407   .     A
C1744  O1824   1.385   .     S
C1744  C1746   1.403   .     A
C1744  C1130   1.374   1_565 S
C1747  N1780   1.366   .     A
C1747  H1835   1.081   .     S
C1747  C1545   1.416   1_655 S
C1748  H1836   1.081   .     S
C1748  N1779   1.366   .     A
C1749  N1779   1.367   .     A
C1749  H1777   1.082   .     S
C1750  H1778   1.082   .     S
C1750  N1780   1.367   .     A
C1750  C1544   1.416   1_655 S
C1751  O1785   1.292   .     A
C1751  O1787   1.292   .     A
C1751  C1753   1.454   .     S
C1752  O1786   1.292   .     A
C1752  C1754   1.453   .     S
C1752  O1788   1.291   .     A
C1753  C1757   1.396   .     A
C1753  C1759   1.388   .     A
C1754  C1758   1.396   .     A
C1754  C1760   1.388   .     A
C1755  C1763   1.410   .     A
C1755  C1757   1.394   .     A
C1755  H1771   1.083   .     S
C1756  C1758   1.393   .     A
C1756  H1772   1.083   .     S
C1756  C1764   1.409   .     A
C1757  H1770   1.083   .     S
C1758  H1769   1.083   .     S
C1759  H1768   1.077   .     S
C1759  C1761   1.394   .     A
C1760  H1767   1.077   .     S
C1760  C1762   1.393   .     A
C1761  C1763   1.420   .     A
C1761  C1765   1.420   .     A
C1762  C1766   1.419   .     A
C1762  C1764   1.420   .     A
C1763  C821    1.398   1_556 S
C1765  C848    1.412   1_556 S
N1779  Zn1789  2.009   .     S
N1780  Zn1790  2.009   .     S
O1781  Zn1789  1.990   .     S
O1782  Zn1790  1.990   .     S
O1783  Zn1790  1.987   .     S
O1784  Zn1789  1.987   .     S
O1785  Zn1789  1.966   .     S
O1786  Zn1790  1.966   .     S
O1787  Zn1790  1.902   .     S
O1788  Zn1789  1.902   .     S
O1791  C1792   1.413   .     S
C1792  H1794   1.116   .     S
C1792  H1793   1.114   .     S
C1795  H1797   1.112   .     S
C1795  H1796   1.110   .     S
C1795  C1798   1.526   .     S
C1795  C1588   1.530   1_655 S
C1798  H1801   1.111   .     S
C1798  H1800   1.111   .     S
C1798  H1799   1.111   .     S
O1802  C1803   1.412   .     S
C1803  H1805   1.114   .     S
C1803  H1804   1.116   .     S
C1803  C1602   1.529   1_655 S
C1806  C1809   1.526   .     S
C1806  H1808   1.110   .     S
C1806  H1807   1.112   .     S
C1809  H1810   1.110   .     S
C1809  H1811   1.111   .     S
C1809  H1812   1.111   .     S
O1813  C1814   1.419   .     S
C1814  C1817   1.532   .     S
C1814  H1815   1.111   .     S
C1814  H1816   1.117   .     S
C1817  H1818   1.111   .     S
C1817  C1616   1.527   1_655 S
H1819  C1205   1.110   1_565 S
C1820  H1821   1.111   .     S
C1820  H1823   1.111   .     S
H1822  C1208   1.110   1_565 S
O1824  C1825   1.417   .     S
C1825  H1826   1.111   .     S
C1825  H1827   1.116   .     S
C1825  C1828   1.532   .     S
C1828  C1831   1.526   .     S
C1828  H1829   1.112   .     S
C1828  H1218   1.111   1_565 S
C1831  H1832   1.111   .     S
C1831  H1833   1.110   .     S
C1831  H1834   1.111   .     S
